MODEL 1
REMARK VINA RESULT:      -8.8      0.000      0.000
REMARK  Name = 
REMARK  4 active torsions:
REMARK  status: ('A' for Active; 'I' for Inactive)
REMARK    1  A    between atoms: C_1  and  C_2
REMARK    2  A    between atoms: C_5  and  N_6
REMARK    3  A    between atoms: N_6  and  C_7
REMARK    4  A    between atoms: C_7  and  C_8
REMARK                            x       y       z     vdW  Elec       q    Type
REMARK                         _______ _______ _______ _____ _____    ______ ____
ROOT
ATOM      1  C   UNL     1       2.473   8.138  18.285  0.00  0.00    +0.000 A 
ATOM      2  N   UNL     1       3.407   7.507  17.587  0.00  0.00    +0.000 NA
ATOM      3  C   UNL     1       3.461   6.278  18.175  0.00  0.00    +0.000 A 
ATOM      4  C   UNL     1       2.675   6.237  19.302  0.00  0.00    +0.000 A 
ATOM      5  O   UNL     1       1.990   7.417  19.375  0.00  0.00    +0.000 OA
ATOM      6  C   UNL     1       2.200   4.997  19.908  0.00  0.00    +0.000 A 
ATOM      7  C   UNL     1       2.271   4.677  21.261  0.00  0.00    +0.000 A 
ATOM      8  C   UNL     1       1.942   3.373  21.669  0.00  0.00    +0.000 A 
ATOM      9  C   UNL     1       1.451   2.425  20.760  0.00  0.00    +0.000 A 
ATOM     10  C   UNL     1       1.422   2.722  19.401  0.00  0.00    +0.000 A 
ATOM     11  C   UNL     1       1.920   3.955  18.995  0.00  0.00    +0.000 A 
ATOM     12  C   UNL     1       2.511   4.061  17.630  0.00  0.00    +0.000 C 
ATOM     13  O   UNL     1       2.097   3.448  16.676  0.00  0.00    +0.000 OA
ATOM     14  C   UNL     1       3.734   5.004  17.552  0.00  0.00    +0.000 C 
ATOM     15  O   UNL     1       4.835   4.611  17.174  0.00  0.00    +0.000 OA
ENDROOT
BRANCH   1  16
ATOM     16  C   UNL     1       1.702   9.355  17.833  0.00  0.00    +0.000 C 
BRANCH  16  17
ATOM     17  N   UNL     1       0.882  10.037  18.845  0.00  0.00    +0.000 N 
ATOM     18  H   UNL     1       1.384  10.836  19.228  0.00  0.00    +0.000 HD
BRANCH  17  23
ATOM     19  C   UNL     1      -4.455  11.566  17.339  0.00  0.00    +0.000 C 
ATOM     20  C   UNL     1      -3.069  11.152  17.734  0.00  0.00    +0.000 A 
ATOM     21  C   UNL     1      -2.455  10.050  17.138  0.00  0.00    +0.000 A 
ATOM     22  C   UNL     1      -1.154   9.680  17.496  0.00  0.00    +0.000 A 
ATOM     23  C   UNL     1      -0.414  10.410  18.437  0.00  0.00    +0.000 A 
ATOM     24  C   UNL     1      -1.064  11.476  19.073  0.00  0.00    +0.000 A 
ATOM     25  C   UNL     1      -2.368  11.854  18.719  0.00  0.00    +0.000 A 
ENDBRANCH  17  23
ENDBRANCH  16  17
ENDBRANCH   1  16
TORSDOF 3
ENDMDL
MODEL 2
REMARK VINA RESULT:      -8.8      0.826      1.277
REMARK  Name = 
REMARK  4 active torsions:
REMARK  status: ('A' for Active; 'I' for Inactive)
REMARK    1  A    between atoms: C_1  and  C_2
REMARK    2  A    between atoms: C_5  and  N_6
REMARK    3  A    between atoms: N_6  and  C_7
REMARK    4  A    between atoms: C_7  and  C_8
REMARK                            x       y       z     vdW  Elec       q    Type
REMARK                         _______ _______ _______ _____ _____    ______ ____
ROOT
ATOM      1  C   UNL     1       1.912   8.446  19.202  0.00  0.00    +0.000 A 
ATOM      2  N   UNL     1       2.680   7.962  18.237  0.00  0.00    +0.000 NA
ATOM      3  C   UNL     1       2.861   6.661  18.602  0.00  0.00    +0.000 A 
ATOM      4  C   UNL     1       2.329   6.421  19.848  0.00  0.00    +0.000 A 
ATOM      5  O   UNL     1       1.671   7.552  20.243  0.00  0.00    +0.000 OA
ATOM      6  C   UNL     1       1.996   5.088  20.338  0.00  0.00    +0.000 A 
ATOM      7  C   UNL     1       2.350   4.569  21.581  0.00  0.00    +0.000 A 
ATOM      8  C   UNL     1       2.118   3.208  21.839  0.00  0.00    +0.000 A 
ATOM      9  C   UNL     1       1.451   2.392  20.916  0.00  0.00    +0.000 A 
ATOM     10  C   UNL     1       1.136   2.890  19.656  0.00  0.00    +0.000 A 
ATOM     11  C   UNL     1       1.534   4.187  19.352  0.00  0.00    +0.000 A 
ATOM     12  C   UNL     1       1.825   4.519  17.927  0.00  0.00    +0.000 C 
ATOM     13  O   UNL     1       1.221   4.044  16.997  0.00  0.00    +0.000 OA
ATOM     14  C   UNL     1       3.001   5.506  17.746  0.00  0.00    +0.000 C 
ATOM     15  O   UNL     1       3.999   5.215  17.092  0.00  0.00    +0.000 OA
ENDROOT
BRANCH   1  16
ATOM     16  C   UNL     1       1.059   9.690  19.115  0.00  0.00    +0.000 C 
BRANCH  16  17
ATOM     17  N   UNL     1       0.334   9.912  17.855  0.00  0.00    +0.000 N 
ATOM     18  H   UNL     1       0.372   9.077  17.273  0.00  0.00    +0.000 HD
BRANCH  17  23
ATOM     19  C   UNL     1      -5.083  11.814  18.206  0.00  0.00    +0.000 C 
ATOM     20  C   UNL     1      -3.665  11.334  18.113  0.00  0.00    +0.000 A 
ATOM     21  C   UNL     1      -2.678  11.857  18.948  0.00  0.00    +0.000 A 
ATOM     22  C   UNL     1      -1.360  11.391  18.872  0.00  0.00    +0.000 A 
ATOM     23  C   UNL     1      -0.991  10.371  17.983  0.00  0.00    +0.000 A 
ATOM     24  C   UNL     1      -1.978   9.899  17.107  0.00  0.00    +0.000 A 
ATOM     25  C   UNL     1      -3.301  10.360  17.178  0.00  0.00    +0.000 A 
ENDBRANCH  17  23
ENDBRANCH  16  17
ENDBRANCH   1  16
TORSDOF 3
ENDMDL
MODEL 3
REMARK VINA RESULT:      -8.6      4.765      7.023
REMARK  Name = 
REMARK  4 active torsions:
REMARK  status: ('A' for Active; 'I' for Inactive)
REMARK    1  A    between atoms: C_1  and  C_2
REMARK    2  A    between atoms: C_5  and  N_6
REMARK    3  A    between atoms: N_6  and  C_7
REMARK    4  A    between atoms: C_7  and  C_8
REMARK                            x       y       z     vdW  Elec       q    Type
REMARK                         _______ _______ _______ _____ _____    ______ ____
ROOT
ATOM      1  C   UNL     1       5.927   5.631  18.125  0.00  0.00    +0.000 A 
ATOM      2  N   UNL     1       6.371   4.526  18.707  0.00  0.00    +0.000 NA
ATOM      3  C   UNL     1       5.261   4.030  19.326  0.00  0.00    +0.000 A 
ATOM      4  C   UNL     1       4.211   4.913  19.234  0.00  0.00    +0.000 A 
ATOM      5  O   UNL     1       4.602   5.942  18.425  0.00  0.00    +0.000 OA
ATOM      6  C   UNL     1       2.816   4.528  19.421  0.00  0.00    +0.000 A 
ATOM      7  C   UNL     1       1.891   5.191  20.223  0.00  0.00    +0.000 A 
ATOM      8  C   UNL     1       0.638   4.598  20.448  0.00  0.00    +0.000 A 
ATOM      9  C   UNL     1       0.265   3.410  19.805  0.00  0.00    +0.000 A 
ATOM     10  C   UNL     1       1.199   2.717  19.040  0.00  0.00    +0.000 A 
ATOM     11  C   UNL     1       2.491   3.227  18.974  0.00  0.00    +0.000 A 
ATOM     12  C   UNL     1       3.616   2.269  18.770  0.00  0.00    +0.000 C 
ATOM     13  O   UNL     1       3.529   1.275  18.092  0.00  0.00    +0.000 OA
ATOM     14  C   UNL     1       4.903   2.647  19.540  0.00  0.00    +0.000 C 
ATOM     15  O   UNL     1       5.411   1.894  20.366  0.00  0.00    +0.000 OA
ENDROOT
BRANCH   1  16
ATOM     16  C   UNL     1       6.589   6.352  16.975  0.00  0.00    +0.000 C 
BRANCH  16  17
ATOM     17  N   UNL     1       7.500   5.564  16.132  0.00  0.00    +0.000 N 
ATOM     18  H   UNL     1       8.036   4.913  16.703  0.00  0.00    +0.000 HD
BRANCH  17  23
ATOM     19  C   UNL     1       5.099   2.989  11.583  0.00  0.00    +0.000 C 
ATOM     20  C   UNL     1       5.712   3.669  12.771  0.00  0.00    +0.000 A 
ATOM     21  C   UNL     1       5.058   3.678  14.004  0.00  0.00    +0.000 A 
ATOM     22  C   UNL     1       5.642   4.297  15.115  0.00  0.00    +0.000 A 
ATOM     23  C   UNL     1       6.906   4.900  15.041  0.00  0.00    +0.000 A 
ATOM     24  C   UNL     1       7.524   4.938  13.783  0.00  0.00    +0.000 A 
ATOM     25  C   UNL     1       6.945   4.319  12.665  0.00  0.00    +0.000 A 
ENDBRANCH  17  23
ENDBRANCH  16  17
ENDBRANCH   1  16
TORSDOF 3
ENDMDL
MODEL 4
REMARK VINA RESULT:      -8.6      0.490      1.101
REMARK  Name = 
REMARK  4 active torsions:
REMARK  status: ('A' for Active; 'I' for Inactive)
REMARK    1  A    between atoms: C_1  and  C_2
REMARK    2  A    between atoms: C_5  and  N_6
REMARK    3  A    between atoms: N_6  and  C_7
REMARK    4  A    between atoms: C_7  and  C_8
REMARK                            x       y       z     vdW  Elec       q    Type
REMARK                         _______ _______ _______ _____ _____    ______ ____
ROOT
ATOM      1  C   UNL     1       2.607   8.025  18.278  0.00  0.00    +0.000 A 
ATOM      2  N   UNL     1       3.578   7.384  17.645  0.00  0.00    +0.000 NA
ATOM      3  C   UNL     1       3.583   6.157  18.241  0.00  0.00    +0.000 A 
ATOM      4  C   UNL     1       2.725   6.128  19.315  0.00  0.00    +0.000 A 
ATOM      5  O   UNL     1       2.047   7.314  19.338  0.00  0.00    +0.000 OA
ATOM      6  C   UNL     1       2.201   4.896  19.894  0.00  0.00    +0.000 A 
ATOM      7  C   UNL     1       2.181   4.581  21.251  0.00  0.00    +0.000 A 
ATOM      8  C   UNL     1       1.814   3.282  21.642  0.00  0.00    +0.000 A 
ATOM      9  C   UNL     1       1.375   2.334  20.708  0.00  0.00    +0.000 A 
ATOM     10  C   UNL     1       1.437   2.624  19.348  0.00  0.00    +0.000 A 
ATOM     11  C   UNL     1       1.971   3.851  18.970  0.00  0.00    +0.000 A 
ATOM     12  C   UNL     1       2.651   3.945  17.645  0.00  0.00    +0.000 C 
ATOM     13  O   UNL     1       2.295   3.331  16.670  0.00  0.00    +0.000 OA
ATOM     14  C   UNL     1       3.885   4.877  17.643  0.00  0.00    +0.000 C 
ATOM     15  O   UNL     1       5.004   4.473  17.340  0.00  0.00    +0.000 OA
ENDROOT
BRANCH   1  16
ATOM     16  C   UNL     1       1.876   9.247  17.772  0.00  0.00    +0.000 C 
BRANCH  16  17
ATOM     17  N   UNL     1       1.459  10.237  18.776  0.00  0.00    +0.000 N 
ATOM     18  H   UNL     1       2.049  11.066  18.722  0.00  0.00    +0.000 HD
BRANCH  17  23
ATOM     19  C   UNL     1      -4.097  11.707  18.535  0.00  0.00    +0.000 C 
ATOM     20  C   UNL     1      -2.644  11.339  18.596  0.00  0.00    +0.000 A 
ATOM     21  C   UNL     1      -1.782  11.981  19.485  0.00  0.00    +0.000 A 
ATOM     22  C   UNL     1      -0.431  11.621  19.552  0.00  0.00    +0.000 A 
ATOM     23  C   UNL     1       0.097  10.592  18.758  0.00  0.00    +0.000 A 
ATOM     24  C   UNL     1      -0.766   9.999  17.826  0.00  0.00    +0.000 A 
ATOM     25  C   UNL     1      -2.121  10.353  17.754  0.00  0.00    +0.000 A 
ENDBRANCH  17  23
ENDBRANCH  16  17
ENDBRANCH   1  16
TORSDOF 3
ENDMDL
MODEL 5
REMARK VINA RESULT:      -8.6      3.101      4.715
REMARK  Name = 
REMARK  4 active torsions:
REMARK  status: ('A' for Active; 'I' for Inactive)
REMARK    1  A    between atoms: C_1  and  C_2
REMARK    2  A    between atoms: C_5  and  N_6
REMARK    3  A    between atoms: N_6  and  C_7
REMARK    4  A    between atoms: C_7  and  C_8
REMARK                            x       y       z     vdW  Elec       q    Type
REMARK                         _______ _______ _______ _____ _____    ______ ____
ROOT
ATOM      1  C   UNL     1       2.558   6.697  19.104  0.00  0.00    +0.000 A 
ATOM      2  N   UNL     1       2.895   5.628  19.812  0.00  0.00    +0.000 NA
ATOM      3  C   UNL     1       3.763   4.970  18.991  0.00  0.00    +0.000 A 
ATOM      4  C   UNL     1       3.819   5.568  17.754  0.00  0.00    +0.000 A 
ATOM      5  O   UNL     1       3.079   6.715  17.812  0.00  0.00    +0.000 OA
ATOM      6  C   UNL     1       4.918   5.371  16.814  0.00  0.00    +0.000 A 
ATOM      7  C   UNL     1       4.784   5.067  15.462  0.00  0.00    +0.000 A 
ATOM      8  C   UNL     1       5.930   4.725  14.725  0.00  0.00    +0.000 A 
ATOM      9  C   UNL     1       7.209   4.783  15.295  0.00  0.00    +0.000 A 
ATOM     10  C   UNL     1       7.348   5.040  16.655  0.00  0.00    +0.000 A 
ATOM     11  C   UNL     1       6.189   5.199  17.407  0.00  0.00    +0.000 A 
ATOM     12  C   UNL     1       6.228   4.820  18.850  0.00  0.00    +0.000 C 
ATOM     13  O   UNL     1       7.198   4.967  19.551  0.00  0.00    +0.000 OA
ATOM     14  C   UNL     1       4.915   4.181  19.361  0.00  0.00    +0.000 C 
ATOM     15  O   UNL     1       4.887   3.053  19.845  0.00  0.00    +0.000 OA
ENDROOT
BRANCH   1  16
ATOM     16  C   UNL     1       1.970   7.974  19.656  0.00  0.00    +0.000 C 
BRANCH  16  17
ATOM     17  N   UNL     1       1.615   7.981  21.083  0.00  0.00    +0.000 N 
ATOM     18  H   UNL     1       2.448   7.845  21.655  0.00  0.00    +0.000 HD
BRANCH  17  23
ATOM     19  C   UNL     1      -1.520  12.440  22.922  0.00  0.00    +0.000 C 
ATOM     20  C   UNL     1      -0.710  11.278  22.428  0.00  0.00    +0.000 A 
ATOM     21  C   UNL     1       0.006  11.363  21.233  0.00  0.00    +0.000 A 
ATOM     22  C   UNL     1       0.776  10.283  20.786  0.00  0.00    +0.000 A 
ATOM     23  C   UNL     1       0.881   9.097  21.528  0.00  0.00    +0.000 A 
ATOM     24  C   UNL     1       0.108   9.002  22.694  0.00  0.00    +0.000 A 
ATOM     25  C   UNL     1      -0.666  10.081  23.149  0.00  0.00    +0.000 A 
ENDBRANCH  17  23
ENDBRANCH  16  17
ENDBRANCH   1  16
TORSDOF 3
ENDMDL
MODEL 6
REMARK VINA RESULT:      -8.5      0.791      1.282
REMARK  Name = 
REMARK  4 active torsions:
REMARK  status: ('A' for Active; 'I' for Inactive)
REMARK    1  A    between atoms: C_1  and  C_2
REMARK    2  A    between atoms: C_5  and  N_6
REMARK    3  A    between atoms: N_6  and  C_7
REMARK    4  A    between atoms: C_7  and  C_8
REMARK                            x       y       z     vdW  Elec       q    Type
REMARK                         _______ _______ _______ _____ _____    ______ ____
ROOT
ATOM      1  C   UNL     1       2.628   8.157  18.266  0.00  0.00    +0.000 A 
ATOM      2  N   UNL     1       3.515   7.480  17.552  0.00  0.00    +0.000 NA
ATOM      3  C   UNL     1       3.513   6.248  18.138  0.00  0.00    +0.000 A 
ATOM      4  C   UNL     1       2.745   6.247  19.278  0.00  0.00    +0.000 A 
ATOM      5  O   UNL     1       2.125   7.462  19.363  0.00  0.00    +0.000 OA
ATOM      6  C   UNL     1       2.215   5.034  19.891  0.00  0.00    +0.000 A 
ATOM      7  C   UNL     1       2.291   4.708  21.243  0.00  0.00    +0.000 A 
ATOM      8  C   UNL     1       1.899   3.422  21.655  0.00  0.00    +0.000 A 
ATOM      9  C   UNL     1       1.344   2.504  20.754  0.00  0.00    +0.000 A 
ATOM     10  C   UNL     1       1.308   2.804  19.396  0.00  0.00    +0.000 A 
ATOM     11  C   UNL     1       1.865   4.009  18.983  0.00  0.00    +0.000 A 
ATOM     12  C   UNL     1       2.438   4.085  17.607  0.00  0.00    +0.000 C 
ATOM     13  O   UNL     1       1.977   3.497  16.661  0.00  0.00    +0.000 OA
ATOM     14  C   UNL     1       3.708   4.962  17.510  0.00  0.00    +0.000 C 
ATOM     15  O   UNL     1       4.780   4.512  17.114  0.00  0.00    +0.000 OA
ENDROOT
BRANCH   1  16
ATOM     16  C   UNL     1       1.915   9.415  17.828  0.00  0.00    +0.000 C 
BRANCH  16  17
ATOM     17  N   UNL     1       0.462   9.318  17.620  0.00  0.00    +0.000 N 
ATOM     18  H   UNL     1       0.145   8.364  17.782  0.00  0.00    +0.000 HD
BRANCH  17  23
ATOM     19  C   UNL     1      -2.737  12.964  20.713  0.00  0.00    +0.000 C 
ATOM     20  C   UNL     1      -1.915  12.003  19.905  0.00  0.00    +0.000 A 
ATOM     21  C   UNL     1      -2.356  11.562  18.657  0.00  0.00    +0.000 A 
ATOM     22  C   UNL     1      -1.577  10.681  17.897  0.00  0.00    +0.000 A 
ATOM     23  C   UNL     1      -0.324  10.235  18.344  0.00  0.00    +0.000 A 
ATOM     24  C   UNL     1       0.078  10.637  19.626  0.00  0.00    +0.000 A 
ATOM     25  C   UNL     1      -0.697  11.520  20.392  0.00  0.00    +0.000 A 
ENDBRANCH  17  23
ENDBRANCH  16  17
ENDBRANCH   1  16
TORSDOF 3
ENDMDL
MODEL 7
REMARK VINA RESULT:      -8.5      0.903      1.596
REMARK  Name = 
REMARK  4 active torsions:
REMARK  status: ('A' for Active; 'I' for Inactive)
REMARK    1  A    between atoms: C_1  and  C_2
REMARK    2  A    between atoms: C_5  and  N_6
REMARK    3  A    between atoms: N_6  and  C_7
REMARK    4  A    between atoms: C_7  and  C_8
REMARK                            x       y       z     vdW  Elec       q    Type
REMARK                         _______ _______ _______ _____ _____    ______ ____
ROOT
ATOM      1  C   UNL     1       2.734   8.129  18.227  0.00  0.00    +0.000 A 
ATOM      2  N   UNL     1       3.610   7.424  17.525  0.00  0.00    +0.000 NA
ATOM      3  C   UNL     1       3.571   6.196  18.117  0.00  0.00    +0.000 A 
ATOM      4  C   UNL     1       2.792   6.221  19.250  0.00  0.00    +0.000 A 
ATOM      5  O   UNL     1       2.203   7.451  19.322  0.00  0.00    +0.000 OA
ATOM      6  C   UNL     1       2.225   5.025  19.863  0.00  0.00    +0.000 A 
ATOM      7  C   UNL     1       2.280   4.704  21.217  0.00  0.00    +0.000 A 
ATOM      8  C   UNL     1       1.852   3.431  21.632  0.00  0.00    +0.000 A 
ATOM      9  C   UNL     1       1.282   2.522  20.730  0.00  0.00    +0.000 A 
ATOM     10  C   UNL     1       1.267   2.816  19.370  0.00  0.00    +0.000 A 
ATOM     11  C   UNL     1       1.858   4.005  18.956  0.00  0.00    +0.000 A 
ATOM     12  C   UNL     1       2.446   4.059  17.587  0.00  0.00    +0.000 C 
ATOM     13  O   UNL     1       1.979   3.478  16.638  0.00  0.00    +0.000 OA
ATOM     14  C   UNL     1       3.739   4.902  17.497  0.00  0.00    +0.000 C 
ATOM     15  O   UNL     1       4.803   4.423  17.114  0.00  0.00    +0.000 OA
ENDROOT
BRANCH   1  16
ATOM     16  C   UNL     1       2.057   9.402  17.775  0.00  0.00    +0.000 C 
BRANCH  16  17
ATOM     17  N   UNL     1       0.594   9.364  17.637  0.00  0.00    +0.000 N 
ATOM     18  H   UNL     1       0.261   8.402  17.664  0.00  0.00    +0.000 HD
BRANCH  17  23
ATOM     19  C   UNL     1      -2.373  12.765  21.204  0.00  0.00    +0.000 C 
ATOM     20  C   UNL     1      -1.586  11.888  20.276  0.00  0.00    +0.000 A 
ATOM     21  C   UNL     1      -0.360  11.351  20.669  0.00  0.00    +0.000 A 
ATOM     22  C   UNL     1       0.361  10.517  19.808  0.00  0.00    +0.000 A 
ATOM     23  C   UNL     1      -0.129  10.168  18.540  0.00  0.00    +0.000 A 
ATOM     24  C   UNL     1      -1.331  10.764  18.134  0.00  0.00    +0.000 A 
ATOM     25  C   UNL     1      -2.060  11.600  18.992  0.00  0.00    +0.000 A 
ENDBRANCH  17  23
ENDBRANCH  16  17
ENDBRANCH   1  16
TORSDOF 3
ENDMDL
MODEL 8
REMARK VINA RESULT:      -8.4      2.981      5.397
REMARK  Name = 
REMARK  4 active torsions:
REMARK  status: ('A' for Active; 'I' for Inactive)
REMARK    1  A    between atoms: C_1  and  C_2
REMARK    2  A    between atoms: C_5  and  N_6
REMARK    3  A    between atoms: N_6  and  C_7
REMARK    4  A    between atoms: C_7  and  C_8
REMARK                            x       y       z     vdW  Elec       q    Type
REMARK                         _______ _______ _______ _____ _____    ______ ____
ROOT
ATOM      1  C   UNL     1       3.678   4.736  18.561  0.00  0.00    +0.000 A 
ATOM      2  N   UNL     1       4.872   4.666  19.130  0.00  0.00    +0.000 NA
ATOM      3  C   UNL     1       5.708   4.434  18.078  0.00  0.00    +0.000 A 
ATOM      4  C   UNL     1       4.995   4.221  16.921  0.00  0.00    +0.000 A 
ATOM      5  O   UNL     1       3.677   4.451  17.197  0.00  0.00    +0.000 OA
ATOM      6  C   UNL     1       5.568   4.352  15.586  0.00  0.00    +0.000 A 
ATOM      7  C   UNL     1       5.439   3.427  14.554  0.00  0.00    +0.000 A 
ATOM      8  C   UNL     1       6.199   3.602  13.385  0.00  0.00    +0.000 A 
ATOM      9  C   UNL     1       7.002   4.735  13.199  0.00  0.00    +0.000 A 
ATOM     10  C   UNL     1       7.173   5.640  14.242  0.00  0.00    +0.000 A 
ATOM     11  C   UNL     1       6.554   5.356  15.455  0.00  0.00    +0.000 A 
ATOM     12  C   UNL     1       7.192   5.860  16.706  0.00  0.00    +0.000 C 
ATOM     13  O   UNL     1       7.776   6.912  16.777  0.00  0.00    +0.000 OA
ATOM     14  C   UNL     1       7.068   4.888  17.903  0.00  0.00    +0.000 C 
ATOM     15  O   UNL     1       8.054   4.439  18.480  0.00  0.00    +0.000 OA
ENDROOT
BRANCH   1  16
ATOM     16  C   UNL     1       2.450   5.383  19.158  0.00  0.00    +0.000 C 
BRANCH  16  17
ATOM     17  N   UNL     1       2.671   6.511  20.074  0.00  0.00    +0.000 N 
ATOM     18  H   UNL     1       3.668   6.689  20.182  0.00  0.00    +0.000 HD
BRANCH  17  23
ATOM     19  C   UNL     1       0.004  11.427  18.725  0.00  0.00    +0.000 C 
ATOM     20  C   UNL     1       0.707  10.152  19.089  0.00  0.00    +0.000 A 
ATOM     21  C   UNL     1       0.643   9.648  20.388  0.00  0.00    +0.000 A 
ATOM     22  C   UNL     1       1.283   8.448  20.719  0.00  0.00    +0.000 A 
ATOM     23  C   UNL     1       1.983   7.700  19.761  0.00  0.00    +0.000 A 
ATOM     24  C   UNL     1       2.092   8.250  18.476  0.00  0.00    +0.000 A 
ATOM     25  C   UNL     1       1.452   9.451  18.137  0.00  0.00    +0.000 A 
ENDBRANCH  17  23
ENDBRANCH  16  17
ENDBRANCH   1  16
TORSDOF 3
ENDMDL
MODEL 9
REMARK VINA RESULT:      -8.3      1.549      2.160
REMARK  Name = 
REMARK  4 active torsions:
REMARK  status: ('A' for Active; 'I' for Inactive)
REMARK    1  A    between atoms: C_1  and  C_2
REMARK    2  A    between atoms: C_5  and  N_6
REMARK    3  A    between atoms: N_6  and  C_7
REMARK    4  A    between atoms: C_7  and  C_8
REMARK                            x       y       z     vdW  Elec       q    Type
REMARK                         _______ _______ _______ _____ _____    ______ ____
ROOT
ATOM      1  C   UNL     1       2.655   8.118  18.266  0.00  0.00    +0.000 A 
ATOM      2  N   UNL     1       3.528   7.434  17.543  0.00  0.00    +0.000 NA
ATOM      3  C   UNL     1       3.526   6.203  18.130  0.00  0.00    +0.000 A 
ATOM      4  C   UNL     1       2.771   6.208  19.280  0.00  0.00    +0.000 A 
ATOM      5  O   UNL     1       2.161   7.427  19.370  0.00  0.00    +0.000 OA
ATOM      6  C   UNL     1       2.240   4.999  19.900  0.00  0.00    +0.000 A 
ATOM      7  C   UNL     1       2.330   4.674  21.251  0.00  0.00    +0.000 A 
ATOM      8  C   UNL     1       1.936   3.392  21.669  0.00  0.00    +0.000 A 
ATOM      9  C   UNL     1       1.363   2.476  20.776  0.00  0.00    +0.000 A 
ATOM     10  C   UNL     1       1.313   2.775  19.418  0.00  0.00    +0.000 A 
ATOM     11  C   UNL     1       1.872   3.976  18.997  0.00  0.00    +0.000 A 
ATOM     12  C   UNL     1       2.430   4.047  17.615  0.00  0.00    +0.000 C 
ATOM     13  O   UNL     1       1.953   3.461  16.674  0.00  0.00    +0.000 OA
ATOM     14  C   UNL     1       3.704   4.915  17.501  0.00  0.00    +0.000 C 
ATOM     15  O   UNL     1       4.768   4.457  17.093  0.00  0.00    +0.000 OA
ENDROOT
BRANCH   1  16
ATOM     16  C   UNL     1       1.945   9.380  17.835  0.00  0.00    +0.000 C 
BRANCH  16  17
ATOM     17  N   UNL     1       0.508   9.471  18.135  0.00  0.00    +0.000 N 
ATOM     18  H   UNL     1       0.104   8.539  18.214  0.00  0.00    +0.000 HD
BRANCH  17  23
ATOM     19  C   UNL     1      -1.025  12.584  22.723  0.00  0.00    +0.000 C 
ATOM     20  C   UNL     1      -0.638  11.778  21.519  0.00  0.00    +0.000 A 
ATOM     21  C   UNL     1      -0.520  12.379  20.265  0.00  0.00    +0.000 A 
ATOM     22  C   UNL     1      -0.139  11.627  19.148  0.00  0.00    +0.000 A 
ATOM     23  C   UNL     1       0.163  10.261  19.249  0.00  0.00    +0.000 A 
ATOM     24  C   UNL     1      -0.021   9.657  20.501  0.00  0.00    +0.000 A 
ATOM     25  C   UNL     1      -0.401  10.404  21.625  0.00  0.00    +0.000 A 
ENDBRANCH  17  23
ENDBRANCH  16  17
ENDBRANCH   1  16
TORSDOF 3
ENDMDL
