MODEL 1
REMARK VINA RESULT:      -7.3      0.000      0.000
REMARK  Name = 
REMARK  8 active torsions:
REMARK  status: ('A' for Active; 'I' for Inactive)
REMARK    1  A    between atoms: C_2  and  C_3
REMARK    2  A    between atoms: C_3  and  C_4
REMARK    3  A    between atoms: N_6  and  C_7
REMARK    4  A    between atoms: C_10  and  S_11
REMARK    5  A    between atoms: S_11  and  N_12
REMARK    6  A    between atoms: C_17  and  S_18
REMARK    7  A    between atoms: C_17  and  N_19
REMARK    8  A    between atoms: N_19  and  C_20
REMARK                            x       y       z     vdW  Elec       q    Type
REMARK                         _______ _______ _______ _____ _____    ______ ____
ROOT
ATOM      1  C   UNL     1       2.322   5.200  19.436  0.00  0.00    +0.000 C 
ATOM      2  O   UNL     1       1.712   5.197  18.370  0.00  0.00    +0.000 OA
ATOM      3  N   UNL     1       2.444   6.314  20.259  0.00  0.00    +0.000 N 
ATOM      4  H   UNL     1       2.963   6.244  21.128  0.00  0.00    +0.000 HD
ENDROOT
BRANCH   3   5
ATOM      5  C   UNL     1       1.953   7.607  19.933  0.00  0.00    +0.000 A 
ATOM      6  C   UNL     1       2.178   8.211  18.689  0.00  0.00    +0.000 A 
ATOM      7  C   UNL     1       1.707   9.490  18.403  0.00  0.00    +0.000 A 
ATOM      8  C   UNL     1       0.979  10.181  19.364  0.00  0.00    +0.000 A 
ATOM      9  C   UNL     1       0.748   9.610  20.619  0.00  0.00    +0.000 A 
ATOM     10  C   UNL     1       1.225   8.319  20.897  0.00  0.00    +0.000 A 
BRANCH   8  11
ATOM     11  S   UNL     1       0.363  11.786  18.958  0.00  0.00    +0.000 S 
ATOM     12  O   UNL     1      -0.849  11.643  18.177  0.00  0.00    +0.000 OA
ATOM     13  O   UNL     1       0.445  12.638  20.116  0.00  0.00    +0.000 OA
BRANCH  11  14
ATOM     14  N   UNL     1       1.543  12.329  17.898  0.00  0.00    +0.000 NA
ATOM     15  H   UNL     1       1.148  12.448  16.966  0.00  0.00    +0.000 HD
ATOM     16  H   UNL     1       1.992  13.164  18.274  0.00  0.00    +0.000 HD
ENDBRANCH  11  14
ENDBRANCH   8  11
ENDBRANCH   3   5
BRANCH   1  17
ATOM     17  C   UNL     1       2.955   3.926  19.925  0.00  0.00    +0.000 C 
ATOM     18  C   UNL     1       3.883   3.335  19.122  0.00  0.00    +0.000 C 
BRANCH  17  20
ATOM     19  N   UNL     1       2.059   2.901  22.118  0.00  0.00    +0.000 NA
ATOM     20  C   UNL     1       2.465   3.363  21.135  0.00  0.00    +0.000 C 
ENDBRANCH  17  20
BRANCH  18  21
ATOM     21  S   UNL     1       4.553   1.736  19.523  0.00  0.00    +0.000 S 
ATOM     22  H   UNL     1       3.441   1.037  19.797  0.00  0.00    +0.000 HD
ENDBRANCH  18  21
BRANCH  18  23
ATOM     23  N   UNL     1       4.333   3.935  17.943  0.00  0.00    +0.000 N 
ATOM     24  H   UNL     1       4.287   3.318  17.137  0.00  0.00    +0.000 HD
BRANCH  23  25
ATOM     25  C   UNL     1       5.378   4.881  17.845  0.00  0.00    +0.000 A 
ATOM     26  C   UNL     1       6.596   4.729  18.515  0.00  0.00    +0.000 A 
ATOM     27  C   UNL     1       7.584   5.714  18.447  0.00  0.00    +0.000 A 
ATOM     28  C   UNL     1       7.356   6.885  17.730  0.00  0.00    +0.000 A 
ATOM     29  C   UNL     1       6.132   7.078  17.096  0.00  0.00    +0.000 A 
ATOM     30  C   UNL     1       5.146   6.089  17.165  0.00  0.00    +0.000 A 
ENDBRANCH  23  25
ENDBRANCH  18  23
ENDBRANCH   1  17
TORSDOF 8
ENDMDL
MODEL 2
REMARK VINA RESULT:      -7.2      0.683      1.563
REMARK  Name = 
REMARK  8 active torsions:
REMARK  status: ('A' for Active; 'I' for Inactive)
REMARK    1  A    between atoms: C_2  and  C_3
REMARK    2  A    between atoms: C_3  and  C_4
REMARK    3  A    between atoms: N_6  and  C_7
REMARK    4  A    between atoms: C_10  and  S_11
REMARK    5  A    between atoms: S_11  and  N_12
REMARK    6  A    between atoms: C_17  and  S_18
REMARK    7  A    between atoms: C_17  and  N_19
REMARK    8  A    between atoms: N_19  and  C_20
REMARK                            x       y       z     vdW  Elec       q    Type
REMARK                         _______ _______ _______ _____ _____    ______ ____
ROOT
ATOM      1  C   UNL     1       2.273   5.257  19.523  0.00  0.00    +0.000 C 
ATOM      2  O   UNL     1       1.643   5.257  18.468  0.00  0.00    +0.000 OA
ATOM      3  N   UNL     1       2.408   6.368  20.348  0.00  0.00    +0.000 N 
ATOM      4  H   UNL     1       2.944   6.296  21.206  0.00  0.00    +0.000 HD
ENDROOT
BRANCH   3   5
ATOM      5  C   UNL     1       1.909   7.661  20.035  0.00  0.00    +0.000 A 
ATOM      6  C   UNL     1       1.159   8.423  20.941  0.00  0.00    +0.000 A 
ATOM      7  C   UNL     1       0.659   9.678  20.601  0.00  0.00    +0.000 A 
ATOM      8  C   UNL     1       0.924  10.200  19.342  0.00  0.00    +0.000 A 
ATOM      9  C   UNL     1       1.659   9.460  18.411  0.00  0.00    +0.000 A 
ATOM     10  C   UNL     1       2.161   8.196  18.765  0.00  0.00    +0.000 A 
BRANCH   8  11
ATOM     11  S   UNL     1       0.309  11.810  18.953  0.00  0.00    +0.000 S 
ATOM     12  O   UNL     1      -0.469  12.302  20.073  0.00  0.00    +0.000 OA
ATOM     13  O   UNL     1       1.352  12.584  18.332  0.00  0.00    +0.000 OA
BRANCH  11  14
ATOM     14  N   UNL     1      -0.791  11.453  17.739  0.00  0.00    +0.000 NA
ATOM     15  H   UNL     1      -1.433  10.726  18.051  0.00  0.00    +0.000 HD
ATOM     16  H   UNL     1      -1.247  12.309  17.420  0.00  0.00    +0.000 HD
ENDBRANCH  11  14
ENDBRANCH   8  11
ENDBRANCH   3   5
BRANCH   1  17
ATOM     17  C   UNL     1       2.917   3.982  19.994  0.00  0.00    +0.000 C 
ATOM     18  C   UNL     1       3.867   3.422  19.194  0.00  0.00    +0.000 C 
BRANCH  17  20
ATOM     19  N   UNL     1       2.009   2.907  22.158  0.00  0.00    +0.000 NA
ATOM     20  C   UNL     1       2.416   3.386  21.184  0.00  0.00    +0.000 C 
ENDBRANCH  17  20
BRANCH  18  21
ATOM     21  S   UNL     1       4.554   1.826  19.572  0.00  0.00    +0.000 S 
ATOM     22  H   UNL     1       5.859   2.115  19.701  0.00  0.00    +0.000 HD
ENDBRANCH  18  21
BRANCH  18  23
ATOM     23  N   UNL     1       4.327   4.055  18.037  0.00  0.00    +0.000 N 
ATOM     24  H   UNL     1       4.341   3.442  17.225  0.00  0.00    +0.000 HD
BRANCH  23  25
ATOM     25  C   UNL     1       5.325   5.052  17.981  0.00  0.00    +0.000 A 
ATOM     26  C   UNL     1       5.188   6.212  17.212  0.00  0.00    +0.000 A 
ATOM     27  C   UNL     1       6.222   7.148  17.129  0.00  0.00    +0.000 A 
ATOM     28  C   UNL     1       7.424   6.924  17.793  0.00  0.00    +0.000 A 
ATOM     29  C   UNL     1       7.599   5.752  18.525  0.00  0.00    +0.000 A 
ATOM     30  C   UNL     1       6.562   4.818  18.607  0.00  0.00    +0.000 A 
ENDBRANCH  23  25
ENDBRANCH  18  23
ENDBRANCH   1  17
TORSDOF 8
ENDMDL
MODEL 3
REMARK VINA RESULT:      -7.2      0.813      1.281
REMARK  Name = 
REMARK  8 active torsions:
REMARK  status: ('A' for Active; 'I' for Inactive)
REMARK    1  A    between atoms: C_2  and  C_3
REMARK    2  A    between atoms: C_3  and  C_4
REMARK    3  A    between atoms: N_6  and  C_7
REMARK    4  A    between atoms: C_10  and  S_11
REMARK    5  A    between atoms: S_11  and  N_12
REMARK    6  A    between atoms: C_17  and  S_18
REMARK    7  A    between atoms: C_17  and  N_19
REMARK    8  A    between atoms: N_19  and  C_20
REMARK                            x       y       z     vdW  Elec       q    Type
REMARK                         _______ _______ _______ _____ _____    ______ ____
ROOT
ATOM      1  C   UNL     1       2.339   5.488  19.499  0.00  0.00    +0.000 C 
ATOM      2  O   UNL     1       1.891   5.507  18.356  0.00  0.00    +0.000 OA
ATOM      3  N   UNL     1       2.286   6.569  20.373  0.00  0.00    +0.000 N 
ATOM      4  H   UNL     1       2.677   6.483  21.305  0.00  0.00    +0.000 HD
ENDROOT
BRANCH   3   5
ATOM      5  C   UNL     1       1.786   7.853  20.026  0.00  0.00    +0.000 A 
ATOM      6  C   UNL     1       2.016   8.444  18.777  0.00  0.00    +0.000 A 
ATOM      7  C   UNL     1       1.536   9.715  18.471  0.00  0.00    +0.000 A 
ATOM      8  C   UNL     1       0.794  10.411  19.418  0.00  0.00    +0.000 A 
ATOM      9  C   UNL     1       0.558   9.853  20.678  0.00  0.00    +0.000 A 
ATOM     10  C   UNL     1       1.044   8.570  20.975  0.00  0.00    +0.000 A 
BRANCH   8  11
ATOM     11  S   UNL     1       0.166  12.005  18.988  0.00  0.00    +0.000 S 
ATOM     12  O   UNL     1      -0.629  12.513  20.088  0.00  0.00    +0.000 OA
ATOM     13  O   UNL     1       1.207  12.776  18.359  0.00  0.00    +0.000 OA
BRANCH  11  14
ATOM     14  N   UNL     1      -0.917  11.610  17.770  0.00  0.00    +0.000 NA
ATOM     15  H   UNL     1      -0.445  11.612  16.867  0.00  0.00    +0.000 HD
ATOM     16  H   UNL     1      -1.390  10.734  17.996  0.00  0.00    +0.000 HD
ENDBRANCH  11  14
ENDBRANCH   8  11
ENDBRANCH   3   5
BRANCH   1  17
ATOM     17  C   UNL     1       2.955   4.221  20.027  0.00  0.00    +0.000 C 
ATOM     18  C   UNL     1       3.971   3.667  19.309  0.00  0.00    +0.000 C 
BRANCH  17  20
ATOM     19  N   UNL     1       1.888   3.144  22.116  0.00  0.00    +0.000 NA
ATOM     20  C   UNL     1       2.365   3.625  21.175  0.00  0.00    +0.000 C 
ENDBRANCH  17  20
BRANCH  18  21
ATOM     21  S   UNL     1       4.640   2.079  19.748  0.00  0.00    +0.000 S 
ATOM     22  H   UNL     1       3.569   1.470  20.278  0.00  0.00    +0.000 HD
ENDBRANCH  18  21
BRANCH  18  23
ATOM     23  N   UNL     1       4.517   4.300  18.189  0.00  0.00    +0.000 N 
ATOM     24  H   UNL     1       4.527   3.709  17.361  0.00  0.00    +0.000 HD
BRANCH  23  25
ATOM     25  C   UNL     1       5.575   5.235  18.202  0.00  0.00    +0.000 A 
ATOM     26  C   UNL     1       5.696   6.248  17.246  0.00  0.00    +0.000 A 
ATOM     27  C   UNL     1       6.790   7.117  17.251  0.00  0.00    +0.000 A 
ATOM     28  C   UNL     1       7.800   6.966  18.197  0.00  0.00    +0.000 A 
ATOM     29  C   UNL     1       7.723   5.933  19.128  0.00  0.00    +0.000 A 
ATOM     30  C   UNL     1       6.626   5.066  19.121  0.00  0.00    +0.000 A 
ENDBRANCH  23  25
ENDBRANCH  18  23
ENDBRANCH   1  17
TORSDOF 8
ENDMDL
MODEL 4
REMARK VINA RESULT:      -7.1      0.719      1.337
REMARK  Name = 
REMARK  8 active torsions:
REMARK  status: ('A' for Active; 'I' for Inactive)
REMARK    1  A    between atoms: C_2  and  C_3
REMARK    2  A    between atoms: C_3  and  C_4
REMARK    3  A    between atoms: N_6  and  C_7
REMARK    4  A    between atoms: C_10  and  S_11
REMARK    5  A    between atoms: S_11  and  N_12
REMARK    6  A    between atoms: C_17  and  S_18
REMARK    7  A    between atoms: C_17  and  N_19
REMARK    8  A    between atoms: N_19  and  C_20
REMARK                            x       y       z     vdW  Elec       q    Type
REMARK                         _______ _______ _______ _____ _____    ______ ____
ROOT
ATOM      1  C   UNL     1       2.256   5.129  19.489  0.00  0.00    +0.000 C 
ATOM      2  O   UNL     1       1.540   5.090  18.492  0.00  0.00    +0.000 OA
ATOM      3  N   UNL     1       2.482   6.278  20.239  0.00  0.00    +0.000 N 
ATOM      4  H   UNL     1       3.086   6.238  21.053  0.00  0.00    +0.000 HD
ENDROOT
BRANCH   3   5
ATOM      5  C   UNL     1       1.982   7.565  19.901  0.00  0.00    +0.000 A 
ATOM      6  C   UNL     1       2.194   8.155  18.647  0.00  0.00    +0.000 A 
ATOM      7  C   UNL     1       1.715   9.428  18.349  0.00  0.00    +0.000 A 
ATOM      8  C   UNL     1       0.992  10.127  19.308  0.00  0.00    +0.000 A 
ATOM      9  C   UNL     1       0.774   9.571  20.571  0.00  0.00    +0.000 A 
ATOM     10  C   UNL     1       1.259   8.285  20.861  0.00  0.00    +0.000 A 
BRANCH   8  11
ATOM     11  S   UNL     1       0.365  11.724  18.887  0.00  0.00    +0.000 S 
ATOM     12  O   UNL     1       1.448  12.537  18.370  0.00  0.00    +0.000 OA
ATOM     13  O   UNL     1      -0.894  11.580  18.203  0.00  0.00    +0.000 OA
BRANCH  11  14
ATOM     14  N   UNL     1       0.001  12.340  20.404  0.00  0.00    +0.000 NA
ATOM     15  H   UNL     1       0.728  12.989  20.702  0.00  0.00    +0.000 HD
ATOM     16  H   UNL     1      -0.941  12.734  20.403  0.00  0.00    +0.000 HD
ENDBRANCH  11  14
ENDBRANCH   8  11
ENDBRANCH   3   5
BRANCH   1  17
ATOM     17  C   UNL     1       2.914   3.866  19.973  0.00  0.00    +0.000 C 
ATOM     18  C   UNL     1       3.868   3.307  19.177  0.00  0.00    +0.000 C 
BRANCH  17  20
ATOM     19  N   UNL     1       2.025   2.803  22.151  0.00  0.00    +0.000 NA
ATOM     20  C   UNL     1       2.421   3.278  21.170  0.00  0.00    +0.000 C 
ENDBRANCH  17  20
BRANCH  18  21
ATOM     21  S   UNL     1       4.572   1.721  19.571  0.00  0.00    +0.000 S 
ATOM     22  H   UNL     1       4.984   1.301  18.365  0.00  0.00    +0.000 HD
ENDBRANCH  18  21
BRANCH  18  23
ATOM     23  N   UNL     1       4.319   3.932  18.012  0.00  0.00    +0.000 N 
ATOM     24  H   UNL     1       4.350   3.307  17.210  0.00  0.00    +0.000 HD
BRANCH  23  25
ATOM     25  C   UNL     1       5.295   4.950  17.945  0.00  0.00    +0.000 A 
ATOM     26  C   UNL     1       5.105   6.128  17.218  0.00  0.00    +0.000 A 
ATOM     27  C   UNL     1       6.117   7.087  17.120  0.00  0.00    +0.000 A 
ATOM     28  C   UNL     1       7.350   6.867  17.727  0.00  0.00    +0.000 A 
ATOM     29  C   UNL     1       7.577   5.679  18.415  0.00  0.00    +0.000 A 
ATOM     30  C   UNL     1       6.562   4.722  18.512  0.00  0.00    +0.000 A 
ENDBRANCH  23  25
ENDBRANCH  18  23
ENDBRANCH   1  17
TORSDOF 8
ENDMDL
MODEL 5
REMARK VINA RESULT:      -7.1      1.119      1.408
REMARK  Name = 
REMARK  8 active torsions:
REMARK  status: ('A' for Active; 'I' for Inactive)
REMARK    1  A    between atoms: C_2  and  C_3
REMARK    2  A    between atoms: C_3  and  C_4
REMARK    3  A    between atoms: N_6  and  C_7
REMARK    4  A    between atoms: C_10  and  S_11
REMARK    5  A    between atoms: S_11  and  N_12
REMARK    6  A    between atoms: C_17  and  S_18
REMARK    7  A    between atoms: C_17  and  N_19
REMARK    8  A    between atoms: N_19  and  C_20
REMARK                            x       y       z     vdW  Elec       q    Type
REMARK                         _______ _______ _______ _____ _____    ______ ____
ROOT
ATOM      1  C   UNL     1       2.196   4.831  19.263  0.00  0.00    +0.000 C 
ATOM      2  O   UNL     1       1.306   4.839  18.416  0.00  0.00    +0.000 OA
ATOM      3  N   UNL     1       2.615   5.959  19.961  0.00  0.00    +0.000 N 
ATOM      4  H   UNL     1       3.356   5.880  20.648  0.00  0.00    +0.000 HD
ENDROOT
BRANCH   3   5
ATOM      5  C   UNL     1       2.127   7.273  19.724  0.00  0.00    +0.000 A 
ATOM      6  C   UNL     1       2.318   7.944  18.509  0.00  0.00    +0.000 A 
ATOM      7  C   UNL     1       1.852   9.242  18.311  0.00  0.00    +0.000 A 
ATOM      8  C   UNL     1       1.164   9.883  19.333  0.00  0.00    +0.000 A 
ATOM      9  C   UNL     1       0.968   9.245  20.560  0.00  0.00    +0.000 A 
ATOM     10  C   UNL     1       1.439   7.936  20.750  0.00  0.00    +0.000 A 
BRANCH   8  11
ATOM     11  S   UNL     1       0.552  11.514  19.038  0.00  0.00    +0.000 S 
ATOM     12  O   UNL     1      -0.672  11.428  18.266  0.00  0.00    +0.000 OA
ATOM     13  O   UNL     1       0.657  12.291  20.246  0.00  0.00    +0.000 OA
BRANCH  11  14
ATOM     14  N   UNL     1       1.721  12.117  17.997  0.00  0.00    +0.000 NA
ATOM     15  H   UNL     1       1.379  12.095  17.037  0.00  0.00    +0.000 HD
ATOM     16  H   UNL     1       2.028  13.037  18.313  0.00  0.00    +0.000 HD
ENDBRANCH  11  14
ENDBRANCH   8  11
ENDBRANCH   3   5
BRANCH   1  17
ATOM     17  C   UNL     1       2.867   3.532  19.614  0.00  0.00    +0.000 C 
ATOM     18  C   UNL     1       3.525   2.873  18.620  0.00  0.00    +0.000 C 
BRANCH  17  20
ATOM     19  N   UNL     1       2.520   2.610  22.000  0.00  0.00    +0.000 NA
ATOM     20  C   UNL     1       2.676   3.020  20.927  0.00  0.00    +0.000 C 
ENDBRANCH  17  20
BRANCH  18  21
ATOM     21  S   UNL     1       4.192   1.246  18.887  0.00  0.00    +0.000 S 
ATOM     22  H   UNL     1       4.895   1.052  17.761  0.00  0.00    +0.000 HD
ENDBRANCH  18  21
BRANCH  18  23
ATOM     23  N   UNL     1       3.687   3.426  17.347  0.00  0.00    +0.000 N 
ATOM     24  H   UNL     1       3.148   2.945  16.631  0.00  0.00    +0.000 HD
BRANCH  23  25
ATOM     25  C   UNL     1       4.875   3.999  16.840  0.00  0.00    +0.000 A 
ATOM     26  C   UNL     1       5.172   4.031  15.475  0.00  0.00    +0.000 A 
ATOM     27  C   UNL     1       6.385   4.547  15.012  0.00  0.00    +0.000 A 
ATOM     28  C   UNL     1       7.335   5.015  15.914  0.00  0.00    +0.000 A 
ATOM     29  C   UNL     1       7.080   4.947  17.281  0.00  0.00    +0.000 A 
ATOM     30  C   UNL     1       5.864   4.430  17.741  0.00  0.00    +0.000 A 
ENDBRANCH  23  25
ENDBRANCH  18  23
ENDBRANCH   1  17
TORSDOF 8
ENDMDL
MODEL 6
REMARK VINA RESULT:      -7.1      1.221      1.813
REMARK  Name = 
REMARK  8 active torsions:
REMARK  status: ('A' for Active; 'I' for Inactive)
REMARK    1  A    between atoms: C_2  and  C_3
REMARK    2  A    between atoms: C_3  and  C_4
REMARK    3  A    between atoms: N_6  and  C_7
REMARK    4  A    between atoms: C_10  and  S_11
REMARK    5  A    between atoms: S_11  and  N_12
REMARK    6  A    between atoms: C_17  and  S_18
REMARK    7  A    between atoms: C_17  and  N_19
REMARK    8  A    between atoms: N_19  and  C_20
REMARK                            x       y       z     vdW  Elec       q    Type
REMARK                         _______ _______ _______ _____ _____    ______ ____
ROOT
ATOM      1  C   UNL     1       2.149   4.863  19.291  0.00  0.00    +0.000 C 
ATOM      2  O   UNL     1       1.234   4.887  18.472  0.00  0.00    +0.000 OA
ATOM      3  N   UNL     1       2.593   5.977  19.994  0.00  0.00    +0.000 N 
ATOM      4  H   UNL     1       3.355   5.884  20.657  0.00  0.00    +0.000 HD
ENDROOT
BRANCH   3   5
ATOM      5  C   UNL     1       2.103   7.296  19.795  0.00  0.00    +0.000 A 
ATOM      6  C   UNL     1       1.399   8.001  20.781  0.00  0.00    +0.000 A 
ATOM      7  C   UNL     1       0.907   9.283  20.551  0.00  0.00    +0.000 A 
ATOM      8  C   UNL     1       1.134   9.891  19.322  0.00  0.00    +0.000 A 
ATOM      9  C   UNL     1       1.821   9.210  18.314  0.00  0.00    +0.000 A 
ATOM     10  C   UNL     1       2.315   7.918  18.556  0.00  0.00    +0.000 A 
BRANCH   8  11
ATOM     11  S   UNL     1       0.530  11.533  19.073  0.00  0.00    +0.000 S 
ATOM     12  O   UNL     1      -0.170  11.965  20.266  0.00  0.00    +0.000 OA
ATOM     13  O   UNL     1       1.551  12.327  18.440  0.00  0.00    +0.000 OA
BRANCH  11  14
ATOM     14  N   UNL     1      -0.646  11.274  17.907  0.00  0.00    +0.000 NA
ATOM     15  H   UNL     1      -0.755  10.275  17.736  0.00  0.00    +0.000 HD
ATOM     16  H   UNL     1      -1.508  11.752  18.169  0.00  0.00    +0.000 HD
ENDBRANCH  11  14
ENDBRANCH   8  11
ENDBRANCH   3   5
BRANCH   1  17
ATOM     17  C   UNL     1       2.826   3.555  19.599  0.00  0.00    +0.000 C 
ATOM     18  C   UNL     1       3.444   2.908  18.573  0.00  0.00    +0.000 C 
BRANCH  17  20
ATOM     19  N   UNL     1       2.554   2.596  21.980  0.00  0.00    +0.000 NA
ATOM     20  C   UNL     1       2.680   3.026  20.911  0.00  0.00    +0.000 C 
ENDBRANCH  17  20
BRANCH  18  21
ATOM     21  S   UNL     1       4.112   1.274  18.793  0.00  0.00    +0.000 S 
ATOM     22  H   UNL     1       3.720   0.987  20.044  0.00  0.00    +0.000 HD
ENDBRANCH  18  21
BRANCH  18  23
ATOM     23  N   UNL     1       3.562   3.477  17.302  0.00  0.00    +0.000 N 
ATOM     24  H   UNL     1       3.115   2.926  16.574  0.00  0.00    +0.000 HD
BRANCH  23  25
ATOM     25  C   UNL     1       4.671   4.211  16.826  0.00  0.00    +0.000 A 
ATOM     26  C   UNL     1       4.865   5.562  17.127  0.00  0.00    +0.000 A 
ATOM     27  C   UNL     1       5.939   6.275  16.587  0.00  0.00    +0.000 A 
ATOM     28  C   UNL     1       6.821   5.651  15.709  0.00  0.00    +0.000 A 
ATOM     29  C   UNL     1       6.617   4.320  15.357  0.00  0.00    +0.000 A 
ATOM     30  C   UNL     1       5.543   3.609  15.901  0.00  0.00    +0.000 A 
ENDBRANCH  23  25
ENDBRANCH  18  23
ENDBRANCH   1  17
TORSDOF 8
ENDMDL
MODEL 7
REMARK VINA RESULT:      -6.9      1.276      1.643
REMARK  Name = 
REMARK  8 active torsions:
REMARK  status: ('A' for Active; 'I' for Inactive)
REMARK    1  A    between atoms: C_2  and  C_3
REMARK    2  A    between atoms: C_3  and  C_4
REMARK    3  A    between atoms: N_6  and  C_7
REMARK    4  A    between atoms: C_10  and  S_11
REMARK    5  A    between atoms: S_11  and  N_12
REMARK    6  A    between atoms: C_17  and  S_18
REMARK    7  A    between atoms: C_17  and  N_19
REMARK    8  A    between atoms: N_19  and  C_20
REMARK                            x       y       z     vdW  Elec       q    Type
REMARK                         _______ _______ _______ _____ _____    ______ ____
ROOT
ATOM      1  C   UNL     1       2.164   4.857  19.218  0.00  0.00    +0.000 C 
ATOM      2  O   UNL     1       1.266   4.874  18.380  0.00  0.00    +0.000 OA
ATOM      3  N   UNL     1       2.594   5.979  19.919  0.00  0.00    +0.000 N 
ATOM      4  H   UNL     1       3.342   5.892  20.598  0.00  0.00    +0.000 HD
ENDROOT
BRANCH   3   5
ATOM      5  C   UNL     1       2.109   7.296  19.695  0.00  0.00    +0.000 A 
ATOM      6  C   UNL     1       2.300   7.978  18.486  0.00  0.00    +0.000 A 
ATOM      7  C   UNL     1       1.837   9.279  18.301  0.00  0.00    +0.000 A 
ATOM      8  C   UNL     1       1.152   9.912  19.330  0.00  0.00    +0.000 A 
ATOM      9  C   UNL     1       0.956   9.263  20.552  0.00  0.00    +0.000 A 
ATOM     10  C   UNL     1       1.425   7.951  20.728  0.00  0.00    +0.000 A 
BRANCH   8  11
ATOM     11  S   UNL     1       0.543  11.548  19.052  0.00  0.00    +0.000 S 
ATOM     12  O   UNL     1       1.631  12.383  18.584  0.00  0.00    +0.000 OA
ATOM     13  O   UNL     1      -0.729  11.478  18.381  0.00  0.00    +0.000 OA
BRANCH  11  14
ATOM     14  N   UNL     1       0.214  12.042  20.620  0.00  0.00    +0.000 NA
ATOM     15  H   UNL     1       0.437  13.031  20.729  0.00  0.00    +0.000 HD
ATOM     16  H   UNL     1      -0.745  11.798  20.869  0.00  0.00    +0.000 HD
ENDBRANCH  11  14
ENDBRANCH   8  11
ENDBRANCH   3   5
BRANCH   1  17
ATOM     17  C   UNL     1       2.833   3.553  19.554  0.00  0.00    +0.000 C 
ATOM     18  C   UNL     1       3.451   2.882  18.542  0.00  0.00    +0.000 C 
BRANCH  17  20
ATOM     19  N   UNL     1       2.553   2.647  21.955  0.00  0.00    +0.000 NA
ATOM     20  C   UNL     1       2.682   3.050  20.875  0.00  0.00    +0.000 C 
ENDBRANCH  17  20
BRANCH  18  21
ATOM     21  S   UNL     1       4.110   1.250  18.796  0.00  0.00    +0.000 S 
ATOM     22  H   UNL     1       5.208   1.510  19.523  0.00  0.00    +0.000 HD
ENDBRANCH  18  21
BRANCH  18  23
ATOM     23  N   UNL     1       3.575   3.426  17.261  0.00  0.00    +0.000 N 
ATOM     24  H   UNL     1       3.150   2.849  16.539  0.00  0.00    +0.000 HD
BRANCH  23  25
ATOM     25  C   UNL     1       4.676   4.171  16.783  0.00  0.00    +0.000 A 
ATOM     26  C   UNL     1       4.846   5.529  17.068  0.00  0.00    +0.000 A 
ATOM     27  C   UNL     1       5.912   6.252  16.527  0.00  0.00    +0.000 A 
ATOM     28  C   UNL     1       6.811   5.632  15.665  0.00  0.00    +0.000 A 
ATOM     29  C   UNL     1       6.633   4.293  15.329  0.00  0.00    +0.000 A 
ATOM     30  C   UNL     1       5.565   3.572  15.874  0.00  0.00    +0.000 A 
ENDBRANCH  23  25
ENDBRANCH  18  23
ENDBRANCH   1  17
TORSDOF 8
ENDMDL
MODEL 8
REMARK VINA RESULT:      -6.8      1.284      1.426
REMARK  Name = 
REMARK  8 active torsions:
REMARK  status: ('A' for Active; 'I' for Inactive)
REMARK    1  A    between atoms: C_2  and  C_3
REMARK    2  A    between atoms: C_3  and  C_4
REMARK    3  A    between atoms: N_6  and  C_7
REMARK    4  A    between atoms: C_10  and  S_11
REMARK    5  A    between atoms: S_11  and  N_12
REMARK    6  A    between atoms: C_17  and  S_18
REMARK    7  A    between atoms: C_17  and  N_19
REMARK    8  A    between atoms: N_19  and  C_20
REMARK                            x       y       z     vdW  Elec       q    Type
REMARK                         _______ _______ _______ _____ _____    ______ ____
ROOT
ATOM      1  C   UNL     1       2.112   4.957  19.291  0.00  0.00    +0.000 C 
ATOM      2  O   UNL     1       1.304   5.058  18.372  0.00  0.00    +0.000 OA
ATOM      3  N   UNL     1       2.441   5.997  20.154  0.00  0.00    +0.000 N 
ATOM      4  H   UNL     1       3.118   5.843  20.893  0.00  0.00    +0.000 HD
ENDROOT
BRANCH   3   5
ATOM      5  C   UNL     1       1.950   7.325  20.030  0.00  0.00    +0.000 A 
ATOM      6  C   UNL     1       2.134   8.096  18.874  0.00  0.00    +0.000 A 
ATOM      7  C   UNL     1       1.665   9.404  18.787  0.00  0.00    +0.000 A 
ATOM      8  C   UNL     1       0.981   9.956  19.862  0.00  0.00    +0.000 A 
ATOM      9  C   UNL     1       0.791   9.218  21.033  0.00  0.00    +0.000 A 
ATOM     10  C   UNL     1       1.266   7.898  21.110  0.00  0.00    +0.000 A 
BRANCH   8  11
ATOM     11  S   UNL     1       0.364  11.605  19.708  0.00  0.00    +0.000 S 
ATOM     12  O   UNL     1       1.010  12.248  18.580  0.00  0.00    +0.000 OA
ATOM     13  O   UNL     1      -1.064  11.601  19.887  0.00  0.00    +0.000 OA
BRANCH  11  14
ATOM     14  N   UNL     1       1.003  12.321  21.083  0.00  0.00    +0.000 NA
ATOM     15  H   UNL     1       0.311  12.934  21.512  0.00  0.00    +0.000 HD
ATOM     16  H   UNL     1       1.374  11.605  21.708  0.00  0.00    +0.000 HD
ENDBRANCH  11  14
ENDBRANCH   8  11
ENDBRANCH   3   5
BRANCH   1  17
ATOM     17  C   UNL     1       2.775   3.631  19.547  0.00  0.00    +0.000 C 
ATOM     18  C   UNL     1       3.361   3.005  18.489  0.00  0.00    +0.000 C 
BRANCH  17  20
ATOM     19  N   UNL     1       2.553   2.608  21.906  0.00  0.00    +0.000 NA
ATOM     20  C   UNL     1       2.649   3.066  20.846  0.00  0.00    +0.000 C 
ENDBRANCH  17  20
BRANCH  18  21
ATOM     21  S   UNL     1       4.008   1.356  18.647  0.00  0.00    +0.000 S 
ATOM     22  H   UNL     1       5.100   1.417  17.870  0.00  0.00    +0.000 HD
ENDBRANCH  18  21
BRANCH  18  23
ATOM     23  N   UNL     1       3.461   3.610  17.233  0.00  0.00    +0.000 N 
ATOM     24  H   UNL     1       2.976   3.096  16.502  0.00  0.00    +0.000 HD
BRANCH  23  25
ATOM     25  C   UNL     1       4.579   4.322  16.746  0.00  0.00    +0.000 A 
ATOM     26  C   UNL     1       5.598   3.711  16.009  0.00  0.00    +0.000 A 
ATOM     27  C   UNL     1       6.722   4.431  15.597  0.00  0.00    +0.000 A 
ATOM     28  C   UNL     1       6.860   5.772  15.944  0.00  0.00    +0.000 A 
ATOM     29  C   UNL     1       5.881   6.387  16.720  0.00  0.00    +0.000 A 
ATOM     30  C   UNL     1       4.756   5.663  17.129  0.00  0.00    +0.000 A 
ENDBRANCH  23  25
ENDBRANCH  18  23
ENDBRANCH   1  17
TORSDOF 8
ENDMDL
MODEL 9
REMARK VINA RESULT:      -6.8      2.974      8.112
REMARK  Name = 
REMARK  8 active torsions:
REMARK  status: ('A' for Active; 'I' for Inactive)
REMARK    1  A    between atoms: C_2  and  C_3
REMARK    2  A    between atoms: C_3  and  C_4
REMARK    3  A    between atoms: N_6  and  C_7
REMARK    4  A    between atoms: C_10  and  S_11
REMARK    5  A    between atoms: S_11  and  N_12
REMARK    6  A    between atoms: C_17  and  S_18
REMARK    7  A    between atoms: C_17  and  N_19
REMARK    8  A    between atoms: N_19  and  C_20
REMARK                            x       y       z     vdW  Elec       q    Type
REMARK                         _______ _______ _______ _____ _____    ______ ____
ROOT
ATOM      1  C   UNL     1       1.010   8.906  20.403  0.00  0.00    +0.000 C 
ATOM      2  O   UNL     1       1.349   9.234  19.269  0.00  0.00    +0.000 OA
ATOM      3  N   UNL     1       1.289   7.667  20.970  0.00  0.00    +0.000 N 
ATOM      4  H   UNL     1       0.978   7.463  21.914  0.00  0.00    +0.000 HD
ENDROOT
BRANCH   3   5
ATOM      5  C   UNL     1       1.925   6.598  20.283  0.00  0.00    +0.000 A 
ATOM      6  C   UNL     1       2.778   6.801  19.189  0.00  0.00    +0.000 A 
ATOM      7  C   UNL     1       3.369   5.735  18.517  0.00  0.00    +0.000 A 
ATOM      8  C   UNL     1       3.127   4.437  18.949  0.00  0.00    +0.000 A 
ATOM      9  C   UNL     1       2.273   4.201  20.030  0.00  0.00    +0.000 A 
ATOM     10  C   UNL     1       1.683   5.283  20.702  0.00  0.00    +0.000 A 
BRANCH   8  11
ATOM     11  S   UNL     1       3.922   3.107  18.100  0.00  0.00    +0.000 S 
ATOM     12  O   UNL     1       2.968   2.034  17.903  0.00  0.00    +0.000 OA
ATOM     13  O   UNL     1       4.729   3.635  17.031  0.00  0.00    +0.000 OA
BRANCH  11  14
ATOM     14  N   UNL     1       4.996   2.570  19.271  0.00  0.00    +0.000 NA
ATOM     15  H   UNL     1       4.493   2.084  20.011  0.00  0.00    +0.000 HD
ATOM     16  H   UNL     1       5.739   2.021  18.836  0.00  0.00    +0.000 HD
ENDBRANCH  11  14
ENDBRANCH   8  11
ENDBRANCH   3   5
BRANCH   1  17
ATOM     17  C   UNL     1       0.278   9.896  21.268  0.00  0.00    +0.000 C 
ATOM     18  C   UNL     1      -0.319  10.953  20.650  0.00  0.00    +0.000 C 
BRANCH  17  20
ATOM     19  N   UNL     1       0.408   9.583  23.827  0.00  0.00    +0.000 NA
ATOM     20  C   UNL     1       0.352   9.727  22.678  0.00  0.00    +0.000 C 
ENDBRANCH  17  20
BRANCH  18  21
ATOM     21  S   UNL     1      -1.049  12.271  21.596  0.00  0.00    +0.000 S 
ATOM     22  H   UNL     1      -2.352  11.953  21.543  0.00  0.00    +0.000 HD
ENDBRANCH  18  21
BRANCH  18  23
ATOM     23  N   UNL     1      -0.366  11.066  19.258  0.00  0.00    +0.000 N 
ATOM     24  H   UNL     1       0.238  11.800  18.896  0.00  0.00    +0.000 HD
BRANCH  23  25
ATOM     25  C   UNL     1      -1.504  10.851  18.450  0.00  0.00    +0.000 A 
ATOM     26  C   UNL     1      -1.503   9.965  17.369  0.00  0.00    +0.000 A 
ATOM     27  C   UNL     1      -2.626   9.824  16.550  0.00  0.00    +0.000 A 
ATOM     28  C   UNL     1      -3.763  10.592  16.785  0.00  0.00    +0.000 A 
ATOM     29  C   UNL     1      -3.768  11.515  17.826  0.00  0.00    +0.000 A 
ATOM     30  C   UNL     1      -2.642  11.653  18.644  0.00  0.00    +0.000 A 
ENDBRANCH  23  25
ENDBRANCH  18  23
ENDBRANCH   1  17
TORSDOF 8
ENDMDL
