MODEL 1
REMARK VINA RESULT:      -6.9      0.000      0.000
REMARK  Name = 
REMARK  4 active torsions:
REMARK  status: ('A' for Active; 'I' for Inactive)
REMARK    1  A    between atoms: O_1  and  C_2
REMARK    2  A    between atoms: C_9  and  C_10
REMARK    3  A    between atoms: C_10  and  N_11
REMARK    4  A    between atoms: N_11  and  C_12
REMARK                            x       y       z     vdW  Elec       q    Type
REMARK                         _______ _______ _______ _____ _____    ______ ____
ROOT
ATOM      1  C   UNL     1       5.642   4.232  18.289  0.00  0.00    +0.000 A 
ATOM      2  C   UNL     1       6.792   4.905  17.862  0.00  0.00    +0.000 A 
ATOM      3 BR   UNL     1       7.934   5.756  19.113  0.00  0.00    +0.000 Br
ATOM      4  C   UNL     1       7.099   4.978  16.506  0.00  0.00    +0.000 A 
ATOM      5  C   UNL     1       6.246   4.377  15.584  0.00  0.00    +0.000 A 
ATOM      6 BR   UNL     1       6.639   4.502  13.738  0.00  0.00    +0.000 Br
ATOM      7  C   UNL     1       5.095   3.701  16.003  0.00  0.00    +0.000 A 
ATOM      8  C   UNL     1       4.786   3.603  17.370  0.00  0.00    +0.000 A 
ENDROOT
BRANCH   1   9
ATOM      9  O   UNL     1       5.306   4.190  19.617  0.00  0.00    +0.000 OA
ATOM     10  H   UNL     1       6.126   4.305  20.133  0.00  0.00    +0.000 HD
ENDBRANCH   1   9
BRANCH   8  11
ATOM     11  C   UNL     1       3.497   2.977  17.856  0.00  0.00    +0.000 C 
BRANCH  11  12
ATOM     12  N   UNL     1       2.331   3.840  17.649  0.00  0.00    +0.000 N 
ATOM     13  H   UNL     1       1.461   3.314  17.730  0.00  0.00    +0.000 HD
BRANCH  12  14
ATOM     14  C   UNL     1       2.262   4.984  18.484  0.00  0.00    +0.000 A 
ATOM     15  C   UNL     1       2.549   6.270  17.997  0.00  0.00    +0.000 A 
ATOM     16  C   UNL     1       2.449   7.402  18.810  0.00  0.00    +0.000 A 
ATOM     17  C   UNL     1       2.017   7.281  20.125  0.00  0.00    +0.000 A 
ATOM     18  C   UNL     1       1.669   6.027  20.621  0.00  0.00    +0.000 A 
ATOM     19  C   UNL     1       1.779   4.893  19.805  0.00  0.00    +0.000 A 
ATOM     20 BR   UNL     1       1.291   3.215  20.559  0.00  0.00    +0.000 Br
ENDBRANCH  12  14
ENDBRANCH  11  12
ENDBRANCH   8  11
TORSDOF 4
ENDMDL
MODEL 2
REMARK VINA RESULT:      -6.9      1.934      5.432
REMARK  Name = 
REMARK  4 active torsions:
REMARK  status: ('A' for Active; 'I' for Inactive)
REMARK    1  A    between atoms: O_1  and  C_2
REMARK    2  A    between atoms: C_9  and  C_10
REMARK    3  A    between atoms: C_10  and  N_11
REMARK    4  A    between atoms: N_11  and  C_12
REMARK                            x       y       z     vdW  Elec       q    Type
REMARK                         _______ _______ _______ _____ _____    ______ ____
ROOT
ATOM      1  C   UNL     1       2.715   3.389  19.343  0.00  0.00    +0.000 A 
ATOM      2  C   UNL     1       2.067   3.820  20.505  0.00  0.00    +0.000 A 
ATOM      3 BR   UNL     1       1.520   2.574  21.825  0.00  0.00    +0.000 Br
ATOM      4  C   UNL     1       1.794   5.172  20.696  0.00  0.00    +0.000 A 
ATOM      5  C   UNL     1       2.171   6.086  19.715  0.00  0.00    +0.000 A 
ATOM      6 BR   UNL     1       1.771   7.919  19.953  0.00  0.00    +0.000 Br
ATOM      7  C   UNL     1       2.821   5.663  18.550  0.00  0.00    +0.000 A 
ATOM      8  C   UNL     1       3.120   4.304  18.356  0.00  0.00    +0.000 A 
ENDROOT
BRANCH   1   9
ATOM      9  O   UNL     1       2.951   2.057  19.124  0.00  0.00    +0.000 OA
ATOM     10  H   UNL     1       3.458   1.717  19.884  0.00  0.00    +0.000 HD
ENDBRANCH   1   9
BRANCH   8  11
ATOM     11  C   UNL     1       3.721   3.794  17.065  0.00  0.00    +0.000 C 
BRANCH  11  12
ATOM     12  N   UNL     1       5.145   3.471  17.188  0.00  0.00    +0.000 N 
ATOM     13  H   UNL     1       5.504   3.044  16.334  0.00  0.00    +0.000 HD
BRANCH  12  14
ATOM     14  C   UNL     1       5.987   4.550  17.558  0.00  0.00    +0.000 A 
ATOM     15  C   UNL     1       6.454   4.702  18.874  0.00  0.00    +0.000 A 
ATOM     16  C   UNL     1       7.311   5.747  19.232  0.00  0.00    +0.000 A 
ATOM     17  C   UNL     1       7.756   6.645  18.270  0.00  0.00    +0.000 A 
ATOM     18  C   UNL     1       7.357   6.488  16.945  0.00  0.00    +0.000 A 
ATOM     19  C   UNL     1       6.491   5.444  16.592  0.00  0.00    +0.000 A 
ATOM     20 BR   UNL     1       5.985   5.301  14.762  0.00  0.00    +0.000 Br
ENDBRANCH  12  14
ENDBRANCH  11  12
ENDBRANCH   8  11
TORSDOF 4
ENDMDL
MODEL 3
REMARK VINA RESULT:      -6.8      2.535      3.333
REMARK  Name = 
REMARK  4 active torsions:
REMARK  status: ('A' for Active; 'I' for Inactive)
REMARK    1  A    between atoms: O_1  and  C_2
REMARK    2  A    between atoms: C_9  and  C_10
REMARK    3  A    between atoms: C_10  and  N_11
REMARK    4  A    between atoms: N_11  and  C_12
REMARK                            x       y       z     vdW  Elec       q    Type
REMARK                         _______ _______ _______ _____ _____    ______ ____
ROOT
ATOM      1  C   UNL     1       4.480   5.740  18.607  0.00  0.00    +0.000 A 
ATOM      2  C   UNL     1       4.234   6.579  17.514  0.00  0.00    +0.000 A 
ATOM      3 BR   UNL     1       3.002   8.013  17.656  0.00  0.00    +0.000 Br
ATOM      4  C   UNL     1       4.875   6.356  16.299  0.00  0.00    +0.000 A 
ATOM      5  C   UNL     1       5.760   5.287  16.185  0.00  0.00    +0.000 A 
ATOM      6 BR   UNL     1       6.608   4.957  14.527  0.00  0.00    +0.000 Br
ATOM      7  C   UNL     1       6.014   4.444  17.273  0.00  0.00    +0.000 A 
ATOM      8  C   UNL     1       5.387   4.672  18.510  0.00  0.00    +0.000 A 
ENDROOT
BRANCH   1   9
ATOM      9  O   UNL     1       3.823   5.924  19.794  0.00  0.00    +0.000 OA
ATOM     10  H   UNL     1       2.883   6.084  19.591  0.00  0.00    +0.000 HD
ENDBRANCH   1   9
BRANCH   8  11
ATOM     11  C   UNL     1       5.550   3.721  19.675  0.00  0.00    +0.000 C 
BRANCH  11  12
ATOM     12  N   UNL     1       4.756   2.498  19.529  0.00  0.00    +0.000 N 
ATOM     13  H   UNL     1       5.193   1.712  20.010  0.00  0.00    +0.000 HD
BRANCH  12  14
ATOM     14  C   UNL     1       3.401   2.597  19.933  0.00  0.00    +0.000 A 
ATOM     15  C   UNL     1       3.042   2.707  21.287  0.00  0.00    +0.000 A 
ATOM     16  C   UNL     1       1.708   2.839  21.684  0.00  0.00    +0.000 A 
ATOM     17  C   UNL     1       0.699   2.905  20.730  0.00  0.00    +0.000 A 
ATOM     18  C   UNL     1       1.027   2.857  19.378  0.00  0.00    +0.000 A 
ATOM     19  C   UNL     1       2.365   2.717  18.984  0.00  0.00    +0.000 A 
ATOM     20 BR   UNL     1       2.731   2.650  17.117  0.00  0.00    +0.000 Br
ENDBRANCH  12  14
ENDBRANCH  11  12
ENDBRANCH   8  11
TORSDOF 4
ENDMDL
MODEL 4
REMARK VINA RESULT:      -6.7      1.484      2.129
REMARK  Name = 
REMARK  4 active torsions:
REMARK  status: ('A' for Active; 'I' for Inactive)
REMARK    1  A    between atoms: O_1  and  C_2
REMARK    2  A    between atoms: C_9  and  C_10
REMARK    3  A    between atoms: C_10  and  N_11
REMARK    4  A    between atoms: N_11  and  C_12
REMARK                            x       y       z     vdW  Elec       q    Type
REMARK                         _______ _______ _______ _____ _____    ______ ____
ROOT
ATOM      1  C   UNL     1       5.872   4.269  17.822  0.00  0.00    +0.000 A 
ATOM      2  C   UNL     1       6.957   5.112  17.554  0.00  0.00    +0.000 A 
ATOM      3 BR   UNL     1       7.854   6.008  18.963  0.00  0.00    +0.000 Br
ATOM      4  C   UNL     1       7.376   5.322  16.243  0.00  0.00    +0.000 A 
ATOM      5  C   UNL     1       6.700   4.685  15.205  0.00  0.00    +0.000 A 
ATOM      6 BR   UNL     1       7.243   4.993  13.419  0.00  0.00    +0.000 Br
ATOM      7  C   UNL     1       5.616   3.840  15.464  0.00  0.00    +0.000 A 
ATOM      8  C   UNL     1       5.197   3.604  16.785  0.00  0.00    +0.000 A 
ENDROOT
BRANCH   1   9
ATOM      9  O   UNL     1       5.424   4.089  19.104  0.00  0.00    +0.000 OA
ATOM     10  H   UNL     1       5.326   4.970  19.510  0.00  0.00    +0.000 HD
ENDBRANCH   1   9
BRANCH   8  11
ATOM     11  C   UNL     1       3.965   2.786  17.098  0.00  0.00    +0.000 C 
BRANCH  11  12
ATOM     12  N   UNL     1       2.751   3.601  17.205  0.00  0.00    +0.000 N 
ATOM     13  H   UNL     1       2.031   3.281  16.558  0.00  0.00    +0.000 HD
BRANCH  12  14
ATOM     14  C   UNL     1       2.196   3.701  18.506  0.00  0.00    +0.000 A 
ATOM     15  C   UNL     1       1.777   2.566  19.218  0.00  0.00    +0.000 A 
ATOM     16  C   UNL     1       1.260   2.662  20.514  0.00  0.00    +0.000 A 
ATOM     17  C   UNL     1       1.189   3.896  21.147  0.00  0.00    +0.000 A 
ATOM     18  C   UNL     1       1.650   5.034  20.490  0.00  0.00    +0.000 A 
ATOM     19  C   UNL     1       2.159   4.935  19.188  0.00  0.00    +0.000 A 
ATOM     20 BR   UNL     1       2.762   6.536  18.354  0.00  0.00    +0.000 Br
ENDBRANCH  12  14
ENDBRANCH  11  12
ENDBRANCH   8  11
TORSDOF 4
ENDMDL
MODEL 5
REMARK VINA RESULT:      -6.6      4.023      6.919
REMARK  Name = 
REMARK  4 active torsions:
REMARK  status: ('A' for Active; 'I' for Inactive)
REMARK    1  A    between atoms: O_1  and  C_2
REMARK    2  A    between atoms: C_9  and  C_10
REMARK    3  A    between atoms: C_10  and  N_11
REMARK    4  A    between atoms: N_11  and  C_12
REMARK                            x       y       z     vdW  Elec       q    Type
REMARK                         _______ _______ _______ _____ _____    ______ ____
ROOT
ATOM      1  C   UNL     1       1.449   9.975  18.811  0.00  0.00    +0.000 A 
ATOM      2  C   UNL     1       0.845  11.054  19.466  0.00  0.00    +0.000 A 
ATOM      3 BR   UNL     1       0.677  12.736  18.605  0.00  0.00    +0.000 Br
ATOM      4  C   UNL     1       0.378  10.913  20.770  0.00  0.00    +0.000 A 
ATOM      5  C   UNL     1       0.524   9.686  21.413  0.00  0.00    +0.000 A 
ATOM      6 BR   UNL     1      -0.075   9.497  23.197  0.00  0.00    +0.000 Br
ATOM      7  C   UNL     1       1.126   8.602  20.766  0.00  0.00    +0.000 A 
ATOM      8  C   UNL     1       1.582   8.727  19.442  0.00  0.00    +0.000 A 
ENDROOT
BRANCH   1   9
ATOM      9  O   UNL     1       1.950  10.115  17.544  0.00  0.00    +0.000 OA
ATOM     10  H   UNL     1       2.275   9.242  17.256  0.00  0.00    +0.000 HD
ENDBRANCH   1   9
BRANCH   8  11
ATOM     11  C   UNL     1       2.335   7.615  18.747  0.00  0.00    +0.000 C 
BRANCH  11  12
ATOM     12  N   UNL     1       2.904   6.640  19.681  0.00  0.00    +0.000 N 
ATOM     13  H   UNL     1       2.810   6.953  20.647  0.00  0.00    +0.000 HD
BRANCH  12  14
ATOM     14  C   UNL     1       2.398   5.320  19.569  0.00  0.00    +0.000 A 
ATOM     15  C   UNL     1       1.375   4.849  20.408  0.00  0.00    +0.000 A 
ATOM     16  C   UNL     1       0.853   3.559  20.276  0.00  0.00    +0.000 A 
ATOM     17  C   UNL     1       1.315   2.718  19.270  0.00  0.00    +0.000 A 
ATOM     18  C   UNL     1       2.288   3.176  18.386  0.00  0.00    +0.000 A 
ATOM     19  C   UNL     1       2.815   4.467  18.527  0.00  0.00    +0.000 A 
ATOM     20 BR   UNL     1       4.148   5.015  17.284  0.00  0.00    +0.000 Br
ENDBRANCH  12  14
ENDBRANCH  11  12
ENDBRANCH   8  11
TORSDOF 4
ENDMDL
MODEL 6
REMARK VINA RESULT:      -6.6      1.987      5.483
REMARK  Name = 
REMARK  4 active torsions:
REMARK  status: ('A' for Active; 'I' for Inactive)
REMARK    1  A    between atoms: O_1  and  C_2
REMARK    2  A    between atoms: C_9  and  C_10
REMARK    3  A    between atoms: C_10  and  N_11
REMARK    4  A    between atoms: N_11  and  C_12
REMARK                            x       y       z     vdW  Elec       q    Type
REMARK                         _______ _______ _______ _____ _____    ______ ____
ROOT
ATOM      1  C   UNL     1       2.756   5.630  18.548  0.00  0.00    +0.000 A 
ATOM      2  C   UNL     1       2.158   6.065  19.736  0.00  0.00    +0.000 A 
ATOM      3 BR   UNL     1       1.867   7.912  20.051  0.00  0.00    +0.000 Br
ATOM      4  C   UNL     1       1.790   5.146  20.715  0.00  0.00    +0.000 A 
ATOM      5  C   UNL     1       2.028   3.791  20.496  0.00  0.00    +0.000 A 
ATOM      6 BR   UNL     1       1.562   2.540  21.836  0.00  0.00    +0.000 Br
ATOM      7  C   UNL     1       2.624   3.347  19.310  0.00  0.00    +0.000 A 
ATOM      8  C   UNL     1       2.981   4.265  18.307  0.00  0.00    +0.000 A 
ENDROOT
BRANCH   1   9
ATOM      9  O   UNL     1       3.161   6.529  17.597  0.00  0.00    +0.000 OA
ATOM     10  H   UNL     1       4.112   6.381  17.436  0.00  0.00    +0.000 HD
ENDBRANCH   1   9
BRANCH   8  11
ATOM     11  C   UNL     1       3.725   3.838  17.062  0.00  0.00    +0.000 C 
BRANCH  11  12
ATOM     12  N   UNL     1       5.120   3.478  17.326  0.00  0.00    +0.000 N 
ATOM     13  H   UNL     1       5.526   2.966  16.543  0.00  0.00    +0.000 HD
BRANCH  12  14
ATOM     14  C   UNL     1       5.975   4.557  17.669  0.00  0.00    +0.000 A 
ATOM     15  C   UNL     1       6.423   4.751  18.985  0.00  0.00    +0.000 A 
ATOM     16  C   UNL     1       7.292   5.795  19.318  0.00  0.00    +0.000 A 
ATOM     17  C   UNL     1       7.768   6.648  18.330  0.00  0.00    +0.000 A 
ATOM     18  C   UNL     1       7.388   6.447  17.006  0.00  0.00    +0.000 A 
ATOM     19  C   UNL     1       6.510   5.405  16.678  0.00  0.00    +0.000 A 
ATOM     20 BR   UNL     1       6.030   5.201  14.847  0.00  0.00    +0.000 Br
ENDBRANCH  12  14
ENDBRANCH  11  12
ENDBRANCH   8  11
TORSDOF 4
ENDMDL
MODEL 7
REMARK VINA RESULT:      -6.6      3.697      6.702
REMARK  Name = 
REMARK  4 active torsions:
REMARK  status: ('A' for Active; 'I' for Inactive)
REMARK    1  A    between atoms: O_1  and  C_2
REMARK    2  A    between atoms: C_9  and  C_10
REMARK    3  A    between atoms: C_10  and  N_11
REMARK    4  A    between atoms: N_11  and  C_12
REMARK                            x       y       z     vdW  Elec       q    Type
REMARK                         _______ _______ _______ _____ _____    ______ ____
ROOT
ATOM      1  C   UNL     1       1.209   8.888  20.300  0.00  0.00    +0.000 A 
ATOM      2  C   UNL     1       0.161   9.555  20.944  0.00  0.00    +0.000 A 
ATOM      3 BR   UNL     1      -0.119   9.339  22.807  0.00  0.00    +0.000 Br
ATOM      4  C   UNL     1      -0.705  10.368  20.219  0.00  0.00    +0.000 A 
ATOM      5  C   UNL     1      -0.516  10.506  18.846  0.00  0.00    +0.000 A 
ATOM      6 BR   UNL     1      -1.710  11.581  17.850  0.00  0.00    +0.000 Br
ATOM      7  C   UNL     1       0.530   9.844  18.194  0.00  0.00    +0.000 A 
ATOM      8  C   UNL     1       1.423   9.037  18.919  0.00  0.00    +0.000 A 
ENDROOT
BRANCH   1   9
ATOM      9  O   UNL     1       2.042   8.051  20.995  0.00  0.00    +0.000 OA
ATOM     10  H   UNL     1       1.765   8.068  21.930  0.00  0.00    +0.000 HD
ENDBRANCH   1   9
BRANCH   8  11
ATOM     11  C   UNL     1       2.497   8.220  18.237  0.00  0.00    +0.000 C 
BRANCH  11  12
ATOM     12  N   UNL     1       2.395   6.787  18.526  0.00  0.00    +0.000 N 
ATOM     13  H   UNL     1       1.436   6.454  18.422  0.00  0.00    +0.000 HD
BRANCH  12  14
ATOM     14  C   UNL     1       3.261   5.949  17.778  0.00  0.00    +0.000 A 
ATOM     15  C   UNL     1       4.444   6.441  17.201  0.00  0.00    +0.000 A 
ATOM     16  C   UNL     1       5.315   5.608  16.493  0.00  0.00    +0.000 A 
ATOM     17  C   UNL     1       5.045   4.250  16.379  0.00  0.00    +0.000 A 
ATOM     18  C   UNL     1       3.911   3.721  16.989  0.00  0.00    +0.000 A 
ATOM     19  C   UNL     1       3.035   4.561  17.692  0.00  0.00    +0.000 A 
ATOM     20 BR   UNL     1       1.502   3.763  18.490  0.00  0.00    +0.000 Br
ENDBRANCH  12  14
ENDBRANCH  11  12
ENDBRANCH   8  11
TORSDOF 4
ENDMDL
MODEL 8
REMARK VINA RESULT:      -6.6      2.297      3.557
REMARK  Name = 
REMARK  4 active torsions:
REMARK  status: ('A' for Active; 'I' for Inactive)
REMARK    1  A    between atoms: O_1  and  C_2
REMARK    2  A    between atoms: C_9  and  C_10
REMARK    3  A    between atoms: C_10  and  N_11
REMARK    4  A    between atoms: N_11  and  C_12
REMARK                            x       y       z     vdW  Elec       q    Type
REMARK                         _______ _______ _______ _____ _____    ______ ____
ROOT
ATOM      1  C   UNL     1       6.036   4.374  16.792  0.00  0.00    +0.000 A 
ATOM      2  C   UNL     1       6.596   5.152  15.773  0.00  0.00    +0.000 A 
ATOM      3 BR   UNL     1       6.618   4.528  13.983  0.00  0.00    +0.000 Br
ATOM      4  C   UNL     1       7.168   6.387  16.067  0.00  0.00    +0.000 A 
ATOM      5  C   UNL     1       7.177   6.833  17.386  0.00  0.00    +0.000 A 
ATOM      6 BR   UNL     1       7.983   8.494  17.797  0.00  0.00    +0.000 Br
ATOM      7  C   UNL     1       6.618   6.063  18.411  0.00  0.00    +0.000 A 
ATOM      8  C   UNL     1       6.020   4.823  18.123  0.00  0.00    +0.000 A 
ENDROOT
BRANCH   1   9
ATOM      9  O   UNL     1       5.509   3.138  16.522  0.00  0.00    +0.000 OA
ATOM     10  H   UNL     1       4.538   3.228  16.500  0.00  0.00    +0.000 HD
ENDBRANCH   1   9
BRANCH   8  11
ATOM     11  C   UNL     1       5.503   3.913  19.214  0.00  0.00    +0.000 C 
BRANCH  11  12
ATOM     12  N   UNL     1       4.397   3.060  18.770  0.00  0.00    +0.000 N 
ATOM     13  H   UNL     1       4.715   2.111  18.576  0.00  0.00    +0.000 HD
BRANCH  12  14
ATOM     14  C   UNL     1       3.278   3.008  19.640  0.00  0.00    +0.000 A 
ATOM     15  C   UNL     1       3.362   2.421  20.913  0.00  0.00    +0.000 A 
ATOM     16  C   UNL     1       2.269   2.400  21.784  0.00  0.00    +0.000 A 
ATOM     17  C   UNL     1       1.072   3.003  21.418  0.00  0.00    +0.000 A 
ATOM     18  C   UNL     1       0.975   3.643  20.185  0.00  0.00    +0.000 A 
ATOM     19  C   UNL     1       2.070   3.656  19.311  0.00  0.00    +0.000 A 
ATOM     20 BR   UNL     1       1.855   4.544  17.641  0.00  0.00    +0.000 Br
ENDBRANCH  12  14
ENDBRANCH  11  12
ENDBRANCH   8  11
TORSDOF 4
ENDMDL
MODEL 9
REMARK VINA RESULT:      -6.6      1.943      5.842
REMARK  Name = 
REMARK  4 active torsions:
REMARK  status: ('A' for Active; 'I' for Inactive)
REMARK    1  A    between atoms: O_1  and  C_2
REMARK    2  A    between atoms: C_9  and  C_10
REMARK    3  A    between atoms: C_10  and  N_11
REMARK    4  A    between atoms: N_11  and  C_12
REMARK                            x       y       z     vdW  Elec       q    Type
REMARK                         _______ _______ _______ _____ _____    ______ ____
ROOT
ATOM      1  C   UNL     1       2.651   3.398  19.289  0.00  0.00    +0.000 A 
ATOM      2  C   UNL     1       2.101   3.828  20.502  0.00  0.00    +0.000 A 
ATOM      3 BR   UNL     1       1.633   2.577  21.848  0.00  0.00    +0.000 Br
ATOM      4  C   UNL     1       1.869   5.182  20.727  0.00  0.00    +0.000 A 
ATOM      5  C   UNL     1       2.187   6.100  19.728  0.00  0.00    +0.000 A 
ATOM      6 BR   UNL     1       1.842   7.937  20.013  0.00  0.00    +0.000 Br
ATOM      7  C   UNL     1       2.738   5.679  18.513  0.00  0.00    +0.000 A 
ATOM      8  C   UNL     1       2.996   4.316  18.283  0.00  0.00    +0.000 A 
ENDROOT
BRANCH   1   9
ATOM      9  O   UNL     1       2.844   2.065  19.040  0.00  0.00    +0.000 OA
ATOM     10  H   UNL     1       2.279   1.564  19.657  0.00  0.00    +0.000 HD
ENDBRANCH   1   9
BRANCH   8  11
ATOM     11  C   UNL     1       3.487   3.810  16.946  0.00  0.00    +0.000 C 
BRANCH  11  12
ATOM     12  N   UNL     1       4.876   3.345  16.987  0.00  0.00    +0.000 N 
ATOM     13  H   UNL     1       4.927   2.327  17.002  0.00  0.00    +0.000 HD
BRANCH  12  14
ATOM     14  C   UNL     1       5.716   3.837  15.955  0.00  0.00    +0.000 A 
ATOM     15  C   UNL     1       5.433   3.602  14.600  0.00  0.00    +0.000 A 
ATOM     16  C   UNL     1       6.242   4.115  13.582  0.00  0.00    +0.000 A 
ATOM     17  C   UNL     1       7.335   4.914  13.895  0.00  0.00    +0.000 A 
ATOM     18  C   UNL     1       7.609   5.213  15.227  0.00  0.00    +0.000 A 
ATOM     19  C   UNL     1       6.800   4.690  16.245  0.00  0.00    +0.000 A 
ATOM     20 BR   UNL     1       7.245   5.138  18.041  0.00  0.00    +0.000 Br
ENDBRANCH  12  14
ENDBRANCH  11  12
ENDBRANCH   8  11
TORSDOF 4
ENDMDL
