MODEL 1
REMARK VINA RESULT:      -7.2      0.000      0.000
REMARK  Name = 
REMARK  4 active torsions:
REMARK  status: ('A' for Active; 'I' for Inactive)
REMARK    1  A    between atoms: C_2  and  C_3
REMARK    2  A    between atoms: C_3  and  S_4
REMARK    3  A    between atoms: S_4  and  C_5
REMARK    4  A    between atoms: N_14  and  C_15
REMARK                            x       y       z     vdW  Elec       q    Type
REMARK                         _______ _______ _______ _____ _____    ______ ____
ROOT
ATOM      1  C   UNL     1       5.863   5.730  18.038  0.00  0.00    +0.000 C 
ENDROOT
BRANCH   1   3
ATOM      2  O   UNL     1       7.626   4.541  16.968  0.00  0.00    +0.000 OA
ATOM      3  C   UNL     1       6.543   5.110  16.824  0.00  0.00    +0.000 C 
ATOM      4  N   UNL     1       5.920   5.338  15.608  0.00  0.00    +0.000 N 
ATOM      5  H   UNL     1       5.117   5.957  15.622  0.00  0.00    +0.000 HD
BRANCH   4   6
ATOM      6  C   UNL     1       6.296   4.811  14.354  0.00  0.00    +0.000 A 
ATOM      7  C   UNL     1       5.598   3.784  13.716  0.00  0.00    +0.000 A 
ATOM      8  C   UNL     1       6.000   3.319  12.459  0.00  0.00    +0.000 A 
ATOM      9  C   UNL     1       7.113   3.874  11.833  0.00  0.00    +0.000 A 
ATOM     10  C   UNL     1       7.818   4.899  12.459  0.00  0.00    +0.000 A 
ATOM     11  C   UNL     1       7.405   5.374  13.709  0.00  0.00    +0.000 A 
ENDBRANCH   4   6
ENDBRANCH   1   3
BRANCH   1  12
ATOM     12  S   UNL     1       4.321   6.600  17.616  0.00  0.00    +0.000 S 
BRANCH  12  13
ATOM     13  C   UNL     1       3.199   5.779  18.714  0.00  0.00    +0.000 A 
ATOM     14  N   UNL     1       2.690   6.442  19.772  0.00  0.00    +0.000 NA
ATOM     15  C   UNL     1       1.803   5.798  20.547  0.00  0.00    +0.000 A 
ATOM     16  N   UNL     1       1.345   4.552  20.396  0.00  0.00    +0.000 NA
ATOM     17  C   UNL     1       1.878   3.934  19.332  0.00  0.00    +0.000 A 
ATOM     18  S   UNL     1       1.423   2.334  18.938  0.00  0.00    +0.000 S 
ATOM     19  C   UNL     1       2.469   2.301  17.587  0.00  0.00    +0.000 A 
ATOM     20  C   UNL     1       3.149   3.490  17.439  0.00  0.00    +0.000 A 
ATOM     21  C   UNL     1       2.808   4.460  18.448  0.00  0.00    +0.000 A 
ENDBRANCH  12  13
ENDBRANCH   1  12
TORSDOF 4
ENDMDL
MODEL 2
REMARK VINA RESULT:      -7.1      1.464      2.161
REMARK  Name = 
REMARK  4 active torsions:
REMARK  status: ('A' for Active; 'I' for Inactive)
REMARK    1  A    between atoms: C_2  and  C_3
REMARK    2  A    between atoms: C_3  and  S_4
REMARK    3  A    between atoms: S_4  and  C_5
REMARK    4  A    between atoms: N_14  and  C_15
REMARK                            x       y       z     vdW  Elec       q    Type
REMARK                         _______ _______ _______ _____ _____    ______ ____
ROOT
ATOM      1  C   UNL     1       6.157   5.930  17.970  0.00  0.00    +0.000 C 
ENDROOT
BRANCH   1   3
ATOM      2  O   UNL     1       7.773   4.564  16.879  0.00  0.00    +0.000 OA
ATOM      3  C   UNL     1       6.740   5.223  16.754  0.00  0.00    +0.000 C 
ATOM      4  N   UNL     1       6.100   5.476  15.551  0.00  0.00    +0.000 N 
ATOM      5  H   UNL     1       5.355   6.164  15.573  0.00  0.00    +0.000 HD
BRANCH   4   6
ATOM      6  C   UNL     1       6.387   4.888  14.301  0.00  0.00    +0.000 A 
ATOM      7  C   UNL     1       5.605   3.880  13.733  0.00  0.00    +0.000 A 
ATOM      8  C   UNL     1       5.922   3.352  12.477  0.00  0.00    +0.000 A 
ATOM      9  C   UNL     1       7.031   3.823  11.780  0.00  0.00    +0.000 A 
ATOM     10  C   UNL     1       7.820   4.828  12.337  0.00  0.00    +0.000 A 
ATOM     11  C   UNL     1       7.492   5.366  13.586  0.00  0.00    +0.000 A 
ENDBRANCH   4   6
ENDBRANCH   1   3
BRANCH   1  12
ATOM     12  S   UNL     1       4.361   6.199  17.838  0.00  0.00    +0.000 S 
BRANCH  12  13
ATOM     13  C   UNL     1       3.786   4.551  18.142  0.00  0.00    +0.000 A 
ATOM     14  N   UNL     1       4.088   3.565  17.274  0.00  0.00    +0.000 NA
ATOM     15  C   UNL     1       3.677   2.322  17.570  0.00  0.00    +0.000 A 
ATOM     16  N   UNL     1       2.994   1.926  18.648  0.00  0.00    +0.000 NA
ATOM     17  C   UNL     1       2.719   2.939  19.482  0.00  0.00    +0.000 A 
ATOM     18  S   UNL     1       1.864   2.660  20.935  0.00  0.00    +0.000 S 
ATOM     19  C   UNL     1       1.921   4.315  21.361  0.00  0.00    +0.000 A 
ATOM     20  C   UNL     1       2.584   5.064  20.413  0.00  0.00    +0.000 A 
ATOM     21  C   UNL     1       3.064   4.271  19.310  0.00  0.00    +0.000 A 
ENDBRANCH  12  13
ENDBRANCH   1  12
TORSDOF 4
ENDMDL
MODEL 3
REMARK VINA RESULT:      -7.0      2.863      6.493
REMARK  Name = 
REMARK  4 active torsions:
REMARK  status: ('A' for Active; 'I' for Inactive)
REMARK    1  A    between atoms: C_2  and  C_3
REMARK    2  A    between atoms: C_3  and  S_4
REMARK    3  A    between atoms: S_4  and  C_5
REMARK    4  A    between atoms: N_14  and  C_15
REMARK                            x       y       z     vdW  Elec       q    Type
REMARK                         _______ _______ _______ _____ _____    ______ ____
ROOT
ATOM      1  C   UNL     1       3.064   3.776  20.350  0.00  0.00    +0.000 C 
ENDROOT
BRANCH   1   3
ATOM      2  O   UNL     1       1.466   4.677  18.833  0.00  0.00    +0.000 OA
ATOM      3  C   UNL     1       2.341   4.927  19.662  0.00  0.00    +0.000 C 
ATOM      4  N   UNL     1       2.818   6.194  19.956  0.00  0.00    +0.000 N 
ATOM      5  H   UNL     1       3.649   6.239  20.537  0.00  0.00    +0.000 HD
BRANCH   4   6
ATOM      6  C   UNL     1       2.279   7.423  19.520  0.00  0.00    +0.000 A 
ATOM      7  C   UNL     1       2.453   7.918  18.226  0.00  0.00    +0.000 A 
ATOM      8  C   UNL     1       1.872   9.130  17.840  0.00  0.00    +0.000 A 
ATOM      9  C   UNL     1       1.117   9.864  18.750  0.00  0.00    +0.000 A 
ATOM     10  C   UNL     1       0.936   9.381  20.044  0.00  0.00    +0.000 A 
ATOM     11  C   UNL     1       1.504   8.161  20.424  0.00  0.00    +0.000 A 
ENDBRANCH   4   6
ENDBRANCH   1   3
BRANCH   1  12
ATOM     12  S   UNL     1       4.081   2.794  19.203  0.00  0.00    +0.000 S 
BRANCH  12  13
ATOM     13  C   UNL     1       5.267   4.020  18.725  0.00  0.00    +0.000 A 
ATOM     14  N   UNL     1       5.916   4.729  19.670  0.00  0.00    +0.000 NA
ATOM     15  C   UNL     1       6.845   5.610  19.265  0.00  0.00    +0.000 A 
ATOM     16  N   UNL     1       7.221   5.877  18.011  0.00  0.00    +0.000 NA
ATOM     17  C   UNL     1       6.550   5.147  17.107  0.00  0.00    +0.000 A 
ATOM     18  S   UNL     1       6.879   5.314  15.439  0.00  0.00    +0.000 S 
ATOM     19  C   UNL     1       5.698   4.149  15.025  0.00  0.00    +0.000 A 
ATOM     20  C   UNL     1       5.067   3.642  16.140  0.00  0.00    +0.000 A 
ATOM     21  C   UNL     1       5.561   4.210  17.369  0.00  0.00    +0.000 A 
ENDBRANCH  12  13
ENDBRANCH   1  12
TORSDOF 4
ENDMDL
MODEL 4
REMARK VINA RESULT:      -7.0      1.488      2.429
REMARK  Name = 
REMARK  4 active torsions:
REMARK  status: ('A' for Active; 'I' for Inactive)
REMARK    1  A    between atoms: C_2  and  C_3
REMARK    2  A    between atoms: C_3  and  S_4
REMARK    3  A    between atoms: S_4  and  C_5
REMARK    4  A    between atoms: N_14  and  C_15
REMARK                            x       y       z     vdW  Elec       q    Type
REMARK                         _______ _______ _______ _____ _____    ______ ____
ROOT
ATOM      1  C   UNL     1       6.102   6.010  17.892  0.00  0.00    +0.000 C 
ENDROOT
BRANCH   1   3
ATOM      2  O   UNL     1       7.748   4.660  16.826  0.00  0.00    +0.000 OA
ATOM      3  C   UNL     1       6.711   5.308  16.684  0.00  0.00    +0.000 C 
ATOM      4  N   UNL     1       6.086   5.554  15.472  0.00  0.00    +0.000 N 
ATOM      5  H   UNL     1       5.334   6.234  15.483  0.00  0.00    +0.000 HD
BRANCH   4   6
ATOM      6  C   UNL     1       6.398   4.968  14.227  0.00  0.00    +0.000 A 
ATOM      7  C   UNL     1       7.489   5.360  13.449  0.00  0.00    +0.000 A 
ATOM      8  C   UNL     1       7.766   4.725  12.234  0.00  0.00    +0.000 A 
ATOM      9  C   UNL     1       6.947   3.695  11.781  0.00  0.00    +0.000 A 
ATOM     10  C   UNL     1       5.855   3.294  12.548  0.00  0.00    +0.000 A 
ATOM     11  C   UNL     1       5.588   3.920  13.771  0.00  0.00    +0.000 A 
ENDBRANCH   4   6
ENDBRANCH   1   3
BRANCH   1  12
ATOM     12  S   UNL     1       4.298   6.217  17.754  0.00  0.00    +0.000 S 
BRANCH  12  13
ATOM     13  C   UNL     1       3.777   4.559  18.100  0.00  0.00    +0.000 A 
ATOM     14  N   UNL     1       4.057   3.572  17.225  0.00  0.00    +0.000 NA
ATOM     15  C   UNL     1       3.691   2.323  17.552  0.00  0.00    +0.000 A 
ATOM     16  N   UNL     1       3.072   1.922  18.666  0.00  0.00    +0.000 NA
ATOM     17  C   UNL     1       2.816   2.936  19.505  0.00  0.00    +0.000 A 
ATOM     18  S   UNL     1       2.042   2.651  21.001  0.00  0.00    +0.000 S 
ATOM     19  C   UNL     1       2.083   4.310  21.411  0.00  0.00    +0.000 A 
ATOM     20  C   UNL     1       2.679   5.065  20.424  0.00  0.00    +0.000 A 
ATOM     21  C   UNL     1       3.122   4.274  19.305  0.00  0.00    +0.000 A 
ENDBRANCH  12  13
ENDBRANCH   1  12
TORSDOF 4
ENDMDL
MODEL 5
REMARK VINA RESULT:      -7.0      2.868      6.515
REMARK  Name = 
REMARK  4 active torsions:
REMARK  status: ('A' for Active; 'I' for Inactive)
REMARK    1  A    between atoms: C_2  and  C_3
REMARK    2  A    between atoms: C_3  and  S_4
REMARK    3  A    between atoms: S_4  and  C_5
REMARK    4  A    between atoms: N_14  and  C_15
REMARK                            x       y       z     vdW  Elec       q    Type
REMARK                         _______ _______ _______ _____ _____    ______ ____
ROOT
ATOM      1  C   UNL     1       3.209   3.766  20.203  0.00  0.00    +0.000 C 
ENDROOT
BRANCH   1   3
ATOM      2  O   UNL     1       1.479   4.662  18.835  0.00  0.00    +0.000 OA
ATOM      3  C   UNL     1       2.405   4.914  19.607  0.00  0.00    +0.000 C 
ATOM      4  N   UNL     1       2.864   6.186  19.908  0.00  0.00    +0.000 N 
ATOM      5  H   UNL     1       3.732   6.240  20.430  0.00  0.00    +0.000 HD
BRANCH   4   6
ATOM      6  C   UNL     1       2.258   7.410  19.553  0.00  0.00    +0.000 A 
ATOM      7  C   UNL     1       1.491   8.169  20.439  0.00  0.00    +0.000 A 
ATOM      8  C   UNL     1       0.936   9.389  20.040  0.00  0.00    +0.000 A 
ATOM      9  C   UNL     1       1.137   9.858  18.744  0.00  0.00    +0.000 A 
ATOM     10  C   UNL     1       1.900   9.110  17.851  0.00  0.00    +0.000 A 
ATOM     11  C   UNL     1       2.468   7.897  18.256  0.00  0.00    +0.000 A 
ENDBRANCH   4   6
ENDBRANCH   1   3
BRANCH   1  12
ATOM     12  S   UNL     1       4.122   2.816  18.947  0.00  0.00    +0.000 S 
BRANCH  12  13
ATOM     13  C   UNL     1       5.339   4.017  18.485  0.00  0.00    +0.000 A 
ATOM     14  N   UNL     1       5.942   4.760  19.435  0.00  0.00    +0.000 NA
ATOM     15  C   UNL     1       6.896   5.620  19.045  0.00  0.00    +0.000 A 
ATOM     16  N   UNL     1       7.340   5.835  17.803  0.00  0.00    +0.000 NA
ATOM     17  C   UNL     1       6.713   5.073  16.895  0.00  0.00    +0.000 A 
ATOM     18  S   UNL     1       7.131   5.173  15.241  0.00  0.00    +0.000 S 
ATOM     19  C   UNL     1       5.966   3.998  14.810  0.00  0.00    +0.000 A 
ATOM     20  C   UNL     1       5.274   3.538  15.910  0.00  0.00    +0.000 A 
ATOM     21  C   UNL     1       5.706   4.152  17.140  0.00  0.00    +0.000 A 
ENDBRANCH  12  13
ENDBRANCH   1  12
TORSDOF 4
ENDMDL
MODEL 6
REMARK VINA RESULT:      -6.9      1.479      1.943
REMARK  Name = 
REMARK  4 active torsions:
REMARK  status: ('A' for Active; 'I' for Inactive)
REMARK    1  A    between atoms: C_2  and  C_3
REMARK    2  A    between atoms: C_3  and  S_4
REMARK    3  A    between atoms: S_4  and  C_5
REMARK    4  A    between atoms: N_14  and  C_15
REMARK                            x       y       z     vdW  Elec       q    Type
REMARK                         _______ _______ _______ _____ _____    ______ ____
ROOT
ATOM      1  C   UNL     1       7.070   6.011  18.020  0.00  0.00    +0.000 C 
ENDROOT
BRANCH   1   3
ATOM      2  O   UNL     1       8.063   4.205  16.828  0.00  0.00    +0.000 OA
ATOM      3  C   UNL     1       7.289   5.161  16.775  0.00  0.00    +0.000 C 
ATOM      4  N   UNL     1       6.661   5.612  15.625  0.00  0.00    +0.000 N 
ATOM      5  H   UNL     1       6.180   6.503  15.694  0.00  0.00    +0.000 HD
BRANCH   4   6
ATOM      6  C   UNL     1       6.636   4.971  14.369  0.00  0.00    +0.000 A 
ATOM      7  C   UNL     1       7.602   5.182  13.383  0.00  0.00    +0.000 A 
ATOM      8  C   UNL     1       7.542   4.497  12.164  0.00  0.00    +0.000 A 
ATOM      9  C   UNL     1       6.507   3.600  11.918  0.00  0.00    +0.000 A 
ATOM     10  C   UNL     1       5.536   3.381  12.893  0.00  0.00    +0.000 A 
ATOM     11  C   UNL     1       5.607   4.054  14.117  0.00  0.00    +0.000 A 
ENDBRANCH   4   6
ENDBRANCH   1   3
BRANCH   1  12
ATOM     12  S   UNL     1       6.260   5.093  19.368  0.00  0.00    +0.000 S 
BRANCH  12  13
ATOM     13  C   UNL     1       4.566   5.273  18.882  0.00  0.00    +0.000 A 
ATOM     14  N   UNL     1       4.193   6.327  18.130  0.00  0.00    +0.000 NA
ATOM     15  C   UNL     1       2.911   6.395  17.740  0.00  0.00    +0.000 A 
ATOM     16  N   UNL     1       1.932   5.525  18.005  0.00  0.00    +0.000 NA
ATOM     17  C   UNL     1       2.351   4.494  18.753  0.00  0.00    +0.000 A 
ATOM     18  S   UNL     1       1.268   3.251  19.202  0.00  0.00    +0.000 S 
ATOM     19  C   UNL     1       2.484   2.418  20.069  0.00  0.00    +0.000 A 
ATOM     20  C   UNL     1       3.692   3.077  20.013  0.00  0.00    +0.000 A 
ATOM     21  C   UNL     1       3.634   4.290  19.239  0.00  0.00    +0.000 A 
ENDBRANCH  12  13
ENDBRANCH   1  12
TORSDOF 4
ENDMDL
MODEL 7
REMARK VINA RESULT:      -6.9      1.776      2.635
REMARK  Name = 
REMARK  4 active torsions:
REMARK  status: ('A' for Active; 'I' for Inactive)
REMARK    1  A    between atoms: C_2  and  C_3
REMARK    2  A    between atoms: C_3  and  S_4
REMARK    3  A    between atoms: S_4  and  C_5
REMARK    4  A    between atoms: N_14  and  C_15
REMARK                            x       y       z     vdW  Elec       q    Type
REMARK                         _______ _______ _______ _____ _____    ______ ____
ROOT
ATOM      1  C   UNL     1       5.740   6.358  17.759  0.00  0.00    +0.000 C 
ENDROOT
BRANCH   1   3
ATOM      2  O   UNL     1       5.042   6.944  15.560  0.00  0.00    +0.000 OA
ATOM      3  C   UNL     1       5.722   6.181  16.246  0.00  0.00    +0.000 C 
ATOM      4  N   UNL     1       6.407   5.077  15.765  0.00  0.00    +0.000 N 
ATOM      5  H   UNL     1       6.791   4.446  16.460  0.00  0.00    +0.000 HD
BRANCH   4   6
ATOM      6  C   UNL     1       6.611   4.733  14.411  0.00  0.00    +0.000 A 
ATOM      7  C   UNL     1       7.597   5.318  13.615  0.00  0.00    +0.000 A 
ATOM      8  C   UNL     1       7.773   4.919  12.286  0.00  0.00    +0.000 A 
ATOM      9  C   UNL     1       6.955   3.934  11.738  0.00  0.00    +0.000 A 
ATOM     10  C   UNL     1       5.967   3.343  12.522  0.00  0.00    +0.000 A 
ATOM     11  C   UNL     1       5.803   3.732  13.856  0.00  0.00    +0.000 A 
ENDBRANCH   4   6
ENDBRANCH   1   3
BRANCH   1  12
ATOM     12  S   UNL     1       5.929   4.783  18.652  0.00  0.00    +0.000 S 
BRANCH  12  13
ATOM     13  C   UNL     1       4.354   4.049  18.307  0.00  0.00    +0.000 A 
ATOM     14  N   UNL     1       4.196   3.289  17.205  0.00  0.00    +0.000 NA
ATOM     15  C   UNL     1       3.001   2.709  17.010  0.00  0.00    +0.000 A 
ATOM     16  N   UNL     1       1.921   2.788  17.793  0.00  0.00    +0.000 NA
ATOM     17  C   UNL     1       2.127   3.552  18.876  0.00  0.00    +0.000 A 
ATOM     18  S   UNL     1       0.883   3.781  20.026  0.00  0.00    +0.000 S 
ATOM     19  C   UNL     1       1.871   4.792  20.987  0.00  0.00    +0.000 A 
ATOM     20  C   UNL     1       3.127   4.948  20.440  0.00  0.00    +0.000 A 
ATOM     21  C   UNL     1       3.295   4.221  19.208  0.00  0.00    +0.000 A 
ENDBRANCH  12  13
ENDBRANCH   1  12
TORSDOF 4
ENDMDL
MODEL 8
REMARK VINA RESULT:      -6.8      1.531      1.738
REMARK  Name = 
REMARK  4 active torsions:
REMARK  status: ('A' for Active; 'I' for Inactive)
REMARK    1  A    between atoms: C_2  and  C_3
REMARK    2  A    between atoms: C_3  and  S_4
REMARK    3  A    between atoms: S_4  and  C_5
REMARK    4  A    between atoms: N_14  and  C_15
REMARK                            x       y       z     vdW  Elec       q    Type
REMARK                         _______ _______ _______ _____ _____    ______ ____
ROOT
ATOM      1  C   UNL     1       6.542   6.057  17.727  0.00  0.00    +0.000 C 
ENDROOT
BRANCH   1   3
ATOM      2  O   UNL     1       7.835   4.381  16.637  0.00  0.00    +0.000 OA
ATOM      3  C   UNL     1       6.925   5.203  16.525  0.00  0.00    +0.000 C 
ATOM      4  N   UNL     1       6.270   5.508  15.343  0.00  0.00    +0.000 N 
ATOM      5  H   UNL     1       5.656   6.315  15.362  0.00  0.00    +0.000 HD
BRANCH   4   6
ATOM      6  C   UNL     1       6.380   4.822  14.115  0.00  0.00    +0.000 A 
ATOM      7  C   UNL     1       5.447   3.878  13.680  0.00  0.00    +0.000 A 
ATOM      8  C   UNL     1       5.591   3.247  12.440  0.00  0.00    +0.000 A 
ATOM      9  C   UNL     1       6.679   3.550  11.626  0.00  0.00    +0.000 A 
ATOM     10  C   UNL     1       7.617   4.489  12.048  0.00  0.00    +0.000 A 
ATOM     11  C   UNL     1       7.462   5.131  13.281  0.00  0.00    +0.000 A 
ENDBRANCH   4   6
ENDBRANCH   1   3
BRANCH   1  12
ATOM     12  S   UNL     1       4.741   6.216  17.936  0.00  0.00    +0.000 S 
BRANCH  12  13
ATOM     13  C   UNL     1       4.376   4.628  18.630  0.00  0.00    +0.000 A 
ATOM     14  N   UNL     1       5.322   3.966  19.326  0.00  0.00    +0.000 NA
ATOM     15  C   UNL     1       4.986   2.790  19.878  0.00  0.00    +0.000 A 
ATOM     16  N   UNL     1       3.799   2.178  19.830  0.00  0.00    +0.000 NA
ATOM     17  C   UNL     1       2.891   2.873  19.129  0.00  0.00    +0.000 A 
ATOM     18  S   UNL     1       1.297   2.284  18.949  0.00  0.00    +0.000 S 
ATOM     19  C   UNL     1       0.838   3.633  18.005  0.00  0.00    +0.000 A 
ATOM     20  C   UNL     1       1.881   4.517  17.835  0.00  0.00    +0.000 A 
ATOM     21  C   UNL     1       3.089   4.090  18.495  0.00  0.00    +0.000 A 
ENDBRANCH  12  13
ENDBRANCH   1  12
TORSDOF 4
ENDMDL
MODEL 9
REMARK VINA RESULT:      -6.7      1.457      1.854
REMARK  Name = 
REMARK  4 active torsions:
REMARK  status: ('A' for Active; 'I' for Inactive)
REMARK    1  A    between atoms: C_2  and  C_3
REMARK    2  A    between atoms: C_3  and  S_4
REMARK    3  A    between atoms: S_4  and  C_5
REMARK    4  A    between atoms: N_14  and  C_15
REMARK                            x       y       z     vdW  Elec       q    Type
REMARK                         _______ _______ _______ _____ _____    ______ ____
ROOT
ATOM      1  C   UNL     1       6.825   6.467  17.975  0.00  0.00    +0.000 C 
ENDROOT
BRANCH   1   3
ATOM      2  O   UNL     1       5.520   6.870  16.024  0.00  0.00    +0.000 OA
ATOM      3  C   UNL     1       6.439   6.219  16.522  0.00  0.00    +0.000 C 
ATOM      4  N   UNL     1       7.103   5.176  15.897  0.00  0.00    +0.000 N 
ATOM      5  H   UNL     1       7.725   4.625  16.479  0.00  0.00    +0.000 HD
BRANCH   4   6
ATOM      6  C   UNL     1       6.992   4.794  14.543  0.00  0.00    +0.000 A 
ATOM      7  C   UNL     1       7.799   5.319  13.532  0.00  0.00    +0.000 A 
ATOM      8  C   UNL     1       7.663   4.883  12.210  0.00  0.00    +0.000 A 
ATOM      9  C   UNL     1       6.710   3.922  11.886  0.00  0.00    +0.000 A 
ATOM     10  C   UNL     1       5.899   3.390  12.885  0.00  0.00    +0.000 A 
ATOM     11  C   UNL     1       6.047   3.815  14.210  0.00  0.00    +0.000 A 
ENDBRANCH   4   6
ENDBRANCH   1   3
BRANCH   1  12
ATOM     12  S   UNL     1       6.428   5.062  19.062  0.00  0.00    +0.000 S 
BRANCH  12  13
ATOM     13  C   UNL     1       4.659   5.098  18.969  0.00  0.00    +0.000 A 
ATOM     14  N   UNL     1       4.009   6.277  19.029  0.00  0.00    +0.000 NA
ATOM     15  C   UNL     1       2.673   6.262  18.902  0.00  0.00    +0.000 A 
ATOM     16  N   UNL     1       1.885   5.199  18.713  0.00  0.00    +0.000 NA
ATOM     17  C   UNL     1       2.576   4.051  18.659  0.00  0.00    +0.000 A 
ATOM     18  S   UNL     1       1.772   2.564  18.410  0.00  0.00    +0.000 S 
ATOM     19  C   UNL     1       3.237   1.687  18.477  0.00  0.00    +0.000 A 
ATOM     20  C   UNL     1       4.319   2.515  18.683  0.00  0.00    +0.000 A 
ATOM     21  C   UNL     1       3.949   3.904  18.783  0.00  0.00    +0.000 A 
ENDBRANCH  12  13
ENDBRANCH   1  12
TORSDOF 4
ENDMDL
