MODEL 1
REMARK VINA RESULT:      -6.8      0.000      0.000
REMARK  Name = 
REMARK  21 active torsions:
REMARK  status: ('A' for Active; 'I' for Inactive)
REMARK    1  A    between atoms: C_1  and  C_2
REMARK    2  A    between atoms: C_2  and  C_3
REMARK    3  A    between atoms: C_3  and  C_4
REMARK    4  A    between atoms: C_4  and  C_5
REMARK    5  A    between atoms: C_5  and  C_6
REMARK    6  A    between atoms: C_7  and  C_8
REMARK    7  A    between atoms: C_8  and  C_9
REMARK    8  A    between atoms: C_10  and  C_11
REMARK    9  A    between atoms: C_11  and  C_12
REMARK   10  A    between atoms: C_12  and  C_13
REMARK   11  A    between atoms: C_13  and  C_14
REMARK   12  A    between atoms: C_14  and  C_15
REMARK   13  A    between atoms: C_15  and  C_16
REMARK   14  A    between atoms: C_16  and  C_17
REMARK   15  A    between atoms: C_17  and  C_18
REMARK   16  A    between atoms: C_18  and  N_20
REMARK   17  A    between atoms: N_20  and  C_21
REMARK   18  A    between atoms: C_21  and  C_22
REMARK   19  A    between atoms: C_21  and  C_23
REMARK   20  A    between atoms: C_25  and  C_26
REMARK   21  A    between atoms: C_28  and  C_29
REMARK                            x       y       z     vdW  Elec       q    Type
REMARK                         _______ _______ _______ _____ _____    ______ ____
ROOT
ATOM      1  C   UNL     1       1.166   8.870  18.873  0.00  0.00    +0.000 C 
ENDROOT
BRANCH   1   2
ATOM      2  C   UNL     1       1.276   9.216  20.355  0.00  0.00    +0.000 C 
BRANCH   2   3
ATOM      3  C   UNL     1      -0.045   9.753  20.932  0.00  0.00    +0.000 C 
ATOM      4  S   UNL     1      -0.318   9.941  22.575  0.00  0.00    +0.000 S 
BRANCH   3   5
ATOM      5  N   UNL     1      -0.996   9.995  19.942  0.00  0.00    +0.000 N 
ATOM      6  H   UNL     1      -1.632   9.255  19.741  0.00  0.00    +0.000 HD
BRANCH   5   7
ATOM      7  C   UNL     1      -1.280  11.317  19.332  0.00  0.00    +0.000 C 
ATOM      8  C   UNL     1      -1.597  12.379  20.394  0.00  0.00    +0.000 C 
BRANCH   7   9
ATOM      9  C   UNL     1      -2.375  11.206  18.261  0.00  0.00    +0.000 A 
ATOM     10  C   UNL     1      -2.132  10.643  17.010  0.00  0.00    +0.000 A 
ATOM     11  C   UNL     1      -3.119  10.591  16.012  0.00  0.00    +0.000 A 
ATOM     12  C   UNL     1      -2.821  10.017  14.660  0.00  0.00    +0.000 C 
ATOM     13  C   UNL     1      -4.396  11.105  16.287  0.00  0.00    +0.000 A 
ATOM     14  C   UNL     1      -4.685  11.654  17.534  0.00  0.00    +0.000 A 
ATOM     15  C   UNL     1      -6.042  12.229  17.829  0.00  0.00    +0.000 C 
ATOM     16  C   UNL     1      -3.677  11.696  18.522  0.00  0.00    +0.000 A 
ENDBRANCH   7   9
ENDBRANCH   5   7
ENDBRANCH   3   5
ENDBRANCH   2   3
ENDBRANCH   1   2
BRANCH   1  17
ATOM     17  C   UNL     1       2.415   8.300  18.225  0.00  0.00    +0.000 C 
BRANCH  17  18
ATOM     18  C   UNL     1       2.283   6.786  18.307  0.00  0.00    +0.000 C 
BRANCH  18  19
ATOM     19  C   UNL     1       2.919   6.215  19.558  0.00  0.00    +0.000 C 
BRANCH  19  20
ATOM     20  C   UNL     1       1.857   5.573  20.446  0.00  0.00    +0.000 C 
BRANCH  20  21
ATOM     21  C   UNL     1       2.188   4.107  20.657  0.00  0.00    +0.000 C 
BRANCH  21  23
ATOM     22  C   UNL     1       0.936   2.714  19.029  0.00  0.00    +0.000 C 
ATOM     23  C   UNL     1       1.080   3.177  20.282  0.00  0.00    +0.000 C 
BRANCH  22  24
ATOM     24  C   UNL     1       1.874   3.115  17.928  0.00  0.00    +0.000 C 
BRANCH  24  26
ATOM     25  C   UNL     1       4.327   3.098  17.493  0.00  0.00    +0.000 C 
ATOM     26  C   UNL     1       3.240   2.526  18.052  0.00  0.00    +0.000 C 
BRANCH  25  27
ATOM     27  C   UNL     1       4.258   4.360  16.674  0.00  0.00    +0.000 C 
BRANCH  27  28
ATOM     28  C   UNL     1       5.631   4.958  16.396  0.00  0.00    +0.000 C 
BRANCH  28  29
ATOM     29  C   UNL     1       5.760   6.330  17.059  0.00  0.00    +0.000 C 
BRANCH  29  31
ATOM     30  C   UNL     1       7.418   5.746  18.853  0.00  0.00    +0.000 C 
ATOM     31  C   UNL     1       7.174   6.552  17.588  0.00  0.00    +0.000 C 
ENDBRANCH  29  31
ENDBRANCH  28  29
ENDBRANCH  27  28
ENDBRANCH  25  27
ENDBRANCH  24  26
ENDBRANCH  22  24
ENDBRANCH  21  23
ENDBRANCH  20  21
ENDBRANCH  19  20
ENDBRANCH  18  19
ENDBRANCH  17  18
ENDBRANCH   1  17
TORSDOF 17
ENDMDL
MODEL 2
REMARK VINA RESULT:      -6.5      1.819      2.892
REMARK  Name = 
REMARK  21 active torsions:
REMARK  status: ('A' for Active; 'I' for Inactive)
REMARK    1  A    between atoms: C_1  and  C_2
REMARK    2  A    between atoms: C_2  and  C_3
REMARK    3  A    between atoms: C_3  and  C_4
REMARK    4  A    between atoms: C_4  and  C_5
REMARK    5  A    between atoms: C_5  and  C_6
REMARK    6  A    between atoms: C_7  and  C_8
REMARK    7  A    between atoms: C_8  and  C_9
REMARK    8  A    between atoms: C_10  and  C_11
REMARK    9  A    between atoms: C_11  and  C_12
REMARK   10  A    between atoms: C_12  and  C_13
REMARK   11  A    between atoms: C_13  and  C_14
REMARK   12  A    between atoms: C_14  and  C_15
REMARK   13  A    between atoms: C_15  and  C_16
REMARK   14  A    between atoms: C_16  and  C_17
REMARK   15  A    between atoms: C_17  and  C_18
REMARK   16  A    between atoms: C_18  and  N_20
REMARK   17  A    between atoms: N_20  and  C_21
REMARK   18  A    between atoms: C_21  and  C_22
REMARK   19  A    between atoms: C_21  and  C_23
REMARK   20  A    between atoms: C_25  and  C_26
REMARK   21  A    between atoms: C_28  and  C_29
REMARK                            x       y       z     vdW  Elec       q    Type
REMARK                         _______ _______ _______ _____ _____    ______ ____
ROOT
ATOM      1  C   UNL     1       1.916   9.095  18.282  0.00  0.00    +0.000 C 
ENDROOT
BRANCH   1   2
ATOM      2  C   UNL     1       0.778   9.784  19.029  0.00  0.00    +0.000 C 
BRANCH   2   3
ATOM      3  C   UNL     1       0.617  11.259  18.622  0.00  0.00    +0.000 C 
ATOM      4  S   UNL     1       1.740  12.442  19.005  0.00  0.00    +0.000 S 
BRANCH   3   5
ATOM      5  N   UNL     1      -0.589  11.499  17.966  0.00  0.00    +0.000 N 
ATOM      6  H   UNL     1      -0.592  12.227  17.286  0.00  0.00    +0.000 HD
BRANCH   5   7
ATOM      7  C   UNL     1      -1.788  10.630  18.032  0.00  0.00    +0.000 C 
ATOM      8  C   UNL     1      -2.099   9.984  16.675  0.00  0.00    +0.000 C 
BRANCH   7   9
ATOM      9  C   UNL     1      -2.989  11.389  18.614  0.00  0.00    +0.000 A 
ATOM     10  C   UNL     1      -2.860  12.259  19.695  0.00  0.00    +0.000 A 
ATOM     11  C   UNL     1      -3.967  12.912  20.263  0.00  0.00    +0.000 A 
ATOM     12  C   UNL     1      -3.808  13.811  21.451  0.00  0.00    +0.000 C 
ATOM     13  C   UNL     1      -5.241  12.698  19.713  0.00  0.00    +0.000 A 
ATOM     14  C   UNL     1      -5.407  11.854  18.617  0.00  0.00    +0.000 A 
ATOM     15  C   UNL     1      -6.771  11.599  18.039  0.00  0.00    +0.000 C 
ATOM     16  C   UNL     1      -4.280  11.208  18.065  0.00  0.00    +0.000 A 
ENDBRANCH   7   9
ENDBRANCH   5   7
ENDBRANCH   3   5
ENDBRANCH   2   3
ENDBRANCH   1   2
BRANCH   1  17
ATOM     17  C   UNL     1       1.831   7.582  18.184  0.00  0.00    +0.000 C 
BRANCH  17  18
ATOM     18  C   UNL     1       3.214   7.056  18.542  0.00  0.00    +0.000 C 
BRANCH  18  19
ATOM     19  C   UNL     1       3.168   6.000  19.628  0.00  0.00    +0.000 C 
BRANCH  19  20
ATOM     20  C   UNL     1       1.852   6.089  20.396  0.00  0.00    +0.000 C 
BRANCH  20  21
ATOM     21  C   UNL     1       1.137   4.752  20.339  0.00  0.00    +0.000 C 
BRANCH  21  23
ATOM     22  C   UNL     1       2.145   2.517  20.720  0.00  0.00    +0.000 C 
ATOM     23  C   UNL     1       1.748   3.703  21.210  0.00  0.00    +0.000 C 
BRANCH  22  24
ATOM     24  C   UNL     1       1.986   2.170  19.269  0.00  0.00    +0.000 C 
BRANCH  24  26
ATOM     25  C   UNL     1       3.877   2.312  17.652  0.00  0.00    +0.000 C 
ATOM     26  C   UNL     1       3.230   1.645  18.632  0.00  0.00    +0.000 C 
BRANCH  25  27
ATOM     27  C   UNL     1       3.389   3.624  17.095  0.00  0.00    +0.000 C 
BRANCH  27  28
ATOM     28  C   UNL     1       4.515   4.481  16.532  0.00  0.00    +0.000 C 
BRANCH  28  29
ATOM     29  C   UNL     1       5.646   3.597  16.005  0.00  0.00    +0.000 C 
BRANCH  29  31
ATOM     30  C   UNL     1       6.015   3.844  13.532  0.00  0.00    +0.000 C 
ATOM     31  C   UNL     1       6.438   4.313  14.914  0.00  0.00    +0.000 C 
ENDBRANCH  29  31
ENDBRANCH  28  29
ENDBRANCH  27  28
ENDBRANCH  25  27
ENDBRANCH  24  26
ENDBRANCH  22  24
ENDBRANCH  21  23
ENDBRANCH  20  21
ENDBRANCH  19  20
ENDBRANCH  18  19
ENDBRANCH  17  18
ENDBRANCH   1  17
TORSDOF 17
ENDMDL
MODEL 3
REMARK VINA RESULT:      -6.4      1.247      3.736
REMARK  Name = 
REMARK  21 active torsions:
REMARK  status: ('A' for Active; 'I' for Inactive)
REMARK    1  A    between atoms: C_1  and  C_2
REMARK    2  A    between atoms: C_2  and  C_3
REMARK    3  A    between atoms: C_3  and  C_4
REMARK    4  A    between atoms: C_4  and  C_5
REMARK    5  A    between atoms: C_5  and  C_6
REMARK    6  A    between atoms: C_7  and  C_8
REMARK    7  A    between atoms: C_8  and  C_9
REMARK    8  A    between atoms: C_10  and  C_11
REMARK    9  A    between atoms: C_11  and  C_12
REMARK   10  A    between atoms: C_12  and  C_13
REMARK   11  A    between atoms: C_13  and  C_14
REMARK   12  A    between atoms: C_14  and  C_15
REMARK   13  A    between atoms: C_15  and  C_16
REMARK   14  A    between atoms: C_16  and  C_17
REMARK   15  A    between atoms: C_17  and  C_18
REMARK   16  A    between atoms: C_18  and  N_20
REMARK   17  A    between atoms: N_20  and  C_21
REMARK   18  A    between atoms: C_21  and  C_22
REMARK   19  A    between atoms: C_21  and  C_23
REMARK   20  A    between atoms: C_25  and  C_26
REMARK   21  A    between atoms: C_28  and  C_29
REMARK                            x       y       z     vdW  Elec       q    Type
REMARK                         _______ _______ _______ _____ _____    ______ ____
ROOT
ATOM      1  C   UNL     1       1.583   7.989  20.418  0.00  0.00    +0.000 C 
ENDROOT
BRANCH   1   2
ATOM      2  C   UNL     1       0.223   8.160  21.088  0.00  0.00    +0.000 C 
BRANCH   2   3
ATOM      3  C   UNL     1       0.013   9.582  21.635  0.00  0.00    +0.000 C 
ATOM      4  S   UNL     1      -0.471   9.895  23.209  0.00  0.00    +0.000 S 
BRANCH   3   5
ATOM      5  N   UNL     1       0.205  10.559  20.660  0.00  0.00    +0.000 N 
ATOM      6  H   UNL     1       0.496  11.458  20.978  0.00  0.00    +0.000 HD
BRANCH   5   7
ATOM      7  C   UNL     1       0.231  10.317  19.198  0.00  0.00    +0.000 C 
ATOM      8  C   UNL     1       1.395  11.051  18.518  0.00  0.00    +0.000 C 
BRANCH   7   9
ATOM      9  C   UNL     1      -1.127  10.644  18.560  0.00  0.00    +0.000 A 
ATOM     10  C   UNL     1      -2.075  11.436  19.204  0.00  0.00    +0.000 A 
ATOM     11  C   UNL     1      -3.338  11.690  18.645  0.00  0.00    +0.000 A 
ATOM     12  C   UNL     1      -4.356  12.512  19.377  0.00  0.00    +0.000 C 
ATOM     13  C   UNL     1      -3.650  11.147  17.388  0.00  0.00    +0.000 A 
ATOM     14  C   UNL     1      -2.720  10.370  16.702  0.00  0.00    +0.000 A 
ATOM     15  C   UNL     1      -3.055   9.764  15.368  0.00  0.00    +0.000 C 
ATOM     16  C   UNL     1      -1.457  10.127  17.285  0.00  0.00    +0.000 A 
ENDBRANCH   7   9
ENDBRANCH   5   7
ENDBRANCH   3   5
ENDBRANCH   2   3
ENDBRANCH   1   2
BRANCH   1  17
ATOM     17  C   UNL     1       2.013   6.561  20.132  0.00  0.00    +0.000 C 
BRANCH  17  18
ATOM     18  C   UNL     1       3.302   6.659  19.328  0.00  0.00    +0.000 C 
BRANCH  18  19
ATOM     19  C   UNL     1       3.094   7.315  17.978  0.00  0.00    +0.000 C 
BRANCH  19  20
ATOM     20  C   UNL     1       4.277   7.021  17.059  0.00  0.00    +0.000 C 
BRANCH  20  21
ATOM     21  C   UNL     1       4.373   5.527  16.815  0.00  0.00    +0.000 C 
BRANCH  21  23
ATOM     22  C   UNL     1       5.873   4.148  18.231  0.00  0.00    +0.000 C 
ATOM     23  C   UNL     1       5.704   4.943  17.162  0.00  0.00    +0.000 C 
BRANCH  22  24
ATOM     24  C   UNL     1       4.735   3.810  19.150  0.00  0.00    +0.000 C 
BRANCH  24  26
ATOM     25  C   UNL     1       3.677   1.617  18.622  0.00  0.00    +0.000 C 
ATOM     26  C   UNL     1       4.542   2.345  19.360  0.00  0.00    +0.000 C 
BRANCH  25  27
ATOM     27  C   UNL     1       2.812   2.219  17.546  0.00  0.00    +0.000 C 
BRANCH  27  28
ATOM     28  C   UNL     1       1.734   3.140  18.102  0.00  0.00    +0.000 C 
BRANCH  28  29
ATOM     29  C   UNL     1       0.983   2.454  19.244  0.00  0.00    +0.000 C 
BRANCH  29  31
ATOM     30  C   UNL     1       1.854   3.037  21.527  0.00  0.00    +0.000 C 
ATOM     31  C   UNL     1       0.845   3.385  20.445  0.00  0.00    +0.000 C 
ENDBRANCH  29  31
ENDBRANCH  28  29
ENDBRANCH  27  28
ENDBRANCH  25  27
ENDBRANCH  24  26
ENDBRANCH  22  24
ENDBRANCH  21  23
ENDBRANCH  20  21
ENDBRANCH  19  20
ENDBRANCH  18  19
ENDBRANCH  17  18
ENDBRANCH   1  17
TORSDOF 17
ENDMDL
MODEL 4
REMARK VINA RESULT:      -6.4      2.774      9.505
REMARK  Name = 
REMARK  21 active torsions:
REMARK  status: ('A' for Active; 'I' for Inactive)
REMARK    1  A    between atoms: C_1  and  C_2
REMARK    2  A    between atoms: C_2  and  C_3
REMARK    3  A    between atoms: C_3  and  C_4
REMARK    4  A    between atoms: C_4  and  C_5
REMARK    5  A    between atoms: C_5  and  C_6
REMARK    6  A    between atoms: C_7  and  C_8
REMARK    7  A    between atoms: C_8  and  C_9
REMARK    8  A    between atoms: C_10  and  C_11
REMARK    9  A    between atoms: C_11  and  C_12
REMARK   10  A    between atoms: C_12  and  C_13
REMARK   11  A    between atoms: C_13  and  C_14
REMARK   12  A    between atoms: C_14  and  C_15
REMARK   13  A    between atoms: C_15  and  C_16
REMARK   14  A    between atoms: C_16  and  C_17
REMARK   15  A    between atoms: C_17  and  C_18
REMARK   16  A    between atoms: C_18  and  N_20
REMARK   17  A    between atoms: N_20  and  C_21
REMARK   18  A    between atoms: C_21  and  C_22
REMARK   19  A    between atoms: C_21  and  C_23
REMARK   20  A    between atoms: C_25  and  C_26
REMARK   21  A    between atoms: C_28  and  C_29
REMARK                            x       y       z     vdW  Elec       q    Type
REMARK                         _______ _______ _______ _____ _____    ______ ____
ROOT
ATOM      1  C   UNL     1       2.763   6.122  19.873  0.00  0.00    +0.000 C 
ENDROOT
BRANCH   1   2
ATOM      2  C   UNL     1       1.729   5.001  19.838  0.00  0.00    +0.000 C 
BRANCH   2   3
ATOM      3  C   UNL     1       2.280   3.676  20.392  0.00  0.00    +0.000 C 
ATOM      4  S   UNL     1       1.612   2.886  21.711  0.00  0.00    +0.000 S 
BRANCH   3   5
ATOM      5  N   UNL     1       3.426   3.255  19.719  0.00  0.00    +0.000 N 
ATOM      6  H   UNL     1       4.175   2.913  20.279  0.00  0.00    +0.000 HD
BRANCH   5   7
ATOM      7  C   UNL     1       3.537   3.066  18.252  0.00  0.00    +0.000 C 
ATOM      8  C   UNL     1       3.567   1.580  17.869  0.00  0.00    +0.000 C 
BRANCH   7   9
ATOM      9  C   UNL     1       4.731   3.847  17.684  0.00  0.00    +0.000 A 
ATOM     10  C   UNL     1       4.956   3.959  16.313  0.00  0.00    +0.000 A 
ATOM     11  C   UNL     1       6.078   4.627  15.794  0.00  0.00    +0.000 A 
ATOM     12  C   UNL     1       6.319   4.698  14.317  0.00  0.00    +0.000 C 
ATOM     13  C   UNL     1       6.991   5.218  16.682  0.00  0.00    +0.000 A 
ATOM     14  C   UNL     1       6.788   5.148  18.058  0.00  0.00    +0.000 A 
ATOM     15  C   UNL     1       7.773   5.756  19.016  0.00  0.00    +0.000 C 
ATOM     16  C   UNL     1       5.653   4.470  18.556  0.00  0.00    +0.000 A 
ENDBRANCH   7   9
ENDBRANCH   5   7
ENDBRANCH   3   5
ENDBRANCH   2   3
ENDBRANCH   1   2
BRANCH   1  17
ATOM     17  C   UNL     1       2.844   6.995  18.634  0.00  0.00    +0.000 C 
BRANCH  17  18
ATOM     18  C   UNL     1       2.000   8.228  18.927  0.00  0.00    +0.000 C 
BRANCH  18  19
ATOM     19  C   UNL     1       1.656   9.005  17.673  0.00  0.00    +0.000 C 
BRANCH  19  20
ATOM     20  C   UNL     1       0.550  10.016  17.965  0.00  0.00    +0.000 C 
BRANCH  20  21
ATOM     21  C   UNL     1       1.111  11.164  18.784  0.00  0.00    +0.000 C 
BRANCH  21  23
ATOM     22  C   UNL     1      -0.664  12.848  18.368  0.00  0.00    +0.000 C 
ATOM     23  C   UNL     1       0.636  12.510  18.342  0.00  0.00    +0.000 C 
BRANCH  22  24
ATOM     24  C   UNL     1      -1.719  11.886  18.830  0.00  0.00    +0.000 C 
BRANCH  24  26
ATOM     25  C   UNL     1      -2.219  12.445  21.206  0.00  0.00    +0.000 C 
ATOM     26  C   UNL     1      -2.597  12.425  19.911  0.00  0.00    +0.000 C 
BRANCH  25  27
ATOM     27  C   UNL     1      -0.897  11.902  21.682  0.00  0.00    +0.000 C 
BRANCH  27  28
ATOM     28  C   UNL     1      -0.975  11.295  23.076  0.00  0.00    +0.000 C 
BRANCH  28  29
ATOM     29  C   UNL     1      -0.925   9.768  22.998  0.00  0.00    +0.000 C 
BRANCH  29  31
ATOM     30  C   UNL     1       1.419   9.131  22.358  0.00  0.00    +0.000 C 
ATOM     31  C   UNL     1      -0.009   9.307  21.869  0.00  0.00    +0.000 C 
ENDBRANCH  29  31
ENDBRANCH  28  29
ENDBRANCH  27  28
ENDBRANCH  25  27
ENDBRANCH  24  26
ENDBRANCH  22  24
ENDBRANCH  21  23
ENDBRANCH  20  21
ENDBRANCH  19  20
ENDBRANCH  18  19
ENDBRANCH  17  18
ENDBRANCH   1  17
TORSDOF 17
ENDMDL
MODEL 5
REMARK VINA RESULT:      -6.4      5.172      8.661
REMARK  Name = 
REMARK  21 active torsions:
REMARK  status: ('A' for Active; 'I' for Inactive)
REMARK    1  A    between atoms: C_1  and  C_2
REMARK    2  A    between atoms: C_2  and  C_3
REMARK    3  A    between atoms: C_3  and  C_4
REMARK    4  A    between atoms: C_4  and  C_5
REMARK    5  A    between atoms: C_5  and  C_6
REMARK    6  A    between atoms: C_7  and  C_8
REMARK    7  A    between atoms: C_8  and  C_9
REMARK    8  A    between atoms: C_10  and  C_11
REMARK    9  A    between atoms: C_11  and  C_12
REMARK   10  A    between atoms: C_12  and  C_13
REMARK   11  A    between atoms: C_13  and  C_14
REMARK   12  A    between atoms: C_14  and  C_15
REMARK   13  A    between atoms: C_15  and  C_16
REMARK   14  A    between atoms: C_16  and  C_17
REMARK   15  A    between atoms: C_17  and  C_18
REMARK   16  A    between atoms: C_18  and  N_20
REMARK   17  A    between atoms: N_20  and  C_21
REMARK   18  A    between atoms: C_21  and  C_22
REMARK   19  A    between atoms: C_21  and  C_23
REMARK   20  A    between atoms: C_25  and  C_26
REMARK   21  A    between atoms: C_28  and  C_29
REMARK                            x       y       z     vdW  Elec       q    Type
REMARK                         _______ _______ _______ _____ _____    ______ ____
ROOT
ATOM      1  C   UNL     1       5.116   6.292  17.639  0.00  0.00    +0.000 C 
ENDROOT
BRANCH   1   2
ATOM      2  C   UNL     1       5.164   4.780  17.841  0.00  0.00    +0.000 C 
BRANCH   2   3
ATOM      3  C   UNL     1       4.498   4.342  19.156  0.00  0.00    +0.000 C 
ATOM      4  S   UNL     1       4.495   2.756  19.697  0.00  0.00    +0.000 S 
BRANCH   3   5
ATOM      5  N   UNL     1       3.849   5.395  19.799  0.00  0.00    +0.000 N 
ATOM      6  H   UNL     1       4.368   6.238  19.913  0.00  0.00    +0.000 HD
BRANCH   5   7
ATOM      7  C   UNL     1       2.402   5.442  20.120  0.00  0.00    +0.000 C 
ATOM      8  C   UNL     1       1.588   4.503  19.219  0.00  0.00    +0.000 C 
BRANCH   7   9
ATOM      9  C   UNL     1       1.878   6.885  20.096  0.00  0.00    +0.000 A 
ATOM     10  C   UNL     1       2.080   7.728  19.005  0.00  0.00    +0.000 A 
ATOM     11  C   UNL     1       1.648   9.065  19.006  0.00  0.00    +0.000 A 
ATOM     12  C   UNL     1       1.915   9.963  17.836  0.00  0.00    +0.000 C 
ATOM     13  C   UNL     1       0.974   9.564  20.131  0.00  0.00    +0.000 A 
ATOM     14  C   UNL     1       0.731   8.745  21.232  0.00  0.00    +0.000 A 
ATOM     15  C   UNL     1       0.033   9.278  22.451  0.00  0.00    +0.000 C 
ATOM     16  C   UNL     1       1.176   7.405  21.209  0.00  0.00    +0.000 A 
ENDBRANCH   7   9
ENDBRANCH   5   7
ENDBRANCH   3   5
ENDBRANCH   2   3
ENDBRANCH   1   2
BRANCH   1  17
ATOM     17  C   UNL     1       6.386   6.937  17.116  0.00  0.00    +0.000 C 
BRANCH  17  18
ATOM     18  C   UNL     1       7.490   6.556  18.092  0.00  0.00    +0.000 C 
BRANCH  18  19
ATOM     19  C   UNL     1       8.370   7.733  18.460  0.00  0.00    +0.000 C 
BRANCH  19  20
ATOM     20  C   UNL     1       7.860   9.005  17.786  0.00  0.00    +0.000 C 
BRANCH  20  21
ATOM     21  C   UNL     1       8.857  10.129  17.998  0.00  0.00    +0.000 C 
BRANCH  21  23
ATOM     22  C   UNL     1      10.343  11.006  19.781  0.00  0.00    +0.000 C 
ATOM     23  C   UNL     1       9.228  10.345  19.429  0.00  0.00    +0.000 C 
BRANCH  22  24
ATOM     24  C   UNL     1      11.292  11.555  18.755  0.00  0.00    +0.000 C 
BRANCH  24  26
ATOM     25  C   UNL     1      10.957  13.998  18.400  0.00  0.00    +0.000 C 
ATOM     26  C   UNL     1      10.754  12.725  18.000  0.00  0.00    +0.000 C 
BRANCH  25  27
ATOM     27  C   UNL     1      11.715  14.352  19.653  0.00  0.00    +0.000 C 
BRANCH  27  28
ATOM     28  C   UNL     1      10.884  15.167  20.634  0.00  0.00    +0.000 C 
BRANCH  28  29
ATOM     29  C   UNL     1       9.497  14.545  20.807  0.00  0.00    +0.000 C 
BRANCH  29  31
ATOM     30  C   UNL     1       8.191  12.858  22.133  0.00  0.00    +0.000 C 
ATOM     31  C   UNL     1       9.402  13.777  22.122  0.00  0.00    +0.000 C 
ENDBRANCH  29  31
ENDBRANCH  28  29
ENDBRANCH  27  28
ENDBRANCH  25  27
ENDBRANCH  24  26
ENDBRANCH  22  24
ENDBRANCH  21  23
ENDBRANCH  20  21
ENDBRANCH  19  20
ENDBRANCH  18  19
ENDBRANCH  17  18
ENDBRANCH   1  17
TORSDOF 17
ENDMDL
MODEL 6
REMARK VINA RESULT:      -6.4      2.269      4.029
REMARK  Name = 
REMARK  21 active torsions:
REMARK  status: ('A' for Active; 'I' for Inactive)
REMARK    1  A    between atoms: C_1  and  C_2
REMARK    2  A    between atoms: C_2  and  C_3
REMARK    3  A    between atoms: C_3  and  C_4
REMARK    4  A    between atoms: C_4  and  C_5
REMARK    5  A    between atoms: C_5  and  C_6
REMARK    6  A    between atoms: C_7  and  C_8
REMARK    7  A    between atoms: C_8  and  C_9
REMARK    8  A    between atoms: C_10  and  C_11
REMARK    9  A    between atoms: C_11  and  C_12
REMARK   10  A    between atoms: C_12  and  C_13
REMARK   11  A    between atoms: C_13  and  C_14
REMARK   12  A    between atoms: C_14  and  C_15
REMARK   13  A    between atoms: C_15  and  C_16
REMARK   14  A    between atoms: C_16  and  C_17
REMARK   15  A    between atoms: C_17  and  C_18
REMARK   16  A    between atoms: C_18  and  N_20
REMARK   17  A    between atoms: N_20  and  C_21
REMARK   18  A    between atoms: C_21  and  C_22
REMARK   19  A    between atoms: C_21  and  C_23
REMARK   20  A    between atoms: C_25  and  C_26
REMARK   21  A    between atoms: C_28  and  C_29
REMARK                            x       y       z     vdW  Elec       q    Type
REMARK                         _______ _______ _______ _____ _____    ______ ____
ROOT
ATOM      1  C   UNL     1       1.541   7.950  21.002  0.00  0.00    +0.000 C 
ENDROOT
BRANCH   1   2
ATOM      2  C   UNL     1       0.954   9.216  20.386  0.00  0.00    +0.000 C 
BRANCH   2   3
ATOM      3  C   UNL     1       0.257  10.107  21.428  0.00  0.00    +0.000 C 
ATOM      4  S   UNL     1      -0.107   9.589  22.980  0.00  0.00    +0.000 S 
BRANCH   3   5
ATOM      5  N   UNL     1      -0.090  11.355  20.912  0.00  0.00    +0.000 N 
ATOM      6  H   UNL     1       0.656  11.991  20.737  0.00  0.00    +0.000 HD
BRANCH   5   7
ATOM      7  C   UNL     1      -1.431  11.726  20.399  0.00  0.00    +0.000 C 
ATOM      8  C   UNL     1      -1.359  12.290  18.973  0.00  0.00    +0.000 C 
BRANCH   7   9
ATOM      9  C   UNL     1      -2.152  12.670  21.372  0.00  0.00    +0.000 A 
ATOM     10  C   UNL     1      -2.784  12.203  22.523  0.00  0.00    +0.000 A 
ATOM     11  C   UNL     1      -3.491  13.058  23.385  0.00  0.00    +0.000 A 
ATOM     12  C   UNL     1      -4.198  12.525  24.594  0.00  0.00    +0.000 C 
ATOM     13  C   UNL     1      -3.546  14.430  23.090  0.00  0.00    +0.000 A 
ATOM     14  C   UNL     1      -2.906  14.938  21.963  0.00  0.00    +0.000 A 
ATOM     15  C   UNL     1      -2.981  16.401  21.626  0.00  0.00    +0.000 C 
ATOM     16  C   UNL     1      -2.203  14.059  21.110  0.00  0.00    +0.000 A 
ENDBRANCH   7   9
ENDBRANCH   5   7
ENDBRANCH   3   5
ENDBRANCH   2   3
ENDBRANCH   1   2
BRANCH   1  17
ATOM     17  C   UNL     1       2.091   6.924  20.027  0.00  0.00    +0.000 C 
BRANCH  17  18
ATOM     18  C   UNL     1       1.355   5.624  20.318  0.00  0.00    +0.000 C 
BRANCH  18  19
ATOM     19  C   UNL     1       2.197   4.648  21.114  0.00  0.00    +0.000 C 
BRANCH  19  20
ATOM     20  C   UNL     1       1.613   3.241  21.012  0.00  0.00    +0.000 C 
BRANCH  20  21
ATOM     21  C   UNL     1       0.869   3.091  19.698  0.00  0.00    +0.000 C 
BRANCH  21  23
ATOM     22  C   UNL     1       2.299   2.191  17.879  0.00  0.00    +0.000 C 
ATOM     23  C   UNL     1       1.380   1.982  18.838  0.00  0.00    +0.000 C 
BRANCH  22  24
ATOM     24  C   UNL     1       2.856   3.558  17.607  0.00  0.00    +0.000 C 
BRANCH  24  26
ATOM     25  C   UNL     1       4.944   4.880  17.928  0.00  0.00    +0.000 C 
ATOM     26  C   UNL     1       4.189   3.803  18.234  0.00  0.00    +0.000 C 
BRANCH  25  27
ATOM     27  C   UNL     1       4.527   5.910  16.911  0.00  0.00    +0.000 C 
BRANCH  27  28
ATOM     28  C   UNL     1       5.422   5.918  15.679  0.00  0.00    +0.000 C 
BRANCH  28  29
ATOM     29  C   UNL     1       5.302   4.594  14.923  0.00  0.00    +0.000 C 
BRANCH  29  31
ATOM     30  C   UNL     1       6.156   3.544  12.806  0.00  0.00    +0.000 C 
ATOM     31  C   UNL     1       6.522   4.357  14.037  0.00  0.00    +0.000 C 
ENDBRANCH  29  31
ENDBRANCH  28  29
ENDBRANCH  27  28
ENDBRANCH  25  27
ENDBRANCH  24  26
ENDBRANCH  22  24
ENDBRANCH  21  23
ENDBRANCH  20  21
ENDBRANCH  19  20
ENDBRANCH  18  19
ENDBRANCH  17  18
ENDBRANCH   1  17
TORSDOF 17
ENDMDL
MODEL 7
REMARK VINA RESULT:      -6.4      1.269      1.711
REMARK  Name = 
REMARK  21 active torsions:
REMARK  status: ('A' for Active; 'I' for Inactive)
REMARK    1  A    between atoms: C_1  and  C_2
REMARK    2  A    between atoms: C_2  and  C_3
REMARK    3  A    between atoms: C_3  and  C_4
REMARK    4  A    between atoms: C_4  and  C_5
REMARK    5  A    between atoms: C_5  and  C_6
REMARK    6  A    between atoms: C_7  and  C_8
REMARK    7  A    between atoms: C_8  and  C_9
REMARK    8  A    between atoms: C_10  and  C_11
REMARK    9  A    between atoms: C_11  and  C_12
REMARK   10  A    between atoms: C_12  and  C_13
REMARK   11  A    between atoms: C_13  and  C_14
REMARK   12  A    between atoms: C_14  and  C_15
REMARK   13  A    between atoms: C_15  and  C_16
REMARK   14  A    between atoms: C_16  and  C_17
REMARK   15  A    between atoms: C_17  and  C_18
REMARK   16  A    between atoms: C_18  and  N_20
REMARK   17  A    between atoms: N_20  and  C_21
REMARK   18  A    between atoms: C_21  and  C_22
REMARK   19  A    between atoms: C_21  and  C_23
REMARK   20  A    between atoms: C_25  and  C_26
REMARK   21  A    between atoms: C_28  and  C_29
REMARK                            x       y       z     vdW  Elec       q    Type
REMARK                         _______ _______ _______ _____ _____    ______ ____
ROOT
ATOM      1  C   UNL     1       0.515   9.538  22.073  0.00  0.00    +0.000 C 
ENDROOT
BRANCH   1   2
ATOM      2  C   UNL     1       0.857  10.632  21.066  0.00  0.00    +0.000 C 
BRANCH   2   3
ATOM      3  C   UNL     1      -0.224  11.724  20.995  0.00  0.00    +0.000 C 
ATOM      4  S   UNL     1      -0.522  12.801  22.244  0.00  0.00    +0.000 S 
BRANCH   3   5
ATOM      5  N   UNL     1      -0.960  11.665  19.812  0.00  0.00    +0.000 N 
ATOM      6  H   UNL     1      -1.440  12.495  19.542  0.00  0.00    +0.000 HD
BRANCH   5   7
ATOM      7  C   UNL     1      -0.905  10.562  18.823  0.00  0.00    +0.000 C 
ATOM      8  C   UNL     1       0.447  10.511  18.100  0.00  0.00    +0.000 C 
BRANCH   7   9
ATOM      9  C   UNL     1      -2.093  10.633  17.852  0.00  0.00    +0.000 A 
ATOM     10  C   UNL     1      -1.994  10.199  16.531  0.00  0.00    +0.000 A 
ATOM     11  C   UNL     1      -3.064  10.314  15.628  0.00  0.00    +0.000 A 
ATOM     12  C   UNL     1      -2.920   9.878  14.201  0.00  0.00    +0.000 C 
ATOM     13  C   UNL     1      -4.277  10.864  16.072  0.00  0.00    +0.000 A 
ATOM     14  C   UNL     1      -4.422  11.286  17.391  0.00  0.00    +0.000 A 
ATOM     15  C   UNL     1      -5.708  11.899  17.869  0.00  0.00    +0.000 C 
ATOM     16  C   UNL     1      -3.332  11.162  18.281  0.00  0.00    +0.000 A 
ENDBRANCH   7   9
ENDBRANCH   5   7
ENDBRANCH   3   5
ENDBRANCH   2   3
ENDBRANCH   1   2
BRANCH   1  17
ATOM     17  C   UNL     1       0.676   8.109  21.588  0.00  0.00    +0.000 C 
BRANCH  17  18
ATOM     18  C   UNL     1       1.700   8.155  20.463  0.00  0.00    +0.000 C 
BRANCH  18  19
ATOM     19  C   UNL     1       2.179   6.775  20.059  0.00  0.00    +0.000 C 
BRANCH  19  20
ATOM     20  C   UNL     1       1.305   5.703  20.704  0.00  0.00    +0.000 C 
BRANCH  20  21
ATOM     21  C   UNL     1       2.170   4.533  21.137  0.00  0.00    +0.000 C 
BRANCH  21  23
ATOM     22  C   UNL     1       1.853   2.227  20.276  0.00  0.00    +0.000 C 
ATOM     23  C   UNL     1       1.465   3.216  21.099  0.00  0.00    +0.000 C 
BRANCH  22  24
ATOM     24  C   UNL     1       3.009   2.393  19.334  0.00  0.00    +0.000 C 
BRANCH  24  26
ATOM     25  C   UNL     1       2.742   3.304  17.030  0.00  0.00    +0.000 C 
ATOM     26  C   UNL     1       2.637   2.271  17.893  0.00  0.00    +0.000 C 
BRANCH  25  27
ATOM     27  C   UNL     1       3.214   4.673  17.446  0.00  0.00    +0.000 C 
BRANCH  27  28
ATOM     28  C   UNL     1       4.580   5.024  16.871  0.00  0.00    +0.000 C 
BRANCH  28  29
ATOM     29  C   UNL     1       5.347   5.933  17.834  0.00  0.00    +0.000 C 
BRANCH  29  31
ATOM     30  C   UNL     1       7.441   5.792  19.214  0.00  0.00    +0.000 C 
ATOM     31  C   UNL     1       6.130   5.113  18.855  0.00  0.00    +0.000 C 
ENDBRANCH  29  31
ENDBRANCH  28  29
ENDBRANCH  27  28
ENDBRANCH  25  27
ENDBRANCH  24  26
ENDBRANCH  22  24
ENDBRANCH  21  23
ENDBRANCH  20  21
ENDBRANCH  19  20
ENDBRANCH  18  19
ENDBRANCH  17  18
ENDBRANCH   1  17
TORSDOF 17
ENDMDL
MODEL 8
REMARK VINA RESULT:      -6.2      3.261      9.557
REMARK  Name = 
REMARK  21 active torsions:
REMARK  status: ('A' for Active; 'I' for Inactive)
REMARK    1  A    between atoms: C_1  and  C_2
REMARK    2  A    between atoms: C_2  and  C_3
REMARK    3  A    between atoms: C_3  and  C_4
REMARK    4  A    between atoms: C_4  and  C_5
REMARK    5  A    between atoms: C_5  and  C_6
REMARK    6  A    between atoms: C_7  and  C_8
REMARK    7  A    between atoms: C_8  and  C_9
REMARK    8  A    between atoms: C_10  and  C_11
REMARK    9  A    between atoms: C_11  and  C_12
REMARK   10  A    between atoms: C_12  and  C_13
REMARK   11  A    between atoms: C_13  and  C_14
REMARK   12  A    between atoms: C_14  and  C_15
REMARK   13  A    between atoms: C_15  and  C_16
REMARK   14  A    between atoms: C_16  and  C_17
REMARK   15  A    between atoms: C_17  and  C_18
REMARK   16  A    between atoms: C_18  and  N_20
REMARK   17  A    between atoms: N_20  and  C_21
REMARK   18  A    between atoms: C_21  and  C_22
REMARK   19  A    between atoms: C_21  and  C_23
REMARK   20  A    between atoms: C_25  and  C_26
REMARK   21  A    between atoms: C_28  and  C_29
REMARK                            x       y       z     vdW  Elec       q    Type
REMARK                         _______ _______ _______ _____ _____    ______ ____
ROOT
ATOM      1  C   UNL     1       2.394   6.136  18.255  0.00  0.00    +0.000 C 
ENDROOT
BRANCH   1   2
ATOM      2  C   UNL     1       2.085   5.149  19.377  0.00  0.00    +0.000 C 
BRANCH   2   3
ATOM      3  C   UNL     1       1.852   3.721  18.854  0.00  0.00    +0.000 C 
ATOM      4  S   UNL     1       0.684   2.695  19.480  0.00  0.00    +0.000 S 
BRANCH   3   5
ATOM      5  N   UNL     1       2.762   3.366  17.859  0.00  0.00    +0.000 N 
ATOM      6  H   UNL     1       2.509   3.587  16.921  0.00  0.00    +0.000 HD
BRANCH   5   7
ATOM      7  C   UNL     1       4.149   2.899  18.094  0.00  0.00    +0.000 C 
ATOM      8  C   UNL     1       4.425   2.657  19.584  0.00  0.00    +0.000 C 
BRANCH   7   9
ATOM      9  C   UNL     1       5.169   3.851  17.451  0.00  0.00    +0.000 A 
ATOM     10  C   UNL     1       5.404   3.864  16.078  0.00  0.00    +0.000 A 
ATOM     11  C   UNL     1       6.375   4.696  15.496  0.00  0.00    +0.000 A 
ATOM     12  C   UNL     1       6.639   4.662  14.021  0.00  0.00    +0.000 C 
ATOM     13  C   UNL     1       7.118   5.557  16.320  0.00  0.00    +0.000 A 
ATOM     14  C   UNL     1       6.895   5.590  17.694  0.00  0.00    +0.000 A 
ATOM     15  C   UNL     1       7.703   6.489  18.586  0.00  0.00    +0.000 C 
ATOM     16  C   UNL     1       5.914   4.743  18.257  0.00  0.00    +0.000 A 
ENDBRANCH   7   9
ENDBRANCH   5   7
ENDBRANCH   3   5
ENDBRANCH   2   3
ENDBRANCH   1   2
BRANCH   1  17
ATOM     17  C   UNL     1       3.105   7.413  18.666  0.00  0.00    +0.000 C 
BRANCH  17  18
ATOM     18  C   UNL     1       2.767   8.448  17.603  0.00  0.00    +0.000 C 
BRANCH  18  19
ATOM     19  C   UNL     1       1.436   9.126  17.857  0.00  0.00    +0.000 C 
BRANCH  19  20
ATOM     20  C   UNL     1       1.614  10.295  18.823  0.00  0.00    +0.000 C 
BRANCH  20  21
ATOM     21  C   UNL     1       1.958  11.551  18.044  0.00  0.00    +0.000 C 
BRANCH  21  23
ATOM     22  C   UNL     1       1.147  13.535  19.296  0.00  0.00    +0.000 C 
ATOM     23  C   UNL     1       2.169  12.755  18.904  0.00  0.00    +0.000 C 
BRANCH  22  24
ATOM     24  C   UNL     1      -0.267  13.249  18.882  0.00  0.00    +0.000 C 
BRANCH  24  26
ATOM     25  C   UNL     1      -1.763  12.967  20.854  0.00  0.00    +0.000 C 
ATOM     26  C   UNL     1      -1.291  13.738  19.852  0.00  0.00    +0.000 C 
BRANCH  25  27
ATOM     27  C   UNL     1      -1.324  11.542  21.067  0.00  0.00    +0.000 C 
BRANCH  27  28
ATOM     28  C   UNL     1      -0.323  11.397  22.206  0.00  0.00    +0.000 C 
BRANCH  28  29
ATOM     29  C   UNL     1      -0.414  10.001  22.823  0.00  0.00    +0.000 C 
BRANCH  29  31
ATOM     30  C   UNL     1       1.057   8.379  21.591  0.00  0.00    +0.000 C 
ATOM     31  C   UNL     1      -0.354   8.921  21.747  0.00  0.00    +0.000 C 
ENDBRANCH  29  31
ENDBRANCH  28  29
ENDBRANCH  27  28
ENDBRANCH  25  27
ENDBRANCH  24  26
ENDBRANCH  22  24
ENDBRANCH  21  23
ENDBRANCH  20  21
ENDBRANCH  19  20
ENDBRANCH  18  19
ENDBRANCH  17  18
ENDBRANCH   1  17
TORSDOF 17
ENDMDL
MODEL 9
REMARK VINA RESULT:      -6.2      3.188      4.454
REMARK  Name = 
REMARK  21 active torsions:
REMARK  status: ('A' for Active; 'I' for Inactive)
REMARK    1  A    between atoms: C_1  and  C_2
REMARK    2  A    between atoms: C_2  and  C_3
REMARK    3  A    between atoms: C_3  and  C_4
REMARK    4  A    between atoms: C_4  and  C_5
REMARK    5  A    between atoms: C_5  and  C_6
REMARK    6  A    between atoms: C_7  and  C_8
REMARK    7  A    between atoms: C_8  and  C_9
REMARK    8  A    between atoms: C_10  and  C_11
REMARK    9  A    between atoms: C_11  and  C_12
REMARK   10  A    between atoms: C_12  and  C_13
REMARK   11  A    between atoms: C_13  and  C_14
REMARK   12  A    between atoms: C_14  and  C_15
REMARK   13  A    between atoms: C_15  and  C_16
REMARK   14  A    between atoms: C_16  and  C_17
REMARK   15  A    between atoms: C_17  and  C_18
REMARK   16  A    between atoms: C_18  and  N_20
REMARK   17  A    between atoms: N_20  and  C_21
REMARK   18  A    between atoms: C_21  and  C_22
REMARK   19  A    between atoms: C_21  and  C_23
REMARK   20  A    between atoms: C_25  and  C_26
REMARK   21  A    between atoms: C_28  and  C_29
REMARK                            x       y       z     vdW  Elec       q    Type
REMARK                         _______ _______ _______ _____ _____    ______ ____
ROOT
ATOM      1  C   UNL     1       1.832   7.717  20.486  0.00  0.00    +0.000 C 
ENDROOT
BRANCH   1   2
ATOM      2  C   UNL     1       1.287   8.488  19.288  0.00  0.00    +0.000 C 
BRANCH   2   3
ATOM      3  C   UNL     1       0.815   9.903  19.666  0.00  0.00    +0.000 C 
ATOM      4  S   UNL     1       1.402  11.291  18.932  0.00  0.00    +0.000 S 
BRANCH   3   5
ATOM      5  N   UNL     1      -0.094   9.894  20.723  0.00  0.00    +0.000 N 
ATOM      6  H   UNL     1      -0.915   9.342  20.604  0.00  0.00    +0.000 HD
BRANCH   5   7
ATOM      7  C   UNL     1       0.159  10.447  22.075  0.00  0.00    +0.000 C 
ATOM      8  C   UNL     1       0.077   9.364  23.159  0.00  0.00    +0.000 C 
BRANCH   7   9
ATOM      9  C   UNL     1      -0.760  11.643  22.364  0.00  0.00    +0.000 A 
ATOM     10  C   UNL     1      -1.902  11.524  23.154  0.00  0.00    +0.000 A 
ATOM     11  C   UNL     1      -2.773  12.604  23.373  0.00  0.00    +0.000 A 
ATOM     12  C   UNL     1      -4.017  12.440  24.193  0.00  0.00    +0.000 C 
ATOM     13  C   UNL     1      -2.475  13.849  22.796  0.00  0.00    +0.000 A 
ATOM     14  C   UNL     1      -1.330  14.013  22.020  0.00  0.00    +0.000 A 
ATOM     15  C   UNL     1      -1.017  15.335  21.378  0.00  0.00    +0.000 C 
ATOM     16  C   UNL     1      -0.470  12.913  21.812  0.00  0.00    +0.000 A 
ENDBRANCH   7   9
ENDBRANCH   5   7
ENDBRANCH   3   5
ENDBRANCH   2   3
ENDBRANCH   1   2
BRANCH   1  17
ATOM     17  C   UNL     1       1.169   6.383  20.781  0.00  0.00    +0.000 C 
BRANCH  17  18
ATOM     18  C   UNL     1       2.299   5.387  20.999  0.00  0.00    +0.000 C 
BRANCH  18  19
ATOM     19  C   UNL     1       1.800   3.960  21.106  0.00  0.00    +0.000 C 
BRANCH  19  20
ATOM     20  C   UNL     1       2.848   2.992  20.563  0.00  0.00    +0.000 C 
BRANCH  20  21
ATOM     21  C   UNL     1       2.291   2.260  19.357  0.00  0.00    +0.000 C 
BRANCH  21  23
ATOM     22  C   UNL     1       1.453   3.910  17.703  0.00  0.00    +0.000 C 
ATOM     23  C   UNL     1       1.197   2.997  18.656  0.00  0.00    +0.000 C 
BRANCH  22  24
ATOM     24  C   UNL     1       2.856   4.252  17.296  0.00  0.00    +0.000 C 
BRANCH  24  26
ATOM     25  C   UNL     1       4.528   6.092  17.464  0.00  0.00    +0.000 C 
ATOM     26  C   UNL     1       3.282   5.627  17.693  0.00  0.00    +0.000 C 
BRANCH  25  27
ATOM     27  C   UNL     1       5.605   5.261  16.816  0.00  0.00    +0.000 C 
BRANCH  27  28
ATOM     28  C   UNL     1       5.645   5.424  15.302  0.00  0.00    +0.000 C 
BRANCH  28  29
ATOM     29  C   UNL     1       5.553   4.060  14.615  0.00  0.00    +0.000 C 
BRANCH  29  31
ATOM     30  C   UNL     1       5.814   3.336  12.224  0.00  0.00    +0.000 C 
ATOM     31  C   UNL     1       6.495   3.986  13.417  0.00  0.00    +0.000 C 
ENDBRANCH  29  31
ENDBRANCH  28  29
ENDBRANCH  27  28
ENDBRANCH  25  27
ENDBRANCH  24  26
ENDBRANCH  22  24
ENDBRANCH  21  23
ENDBRANCH  20  21
ENDBRANCH  19  20
ENDBRANCH  18  19
ENDBRANCH  17  18
ENDBRANCH   1  17
TORSDOF 17
ENDMDL
