MODEL 1
REMARK VINA RESULT:      -8.1      0.000      0.000
REMARK  Name = 
REMARK  9 active torsions:
REMARK  status: ('A' for Active; 'I' for Inactive)
REMARK    1  A    between atoms: C_1  and  C_2
REMARK    2  A    between atoms: C_6  and  C_7
REMARK    3  A    between atoms: C_10  and  C_11
REMARK    4  A    between atoms: N_17  and  C_18
REMARK    5  A    between atoms: C_18  and  C_19
REMARK    6  A    between atoms: C_22  and  C_23
REMARK    7  A    between atoms: N_30  and  C_31
REMARK    8  A    between atoms: C_31  and  C_32
REMARK    9  A    between atoms: C_31  and  C_33
REMARK                            x       y       z     vdW  Elec       q    Type
REMARK                         _______ _______ _______ _____ _____    ______ ____
ROOT
ATOM      1  C   UNL     1      -2.782  12.719  22.501  0.00  0.00    +0.000 A 
ATOM      2  N   UNL     1      -2.320  11.935  23.485  0.00  0.00    +0.000 NA
ATOM      3  C   UNL     1      -1.397  11.011  23.142  0.00  0.00    +0.000 A 
ATOM      4  C   UNL     1      -0.961  10.788  21.854  0.00  0.00    +0.000 A 
ATOM      5  N   UNL     1       0.018   9.820  21.595  0.00  0.00    +0.000 NA
ATOM      6  C   UNL     1       0.291   9.560  20.351  0.00  0.00    +0.000 A 
ATOM      7  N   UNL     1       1.305   8.708  19.977  0.00  0.00    +0.000 N 
ATOM      8  C   UNL     1      -0.491  10.223  19.199  0.00  0.00    +0.000 A 
ATOM      9  O   UNL     1      -0.346   9.725  18.086  0.00  0.00    +0.000 OA
ATOM     10  N   UNL     1      -1.248  11.338  19.520  0.00  0.00    +0.000 N 
ATOM     11  C   UNL     1      -1.529  11.611  20.891  0.00  0.00    +0.000 A 
ATOM     12  N   UNL     1      -2.390  12.599  21.213  0.00  0.00    +0.000 NA
ATOM     13  H   UNL     1       1.303   8.453  18.990  0.00  0.00    +0.000 HD
ENDROOT
BRANCH   1  20
ATOM     14  C   UNL     1      -2.166  15.376  23.823  0.00  0.00    +0.000 C 
ATOM     15  C   UNL     1      -3.551  14.941  23.434  0.00  0.00    +0.000 A 
ATOM     16  N   UNL     1      -4.490  15.873  23.734  0.00  0.00    +0.000 NA
ATOM     17  C   UNL     1      -5.741  15.585  23.398  0.00  0.00    +0.000 A 
ATOM     18  N   UNL     1      -6.134  14.466  22.796  0.00  0.00    +0.000 NA
ATOM     19  C   UNL     1      -5.193  13.520  22.505  0.00  0.00    +0.000 A 
ATOM     20  C   UNL     1      -3.834  13.706  22.816  0.00  0.00    +0.000 A 
BRANCH  19  21
ATOM     21  C   UNL     1      -5.787  12.315  21.786  0.00  0.00    +0.000 C 
ATOM     22  C   UNL     1      -7.121  12.292  21.083  0.00  0.00    +0.000 C 
ATOM     23  C   UNL     1      -5.873  12.412  20.270  0.00  0.00    +0.000 C 
ENDBRANCH  19  21
ENDBRANCH   1  20
BRANCH  10  24
ATOM     24  C   UNL     1      -1.759  12.221  18.463  0.00  0.00    +0.000 C 
ATOM     25  C   UNL     1      -0.630  13.003  17.780  0.00  0.00    +0.000 C 
BRANCH  24  26
ATOM     26  C   UNL     1      -2.561  11.478  17.415  0.00  0.00    +0.000 C 
ATOM     27  C   UNL     1      -3.569  10.415  17.765  0.00  0.00    +0.000 C 
ATOM     28  C   UNL     1      -4.039  11.750  17.264  0.00  0.00    +0.000 C 
ENDBRANCH  24  26
ENDBRANCH  10  24
BRANCH   7  29
ATOM     29  C   UNL     1       1.913   7.753  20.868  0.00  0.00    +0.000 C 
BRANCH  29  30
ATOM     30  C   UNL     1       2.173   6.463  20.125  0.00  0.00    +0.000 A 
ATOM     31  C   UNL     1       1.902   5.224  20.730  0.00  0.00    +0.000 A 
ATOM     32  C   UNL     1       2.131   4.028  20.041  0.00  0.00    +0.000 A 
ATOM     33  C   UNL     1       2.629   4.051  18.736  0.00  0.00    +0.000 A 
ATOM     34  C   UNL     1       2.896   5.288  18.131  0.00  0.00    +0.000 A 
ATOM     35  C   UNL     1       2.672   6.481  18.818  0.00  0.00    +0.000 A 
BRANCH  33  36
ATOM     36  C   UNL     1       2.906   2.818  17.939  0.00  0.00    +0.000 C 
ATOM     37  N   UNL     1       4.179   2.323  17.907  0.00  0.00    +0.000 N 
ATOM     38  O   UNL     1       2.018   2.250  17.315  0.00  0.00    +0.000 OA
ATOM     39  H   UNL     1       4.978   2.730  18.365  0.00  0.00    +0.000 HD
ATOM     40  H   UNL     1       4.329   1.500  17.337  0.00  0.00    +0.000 HD
ENDBRANCH  33  36
ENDBRANCH  29  30
ENDBRANCH   7  29
TORSDOF 7
ENDMDL
MODEL 2
REMARK VINA RESULT:      -7.7      1.467      1.607
REMARK  Name = 
REMARK  9 active torsions:
REMARK  status: ('A' for Active; 'I' for Inactive)
REMARK    1  A    between atoms: C_1  and  C_2
REMARK    2  A    between atoms: C_6  and  C_7
REMARK    3  A    between atoms: C_10  and  C_11
REMARK    4  A    between atoms: N_17  and  C_18
REMARK    5  A    between atoms: C_18  and  C_19
REMARK    6  A    between atoms: C_22  and  C_23
REMARK    7  A    between atoms: N_30  and  C_31
REMARK    8  A    between atoms: C_31  and  C_32
REMARK    9  A    between atoms: C_31  and  C_33
REMARK                            x       y       z     vdW  Elec       q    Type
REMARK                         _______ _______ _______ _____ _____    ______ ____
ROOT
ATOM      1  C   UNL     1      -2.145  12.434  22.613  0.00  0.00    +0.000 A 
ATOM      2  N   UNL     1      -1.587  11.576  23.480  0.00  0.00    +0.000 NA
ATOM      3  C   UNL     1      -0.749  10.652  22.966  0.00  0.00    +0.000 A 
ATOM      4  C   UNL     1      -0.489  10.499  21.621  0.00  0.00    +0.000 A 
ATOM      5  N   UNL     1       0.414   9.524  21.180  0.00  0.00    +0.000 NA
ATOM      6  C   UNL     1       0.515   9.336  19.897  0.00  0.00    +0.000 A 
ATOM      7  N   UNL     1       1.443   8.483  19.345  0.00  0.00    +0.000 N 
ATOM      8  C   UNL     1      -0.384  10.092  18.898  0.00  0.00    +0.000 A 
ATOM      9  O   UNL     1      -0.400   9.661  17.749  0.00  0.00    +0.000 OA
ATOM     10  N   UNL     1      -1.055  11.203  19.381  0.00  0.00    +0.000 N 
ATOM     11  C   UNL     1      -1.148  11.396  20.790  0.00  0.00    +0.000 A 
ATOM     12  N   UNL     1      -1.926  12.384  21.281  0.00  0.00    +0.000 NA
ATOM     13  H   UNL     1       1.305   8.291  18.354  0.00  0.00    +0.000 HD
ENDROOT
BRANCH   1  20
ATOM     14  C   UNL     1      -1.312  14.750  24.380  0.00  0.00    +0.000 C 
ATOM     15  C   UNL     1      -2.729  14.503  23.945  0.00  0.00    +0.000 A 
ATOM     16  N   UNL     1      -3.588  15.435  24.426  0.00  0.00    +0.000 NA
ATOM     17  C   UNL     1      -4.860  15.312  24.067  0.00  0.00    +0.000 A 
ATOM     18  N   UNL     1      -5.344  14.355  23.281  0.00  0.00    +0.000 NA
ATOM     19  C   UNL     1      -4.484  13.407  22.806  0.00  0.00    +0.000 A 
ATOM     20  C   UNL     1      -3.113  13.426  23.121  0.00  0.00    +0.000 A 
BRANCH  19  21
ATOM     21  C   UNL     1      -5.175  12.403  21.893  0.00  0.00    +0.000 C 
ATOM     22  C   UNL     1      -6.545  12.577  21.287  0.00  0.00    +0.000 C 
ATOM     23  C   UNL     1      -5.339  12.817  20.439  0.00  0.00    +0.000 C 
ENDBRANCH  19  21
ENDBRANCH   1  20
BRANCH  10  24
ATOM     24  C   UNL     1      -1.667  12.165  18.454  0.00  0.00    +0.000 C 
ATOM     25  C   UNL     1      -0.612  13.046  17.770  0.00  0.00    +0.000 C 
BRANCH  24  26
ATOM     26  C   UNL     1      -2.524  11.498  17.399  0.00  0.00    +0.000 C 
ATOM     27  C   UNL     1      -3.546  10.443  17.731  0.00  0.00    +0.000 C 
ATOM     28  C   UNL     1      -3.999  11.814  17.318  0.00  0.00    +0.000 C 
ENDBRANCH  24  26
ENDBRANCH  10  24
BRANCH   7  29
ATOM     29  C   UNL     1       2.127   7.458  20.090  0.00  0.00    +0.000 C 
BRANCH  29  30
ATOM     30  C   UNL     1       3.118   6.754  19.192  0.00  0.00    +0.000 A 
ATOM     31  C   UNL     1       3.772   5.588  19.625  0.00  0.00    +0.000 A 
ATOM     32  C   UNL     1       4.681   4.928  18.792  0.00  0.00    +0.000 A 
ATOM     33  C   UNL     1       4.947   5.419  17.511  0.00  0.00    +0.000 A 
ATOM     34  C   UNL     1       4.292   6.580  17.077  0.00  0.00    +0.000 A 
ATOM     35  C   UNL     1       3.388   7.242  17.909  0.00  0.00    +0.000 A 
BRANCH  33  36
ATOM     36  C   UNL     1       5.909   4.775  16.566  0.00  0.00    +0.000 C 
ATOM     37  N   UNL     1       7.018   4.156  17.072  0.00  0.00    +0.000 N 
ATOM     38  O   UNL     1       5.723   4.794  15.356  0.00  0.00    +0.000 OA
ATOM     39  H   UNL     1       7.270   4.108  18.046  0.00  0.00    +0.000 HD
ATOM     40  H   UNL     1       7.655   3.752  16.397  0.00  0.00    +0.000 HD
ENDBRANCH  33  36
ENDBRANCH  29  30
ENDBRANCH   7  29
TORSDOF 7
ENDMDL
MODEL 3
REMARK VINA RESULT:      -7.7      1.890      2.643
REMARK  Name = 
REMARK  9 active torsions:
REMARK  status: ('A' for Active; 'I' for Inactive)
REMARK    1  A    between atoms: C_1  and  C_2
REMARK    2  A    between atoms: C_6  and  C_7
REMARK    3  A    between atoms: C_10  and  C_11
REMARK    4  A    between atoms: N_17  and  C_18
REMARK    5  A    between atoms: C_18  and  C_19
REMARK    6  A    between atoms: C_22  and  C_23
REMARK    7  A    between atoms: N_30  and  C_31
REMARK    8  A    between atoms: C_31  and  C_32
REMARK    9  A    between atoms: C_31  and  C_33
REMARK                            x       y       z     vdW  Elec       q    Type
REMARK                         _______ _______ _______ _____ _____    ______ ____
ROOT
ATOM      1  C   UNL     1      -1.375  13.631  20.822  0.00  0.00    +0.000 A 
ATOM      2  N   UNL     1      -0.240  13.307  21.460  0.00  0.00    +0.000 NA
ATOM      3  C   UNL     1       0.512  12.334  20.903  0.00  0.00    +0.000 A 
ATOM      4  C   UNL     1       0.158  11.625  19.776  0.00  0.00    +0.000 A 
ATOM      5  N   UNL     1       1.014  10.646  19.256  0.00  0.00    +0.000 NA
ATOM      6  C   UNL     1       0.569   9.917  18.277  0.00  0.00    +0.000 A 
ATOM      7  N   UNL     1       1.356   9.000  17.619  0.00  0.00    +0.000 N 
ATOM      8  C   UNL     1      -0.877  10.059  17.759  0.00  0.00    +0.000 A 
ATOM      9  O   UNL     1      -1.282   9.162  17.025  0.00  0.00    +0.000 OA
ATOM     10  N   UNL     1      -1.565  11.200  18.138  0.00  0.00    +0.000 N 
ATOM     11  C   UNL     1      -1.056  11.990  19.210  0.00  0.00    +0.000 A 
ATOM     12  N   UNL     1      -1.790  13.014  19.694  0.00  0.00    +0.000 NA
ATOM     13  H   UNL     1       0.847   8.374  16.995  0.00  0.00    +0.000 HD
ENDROOT
BRANCH   1  20
ATOM     14  C   UNL     1      -1.099  16.585  20.205  0.00  0.00    +0.000 C 
ATOM     15  C   UNL     1      -2.132  16.023  21.140  0.00  0.00    +0.000 A 
ATOM     16  N   UNL     1      -2.929  16.985  21.669  0.00  0.00    +0.000 NA
ATOM     17  C   UNL     1      -3.891  16.575  22.486  0.00  0.00    +0.000 A 
ATOM     18  N   UNL     1      -4.127  15.309  22.817  0.00  0.00    +0.000 NA
ATOM     19  C   UNL     1      -3.318  14.340  22.297  0.00  0.00    +0.000 A 
ATOM     20  C   UNL     1      -2.259  14.648  21.423  0.00  0.00    +0.000 A 
BRANCH  19  21
ATOM     21  C   UNL     1      -3.734  12.941  22.736  0.00  0.00    +0.000 C 
ATOM     22  C   UNL     1      -2.852  11.962  23.469  0.00  0.00    +0.000 C 
ATOM     23  C   UNL     1      -3.886  12.724  24.234  0.00  0.00    +0.000 C 
ENDBRANCH  19  21
ENDBRANCH   1  20
BRANCH  10  24
ATOM     24  C   UNL     1      -2.806  11.584  17.451  0.00  0.00    +0.000 C 
ATOM     25  C   UNL     1      -2.753  11.250  15.954  0.00  0.00    +0.000 C 
BRANCH  24  26
ATOM     26  C   UNL     1      -4.037  10.951  18.064  0.00  0.00    +0.000 C 
ATOM     27  C   UNL     1      -4.957  11.698  18.994  0.00  0.00    +0.000 C 
ATOM     28  C   UNL     1      -5.411  11.372  17.600  0.00  0.00    +0.000 C 
ENDBRANCH  24  26
ENDBRANCH  10  24
BRANCH   7  29
ATOM     29  C   UNL     1       2.592   8.484  18.147  0.00  0.00    +0.000 C 
BRANCH  29  30
ATOM     30  C   UNL     1       2.356   7.118  18.747  0.00  0.00    +0.000 A 
ATOM     31  C   UNL     1       2.396   5.967  17.941  0.00  0.00    +0.000 A 
ATOM     32  C   UNL     1       2.189   4.700  18.495  0.00  0.00    +0.000 A 
ATOM     33  C   UNL     1       1.944   4.561  19.864  0.00  0.00    +0.000 A 
ATOM     34  C   UNL     1       1.909   5.708  20.669  0.00  0.00    +0.000 A 
ATOM     35  C   UNL     1       2.110   6.974  20.117  0.00  0.00    +0.000 A 
BRANCH  33  36
ATOM     36  C   UNL     1       1.708   3.243  20.528  0.00  0.00    +0.000 C 
ATOM     37  N   UNL     1       1.810   3.161  21.888  0.00  0.00    +0.000 N 
ATOM     38  O   UNL     1       1.430   2.242  19.878  0.00  0.00    +0.000 OA
ATOM     39  H   UNL     1       2.057   3.918  22.504  0.00  0.00    +0.000 HD
ATOM     40  H   UNL     1       1.665   2.246  22.297  0.00  0.00    +0.000 HD
ENDBRANCH  33  36
ENDBRANCH  29  30
ENDBRANCH   7  29
TORSDOF 7
ENDMDL
MODEL 4
REMARK VINA RESULT:      -7.6      2.113      2.828
REMARK  Name = 
REMARK  9 active torsions:
REMARK  status: ('A' for Active; 'I' for Inactive)
REMARK    1  A    between atoms: C_1  and  C_2
REMARK    2  A    between atoms: C_6  and  C_7
REMARK    3  A    between atoms: C_10  and  C_11
REMARK    4  A    between atoms: N_17  and  C_18
REMARK    5  A    between atoms: C_18  and  C_19
REMARK    6  A    between atoms: C_22  and  C_23
REMARK    7  A    between atoms: N_30  and  C_31
REMARK    8  A    between atoms: C_31  and  C_32
REMARK    9  A    between atoms: C_31  and  C_33
REMARK                            x       y       z     vdW  Elec       q    Type
REMARK                         _______ _______ _______ _____ _____    ______ ____
ROOT
ATOM      1  C   UNL     1      -1.055  13.881  20.713  0.00  0.00    +0.000 A 
ATOM      2  N   UNL     1       0.108  13.552  21.294  0.00  0.00    +0.000 NA
ATOM      3  C   UNL     1       0.798  12.534  20.738  0.00  0.00    +0.000 A 
ATOM      4  C   UNL     1       0.355  11.786  19.668  0.00  0.00    +0.000 A 
ATOM      5  N   UNL     1       1.151  10.761  19.143  0.00  0.00    +0.000 NA
ATOM      6  C   UNL     1       0.625  10.002  18.227  0.00  0.00    +0.000 A 
ATOM      7  N   UNL     1       1.345   9.034  17.565  0.00  0.00    +0.000 N 
ATOM      8  C   UNL     1      -0.845  10.164  17.793  0.00  0.00    +0.000 A 
ATOM      9  O   UNL     1      -1.320   9.247  17.127  0.00  0.00    +0.000 OA
ATOM     10  N   UNL     1      -1.478  11.340  18.161  0.00  0.00    +0.000 N 
ATOM     11  C   UNL     1      -0.882  12.162  19.161  0.00  0.00    +0.000 A 
ATOM     12  N   UNL     1      -1.557  13.228  19.642  0.00  0.00    +0.000 NA
ATOM     13  H   UNL     1       0.781   8.396  17.003  0.00  0.00    +0.000 HD
ENDROOT
BRANCH   1  20
ATOM     14  C   UNL     1      -1.110  16.703  19.609  0.00  0.00    +0.000 C 
ATOM     15  C   UNL     1      -1.899  16.264  20.810  0.00  0.00    +0.000 A 
ATOM     16  N   UNL     1      -2.640  17.269  21.337  0.00  0.00    +0.000 NA
ATOM     17  C   UNL     1      -3.394  16.963  22.386  0.00  0.00    +0.000 A 
ATOM     18  N   UNL     1      -3.472  15.760  22.948  0.00  0.00    +0.000 NA
ATOM     19  C   UNL     1      -2.716  14.750  22.427  0.00  0.00    +0.000 A 
ATOM     20  C   UNL     1      -1.873  14.949  21.320  0.00  0.00    +0.000 A 
BRANCH  19  21
ATOM     21  C   UNL     1      -2.940  13.427  23.150  0.00  0.00    +0.000 C 
ATOM     22  C   UNL     1      -3.995  13.176  24.199  0.00  0.00    +0.000 C 
ATOM     23  C   UNL     1      -4.221  12.681  22.807  0.00  0.00    +0.000 C 
ENDBRANCH  19  21
ENDBRANCH   1  20
BRANCH  10  24
ATOM     24  C   UNL     1      -2.748  11.731  17.533  0.00  0.00    +0.000 C 
ATOM     25  C   UNL     1      -2.794  11.339  16.051  0.00  0.00    +0.000 C 
BRANCH  24  26
ATOM     26  C   UNL     1      -3.955  11.152  18.243  0.00  0.00    +0.000 C 
ATOM     27  C   UNL     1      -4.819  11.966  19.170  0.00  0.00    +0.000 C 
ATOM     28  C   UNL     1      -5.345  11.565  17.822  0.00  0.00    +0.000 C 
ENDBRANCH  24  26
ENDBRANCH  10  24
BRANCH   7  29
ATOM     29  C   UNL     1       2.598   8.506  18.040  0.00  0.00    +0.000 C 
BRANCH  29  30
ATOM     30  C   UNL     1       2.347   7.247  18.837  0.00  0.00    +0.000 A 
ATOM     31  C   UNL     1       1.986   7.321  20.194  0.00  0.00    +0.000 A 
ATOM     32  C   UNL     1       1.742   6.158  20.932  0.00  0.00    +0.000 A 
ATOM     33  C   UNL     1       1.849   4.904  20.326  0.00  0.00    +0.000 A 
ATOM     34  C   UNL     1       2.205   4.830  18.972  0.00  0.00    +0.000 A 
ATOM     35  C   UNL     1       2.453   5.990  18.235  0.00  0.00    +0.000 A 
BRANCH  33  36
ATOM     36  C   UNL     1       1.610   3.618  21.048  0.00  0.00    +0.000 C 
ATOM     37  N   UNL     1       0.660   2.760  20.572  0.00  0.00    +0.000 N 
ATOM     38  O   UNL     1       2.245   3.324  22.054  0.00  0.00    +0.000 OA
ATOM     39  H   UNL     1       0.072   2.921  19.771  0.00  0.00    +0.000 HD
ATOM     40  H   UNL     1       0.513   1.910  21.104  0.00  0.00    +0.000 HD
ENDBRANCH  33  36
ENDBRANCH  29  30
ENDBRANCH   7  29
TORSDOF 7
ENDMDL
MODEL 5
REMARK VINA RESULT:      -7.6      0.501      2.262
REMARK  Name = 
REMARK  9 active torsions:
REMARK  status: ('A' for Active; 'I' for Inactive)
REMARK    1  A    between atoms: C_1  and  C_2
REMARK    2  A    between atoms: C_6  and  C_7
REMARK    3  A    between atoms: C_10  and  C_11
REMARK    4  A    between atoms: N_17  and  C_18
REMARK    5  A    between atoms: C_18  and  C_19
REMARK    6  A    between atoms: C_22  and  C_23
REMARK    7  A    between atoms: N_30  and  C_31
REMARK    8  A    between atoms: C_31  and  C_32
REMARK    9  A    between atoms: C_31  and  C_33
REMARK                            x       y       z     vdW  Elec       q    Type
REMARK                         _______ _______ _______ _____ _____    ______ ____
ROOT
ATOM      1  C   UNL     1      -2.766  12.796  22.517  0.00  0.00    +0.000 A 
ATOM      2  N   UNL     1      -2.317  12.006  23.503  0.00  0.00    +0.000 NA
ATOM      3  C   UNL     1      -1.407  11.069  23.162  0.00  0.00    +0.000 A 
ATOM      4  C   UNL     1      -0.970  10.839  21.875  0.00  0.00    +0.000 A 
ATOM      5  N   UNL     1      -0.005   9.857  21.619  0.00  0.00    +0.000 NA
ATOM      6  C   UNL     1       0.267   9.593  20.376  0.00  0.00    +0.000 A 
ATOM      7  N   UNL     1       1.270   8.726  20.005  0.00  0.00    +0.000 N 
ATOM      8  C   UNL     1      -0.502  10.267  19.222  0.00  0.00    +0.000 A 
ATOM      9  O   UNL     1      -0.361   9.766  18.109  0.00  0.00    +0.000 OA
ATOM     10  N   UNL     1      -1.244  11.392  19.541  0.00  0.00    +0.000 N 
ATOM     11  C   UNL     1      -1.525  11.669  20.910  0.00  0.00    +0.000 A 
ATOM     12  N   UNL     1      -2.373  12.670  21.231  0.00  0.00    +0.000 NA
ATOM     13  H   UNL     1       1.266   8.471  19.019  0.00  0.00    +0.000 HD
ENDROOT
BRANCH   1  20
ATOM     14  C   UNL     1      -5.646  12.475  21.628  0.00  0.00    +0.000 C 
ATOM     15  C   UNL     1      -5.144  13.652  22.415  0.00  0.00    +0.000 A 
ATOM     16  N   UNL     1      -6.125  14.548  22.688  0.00  0.00    +0.000 NA
ATOM     17  C   UNL     1      -5.778  15.608  23.407  0.00  0.00    +0.000 A 
ATOM     18  N   UNL     1      -4.556  15.851  23.872  0.00  0.00    +0.000 NA
ATOM     19  C   UNL     1      -3.564  14.958  23.588  0.00  0.00    +0.000 A 
ATOM     20  C   UNL     1      -3.804  13.798  22.830  0.00  0.00    +0.000 A 
BRANCH  19  21
ATOM     21  C   UNL     1      -2.233  15.351  24.218  0.00  0.00    +0.000 C 
ATOM     22  C   UNL     1      -2.018  16.529  25.134  0.00  0.00    +0.000 C 
ATOM     23  C   UNL     1      -2.119  15.159  25.723  0.00  0.00    +0.000 C 
ENDBRANCH  19  21
ENDBRANCH   1  20
BRANCH  10  24
ATOM     24  C   UNL     1      -1.740  12.282  18.482  0.00  0.00    +0.000 C 
ATOM     25  C   UNL     1      -0.602  13.075  17.826  0.00  0.00    +0.000 C 
BRANCH  24  26
ATOM     26  C   UNL     1      -2.519  11.544  17.413  0.00  0.00    +0.000 C 
ATOM     27  C   UNL     1      -3.478  10.427  17.732  0.00  0.00    +0.000 C 
ATOM     28  C   UNL     1      -4.009  11.759  17.284  0.00  0.00    +0.000 C 
ENDBRANCH  24  26
ENDBRANCH  10  24
BRANCH   7  29
ATOM     29  C   UNL     1       1.862   7.763  20.898  0.00  0.00    +0.000 C 
BRANCH  29  30
ATOM     30  C   UNL     1       2.223   6.514  20.127  0.00  0.00    +0.000 A 
ATOM     31  C   UNL     1       1.712   5.264  20.515  0.00  0.00    +0.000 A 
ATOM     32  C   UNL     1       2.034   4.107  19.798  0.00  0.00    +0.000 A 
ATOM     33  C   UNL     1       2.867   4.182  18.679  0.00  0.00    +0.000 A 
ATOM     34  C   UNL     1       3.373   5.430  18.289  0.00  0.00    +0.000 A 
ATOM     35  C   UNL     1       3.056   6.584  19.006  0.00  0.00    +0.000 A 
BRANCH  33  36
ATOM     36  C   UNL     1       3.262   2.992  17.865  0.00  0.00    +0.000 C 
ATOM     37  N   UNL     1       4.510   2.956  17.309  0.00  0.00    +0.000 N 
ATOM     38  O   UNL     1       2.491   2.057  17.688  0.00  0.00    +0.000 OA
ATOM     39  H   UNL     1       5.203   3.683  17.377  0.00  0.00    +0.000 HD
ATOM     40  H   UNL     1       4.729   2.143  16.747  0.00  0.00    +0.000 HD
ENDBRANCH  33  36
ENDBRANCH  29  30
ENDBRANCH   7  29
TORSDOF 7
ENDMDL
MODEL 6
REMARK VINA RESULT:      -7.4      7.641     11.600
REMARK  Name = 
REMARK  9 active torsions:
REMARK  status: ('A' for Active; 'I' for Inactive)
REMARK    1  A    between atoms: C_1  and  C_2
REMARK    2  A    between atoms: C_6  and  C_7
REMARK    3  A    between atoms: C_10  and  C_11
REMARK    4  A    between atoms: N_17  and  C_18
REMARK    5  A    between atoms: C_18  and  C_19
REMARK    6  A    between atoms: C_22  and  C_23
REMARK    7  A    between atoms: N_30  and  C_31
REMARK    8  A    between atoms: C_31  and  C_32
REMARK    9  A    between atoms: C_31  and  C_33
REMARK                            x       y       z     vdW  Elec       q    Type
REMARK                         _______ _______ _______ _____ _____    ______ ____
ROOT
ATOM      1  C   UNL     1       8.004  14.553  18.548  0.00  0.00    +0.000 A 
ATOM      2  N   UNL     1       7.025  14.698  17.643  0.00  0.00    +0.000 NA
ATOM      3  C   UNL     1       5.793  14.974  18.121  0.00  0.00    +0.000 A 
ATOM      4  C   UNL     1       5.476  15.049  19.460  0.00  0.00    +0.000 A 
ATOM      5  N   UNL     1       4.173  15.364  19.863  0.00  0.00    +0.000 NA
ATOM      6  C   UNL     1       3.901  15.286  21.132  0.00  0.00    +0.000 A 
ATOM      7  N   UNL     1       2.688  15.672  21.655  0.00  0.00    +0.000 N 
ATOM      8  C   UNL     1       4.945  14.784  22.150  0.00  0.00    +0.000 A 
ATOM      9  O   UNL     1       4.521  14.497  23.266  0.00  0.00    +0.000 OA
ATOM     10  N   UNL     1       6.262  14.741  21.723  0.00  0.00    +0.000 N 
ATOM     11  C   UNL     1       6.539  14.835  20.328  0.00  0.00    +0.000 A 
ATOM     12  N   UNL     1       7.798  14.641  19.881  0.00  0.00    +0.000 NA
ATOM     13  H   UNL     1       2.539  15.400  22.626  0.00  0.00    +0.000 HD
ENDROOT
BRANCH   1  20
ATOM     14  C   UNL     1       9.997  16.633  17.608  0.00  0.00    +0.000 C 
ATOM     15  C   UNL     1      10.285  15.159  17.637  0.00  0.00    +0.000 A 
ATOM     16  N   UNL     1      11.536  14.867  17.203  0.00  0.00    +0.000 NA
ATOM     17  C   UNL     1      11.888  13.587  17.223  0.00  0.00    +0.000 A 
ATOM     18  N   UNL     1      11.113  12.587  17.631  0.00  0.00    +0.000 NA
ATOM     19  C   UNL     1       9.848  12.876  18.057  0.00  0.00    +0.000 A 
ATOM     20  C   UNL     1       9.356  14.194  18.078  0.00  0.00    +0.000 A 
BRANCH  19  21
ATOM     21  C   UNL     1       9.098  11.637  18.527  0.00  0.00    +0.000 C 
ATOM     22  C   UNL     1       9.720  10.287  18.783  0.00  0.00    +0.000 C 
ATOM     23  C   UNL     1       9.394  11.169  19.944  0.00  0.00    +0.000 C 
ENDBRANCH  19  21
ENDBRANCH   1  20
BRANCH  10  24
ATOM     24  C   UNL     1       7.356  14.593  22.693  0.00  0.00    +0.000 C 
ATOM     25  C   UNL     1       7.435  15.791  23.647  0.00  0.00    +0.000 C 
BRANCH  24  26
ATOM     26  C   UNL     1       7.255  13.314  23.499  0.00  0.00    +0.000 C 
ATOM     27  C   UNL     1       7.250  11.950  22.861  0.00  0.00    +0.000 C 
ATOM     28  C   UNL     1       8.457  12.409  23.627  0.00  0.00    +0.000 C 
ENDBRANCH  24  26
ENDBRANCH  10  24
BRANCH   7  29
ATOM     29  C   UNL     1       1.497  15.843  20.864  0.00  0.00    +0.000 C 
BRANCH  29  30
ATOM     30  C   UNL     1       0.997  14.493  20.403  0.00  0.00    +0.000 A 
ATOM     31  C   UNL     1       0.926  14.187  19.034  0.00  0.00    +0.000 A 
ATOM     32  C   UNL     1       0.475  12.935  18.604  0.00  0.00    +0.000 A 
ATOM     33  C   UNL     1       0.093  11.966  19.536  0.00  0.00    +0.000 A 
ATOM     34  C   UNL     1       0.168  12.270  20.902  0.00  0.00    +0.000 A 
ATOM     35  C   UNL     1       0.614  13.520  21.333  0.00  0.00    +0.000 A 
BRANCH  33  36
ATOM     36  C   UNL     1      -0.404  10.609  19.155  0.00  0.00    +0.000 C 
ATOM     37  N   UNL     1      -0.643  10.340  17.837  0.00  0.00    +0.000 N 
ATOM     38  O   UNL     1      -0.603   9.744  19.998  0.00  0.00    +0.000 OA
ATOM     39  H   UNL     1      -0.534  10.990  17.076  0.00  0.00    +0.000 HD
ATOM     40  H   UNL     1      -1.001   9.417  17.624  0.00  0.00    +0.000 HD
ENDBRANCH  33  36
ENDBRANCH  29  30
ENDBRANCH   7  29
TORSDOF 7
ENDMDL
MODEL 7
REMARK VINA RESULT:      -7.4      2.380      3.428
REMARK  Name = 
REMARK  9 active torsions:
REMARK  status: ('A' for Active; 'I' for Inactive)
REMARK    1  A    between atoms: C_1  and  C_2
REMARK    2  A    between atoms: C_6  and  C_7
REMARK    3  A    between atoms: C_10  and  C_11
REMARK    4  A    between atoms: N_17  and  C_18
REMARK    5  A    between atoms: C_18  and  C_19
REMARK    6  A    between atoms: C_22  and  C_23
REMARK    7  A    between atoms: N_30  and  C_31
REMARK    8  A    between atoms: C_31  and  C_32
REMARK    9  A    between atoms: C_31  and  C_33
REMARK                            x       y       z     vdW  Elec       q    Type
REMARK                         _______ _______ _______ _____ _____    ______ ____
ROOT
ATOM      1  C   UNL     1      -0.439  14.402  19.845  0.00  0.00    +0.000 A 
ATOM      2  N   UNL     1       0.765  14.129  20.370  0.00  0.00    +0.000 NA
ATOM      3  C   UNL     1       1.346  12.972  19.987  0.00  0.00    +0.000 A 
ATOM      4  C   UNL     1       0.757  12.043  19.157  0.00  0.00    +0.000 A 
ATOM      5  N   UNL     1       1.446  10.879  18.795  0.00  0.00    +0.000 NA
ATOM      6  C   UNL     1       0.792   9.978  18.123  0.00  0.00    +0.000 A 
ATOM      7  N   UNL     1       1.392   8.845  17.624  0.00  0.00    +0.000 N 
ATOM      8  C   UNL     1      -0.709  10.140  17.808  0.00  0.00    +0.000 A 
ATOM      9  O   UNL     1      -1.292   9.136  17.409  0.00  0.00    +0.000 OA
ATOM     10  N   UNL     1      -1.246  11.407  17.967  0.00  0.00    +0.000 N 
ATOM     11  C   UNL     1      -0.510  12.383  18.701  0.00  0.00    +0.000 A 
ATOM     12  N   UNL     1      -1.081  13.569  18.998  0.00  0.00    +0.000 NA
ATOM     13  H   UNL     1       0.744   8.141  17.273  0.00  0.00    +0.000 HD
ENDROOT
BRANCH   1  20
ATOM     14  C   UNL     1      -0.474  16.925  18.166  0.00  0.00    +0.000 C 
ATOM     15  C   UNL     1      -1.155  16.803  19.500  0.00  0.00    +0.000 A 
ATOM     16  N   UNL     1      -1.790  17.945  19.863  0.00  0.00    +0.000 NA
ATOM     17  C   UNL     1      -2.445  17.919  21.017  0.00  0.00    +0.000 A 
ATOM     18  N   UNL     1      -2.522  16.870  21.830  0.00  0.00    +0.000 NA
ATOM     19  C   UNL     1      -1.872  15.723  21.475  0.00  0.00    +0.000 A 
ATOM     20  C   UNL     1      -1.138  15.627  20.278  0.00  0.00    +0.000 A 
BRANCH  19  21
ATOM     21  C   UNL     1      -2.082  14.601  22.484  0.00  0.00    +0.000 C 
ATOM     22  C   UNL     1      -3.044  14.644  23.644  0.00  0.00    +0.000 C 
ATOM     23  C   UNL     1      -3.419  13.878  22.417  0.00  0.00    +0.000 C 
ENDBRANCH  19  21
ENDBRANCH   1  20
BRANCH  10  24
ATOM     24  C   UNL     1      -2.558  11.738  17.394  0.00  0.00    +0.000 C 
ATOM     25  C   UNL     1      -2.716  11.177  15.975  0.00  0.00    +0.000 C 
BRANCH  24  26
ATOM     26  C   UNL     1      -3.710  11.260  18.254  0.00  0.00    +0.000 C 
ATOM     27  C   UNL     1      -4.295  12.094  19.364  0.00  0.00    +0.000 C 
ATOM     28  C   UNL     1      -5.076  11.886  18.097  0.00  0.00    +0.000 C 
ENDBRANCH  24  26
ENDBRANCH  10  24
BRANCH   7  29
ATOM     29  C   UNL     1       2.665   8.350  18.081  0.00  0.00    +0.000 C 
BRANCH  29  30
ATOM     30  C   UNL     1       2.477   7.003  18.741  0.00  0.00    +0.000 A 
ATOM     31  C   UNL     1       2.743   5.818  18.034  0.00  0.00    +0.000 A 
ATOM     32  C   UNL     1       2.581   4.570  18.645  0.00  0.00    +0.000 A 
ATOM     33  C   UNL     1       2.156   4.486  19.973  0.00  0.00    +0.000 A 
ATOM     34  C   UNL     1       1.894   5.668  20.680  0.00  0.00    +0.000 A 
ATOM     35  C   UNL     1       2.051   6.914  20.070  0.00  0.00    +0.000 A 
BRANCH  33  36
ATOM     36  C   UNL     1       1.954   3.192  20.692  0.00  0.00    +0.000 C 
ATOM     37  N   UNL     1       2.127   3.156  22.047  0.00  0.00    +0.000 N 
ATOM     38  O   UNL     1       1.642   2.171  20.092  0.00  0.00    +0.000 OA
ATOM     39  H   UNL     1       2.405   3.932  22.624  0.00  0.00    +0.000 HD
ATOM     40  H   UNL     1       2.003   2.255  22.493  0.00  0.00    +0.000 HD
ENDBRANCH  33  36
ENDBRANCH  29  30
ENDBRANCH   7  29
TORSDOF 7
ENDMDL
MODEL 8
REMARK VINA RESULT:      -7.4      1.385      3.183
REMARK  Name = 
REMARK  9 active torsions:
REMARK  status: ('A' for Active; 'I' for Inactive)
REMARK    1  A    between atoms: C_1  and  C_2
REMARK    2  A    between atoms: C_6  and  C_7
REMARK    3  A    between atoms: C_10  and  C_11
REMARK    4  A    between atoms: N_17  and  C_18
REMARK    5  A    between atoms: C_18  and  C_19
REMARK    6  A    between atoms: C_22  and  C_23
REMARK    7  A    between atoms: N_30  and  C_31
REMARK    8  A    between atoms: C_31  and  C_32
REMARK    9  A    between atoms: C_31  and  C_33
REMARK                            x       y       z     vdW  Elec       q    Type
REMARK                         _______ _______ _______ _____ _____    ______ ____
ROOT
ATOM      1  C   UNL     1      -1.965  12.630  22.381  0.00  0.00    +0.000 A 
ATOM      2  N   UNL     1      -2.029  11.647  23.292  0.00  0.00    +0.000 NA
ATOM      3  C   UNL     1      -1.267  10.557  23.064  0.00  0.00    +0.000 A 
ATOM      4  C   UNL     1      -0.492  10.371  21.940  0.00  0.00    +0.000 A 
ATOM      5  N   UNL     1       0.285   9.214  21.799  0.00  0.00    +0.000 NA
ATOM      6  C   UNL     1       0.887   9.031  20.661  0.00  0.00    +0.000 A 
ATOM      7  N   UNL     1       1.760   7.988  20.445  0.00  0.00    +0.000 N 
ATOM      8  C   UNL     1       0.688   9.999  19.478  0.00  0.00    +0.000 A 
ATOM      9  O   UNL     1       1.078   9.606  18.382  0.00  0.00    +0.000 OA
ATOM     10  N   UNL     1       0.125  11.231  19.769  0.00  0.00    +0.000 N 
ATOM     11  C   UNL     1      -0.523  11.415  21.025  0.00  0.00    +0.000 A 
ATOM     12  N   UNL     1      -1.209  12.553  21.264  0.00  0.00    +0.000 NA
ATOM     13  H   UNL     1       2.025   7.853  19.470  0.00  0.00    +0.000 HD
ENDROOT
BRANCH   1  20
ATOM     14  C   UNL     1      -4.731  12.822  21.159  0.00  0.00    +0.000 C 
ATOM     15  C   UNL     1      -4.110  13.911  21.989  0.00  0.00    +0.000 A 
ATOM     16  N   UNL     1      -4.929  14.982  22.133  0.00  0.00    +0.000 NA
ATOM     17  C   UNL     1      -4.473  15.982  22.878  0.00  0.00    +0.000 A 
ATOM     18  N   UNL     1      -3.288  16.007  23.483  0.00  0.00    +0.000 NA
ATOM     19  C   UNL     1      -2.457  14.936  23.328  0.00  0.00    +0.000 A 
ATOM     20  C   UNL     1      -2.824  13.817  22.558  0.00  0.00    +0.000 A 
BRANCH  19  21
ATOM     21  C   UNL     1      -1.157  15.094  24.107  0.00  0.00    +0.000 C 
ATOM     22  C   UNL     1      -0.617  16.396  24.644  0.00  0.00    +0.000 C 
ATOM     23  C   UNL     1      -1.295  15.448  25.580  0.00  0.00    +0.000 C 
ENDBRANCH  19  21
ENDBRANCH   1  20
BRANCH  10  24
ATOM     24  C   UNL     1       0.190  12.329  18.795  0.00  0.00    +0.000 C 
ATOM     25  C   UNL     1      -1.208  12.791  18.364  0.00  0.00    +0.000 C 
BRANCH  24  26
ATOM     26  C   UNL     1       0.977  13.518  19.304  0.00  0.00    +0.000 C 
ATOM     27  C   UNL     1       2.328  13.380  19.955  0.00  0.00    +0.000 C 
ATOM     28  C   UNL     1       2.223  13.964  18.575  0.00  0.00    +0.000 C 
ENDBRANCH  24  26
ENDBRANCH  10  24
BRANCH   7  29
ATOM     29  C   UNL     1       1.823   6.815  21.277  0.00  0.00    +0.000 C 
BRANCH  29  30
ATOM     30  C   UNL     1       2.131   5.605  20.425  0.00  0.00    +0.000 A 
ATOM     31  C   UNL     1       3.306   5.554  19.656  0.00  0.00    +0.000 A 
ATOM     32  C   UNL     1       3.599   4.431  18.876  0.00  0.00    +0.000 A 
ATOM     33  C   UNL     1       2.727   3.340  18.855  0.00  0.00    +0.000 A 
ATOM     34  C   UNL     1       1.557   3.389  19.626  0.00  0.00    +0.000 A 
ATOM     35  C   UNL     1       1.260   4.511  20.402  0.00  0.00    +0.000 A 
BRANCH  33  36
ATOM     36  C   UNL     1       2.968   2.108  18.043  0.00  0.00    +0.000 C 
ATOM     37  N   UNL     1       3.924   1.223  18.455  0.00  0.00    +0.000 N 
ATOM     38  O   UNL     1       2.331   1.884  17.021  0.00  0.00    +0.000 OA
ATOM     39  H   UNL     1       4.513   1.330  19.264  0.00  0.00    +0.000 HD
ATOM     40  H   UNL     1       4.072   0.413  17.864  0.00  0.00    +0.000 HD
ENDBRANCH  33  36
ENDBRANCH  29  30
ENDBRANCH   7  29
TORSDOF 7
ENDMDL
MODEL 9
REMARK VINA RESULT:      -7.4      2.221      3.279
REMARK  Name = 
REMARK  9 active torsions:
REMARK  status: ('A' for Active; 'I' for Inactive)
REMARK    1  A    between atoms: C_1  and  C_2
REMARK    2  A    between atoms: C_6  and  C_7
REMARK    3  A    between atoms: C_10  and  C_11
REMARK    4  A    between atoms: N_17  and  C_18
REMARK    5  A    between atoms: C_18  and  C_19
REMARK    6  A    between atoms: C_22  and  C_23
REMARK    7  A    between atoms: N_30  and  C_31
REMARK    8  A    between atoms: C_31  and  C_32
REMARK    9  A    between atoms: C_31  and  C_33
REMARK                            x       y       z     vdW  Elec       q    Type
REMARK                         _______ _______ _______ _____ _____    ______ ____
ROOT
ATOM      1  C   UNL     1      -1.096  13.929  20.571  0.00  0.00    +0.000 A 
ATOM      2  N   UNL     1       0.049  13.615  21.194  0.00  0.00    +0.000 NA
ATOM      3  C   UNL     1       0.749  12.576  20.692  0.00  0.00    +0.000 A 
ATOM      4  C   UNL     1       0.331  11.794  19.636  0.00  0.00    +0.000 A 
ATOM      5  N   UNL     1       1.135  10.748  19.168  0.00  0.00    +0.000 NA
ATOM      6  C   UNL     1       0.631   9.961  18.263  0.00  0.00    +0.000 A 
ATOM      7  N   UNL     1       1.363   8.968  17.654  0.00  0.00    +0.000 N 
ATOM      8  C   UNL     1      -0.827  10.115  17.785  0.00  0.00    +0.000 A 
ATOM      9  O   UNL     1      -1.288   9.178  17.137  0.00  0.00    +0.000 OA
ATOM     10  N   UNL     1      -1.463  11.305  18.095  0.00  0.00    +0.000 N 
ATOM     11  C   UNL     1      -0.890  12.158  19.083  0.00  0.00    +0.000 A 
ATOM     12  N   UNL     1      -1.572  13.242  19.509  0.00  0.00    +0.000 NA
ATOM     13  H   UNL     1       0.811   8.314  17.099  0.00  0.00    +0.000 HD
ENDROOT
BRANCH   1  20
ATOM     14  C   UNL     1      -3.290  13.434  22.603  0.00  0.00    +0.000 C 
ATOM     15  C   UNL     1      -2.947  14.794  22.062  0.00  0.00    +0.000 A 
ATOM     16  N   UNL     1      -3.724  15.772  22.590  0.00  0.00    +0.000 NA
ATOM     17  C   UNL     1      -3.471  17.012  22.191  0.00  0.00    +0.000 A 
ATOM     18  N   UNL     1      -2.525  17.359  21.324  0.00  0.00    +0.000 NA
ATOM     19  C   UNL     1      -1.750  16.375  20.779  0.00  0.00    +0.000 A 
ATOM     20  C   UNL     1      -1.924  15.021  21.118  0.00  0.00    +0.000 A 
BRANCH  19  21
ATOM     21  C   UNL     1      -0.690  16.928  19.836  0.00  0.00    +0.000 C 
ATOM     22  C   UNL     1      -0.340  16.352  18.486  0.00  0.00    +0.000 C 
ATOM     23  C   UNL     1      -1.200  17.573  18.555  0.00  0.00    +0.000 C 
ENDBRANCH  19  21
ENDBRANCH   1  20
BRANCH  10  24
ATOM     24  C   UNL     1      -2.713  11.680  17.420  0.00  0.00    +0.000 C 
ATOM     25  C   UNL     1      -2.713  11.257  15.945  0.00  0.00    +0.000 C 
BRANCH  24  26
ATOM     26  C   UNL     1      -3.941  11.115  18.104  0.00  0.00    +0.000 C 
ATOM     27  C   UNL     1      -4.792  11.926  19.046  0.00  0.00    +0.000 C 
ATOM     28  C   UNL     1      -5.316  11.575  17.683  0.00  0.00    +0.000 C 
ENDBRANCH  24  26
ENDBRANCH  10  24
BRANCH   7  29
ATOM     29  C   UNL     1       2.599   8.451  18.181  0.00  0.00    +0.000 C 
BRANCH  29  30
ATOM     30  C   UNL     1       2.376   7.058  18.724  0.00  0.00    +0.000 A 
ATOM     31  C   UNL     1       2.096   6.859  20.086  0.00  0.00    +0.000 A 
ATOM     32  C   UNL     1       1.877   5.572  20.589  0.00  0.00    +0.000 A 
ATOM     33  C   UNL     1       1.929   4.465  19.739  0.00  0.00    +0.000 A 
ATOM     34  C   UNL     1       2.203   4.664  18.378  0.00  0.00    +0.000 A 
ATOM     35  C   UNL     1       2.426   5.947  17.876  0.00  0.00    +0.000 A 
BRANCH  33  36
ATOM     36  C   UNL     1       1.712   3.061  20.202  0.00  0.00    +0.000 C 
ATOM     37  N   UNL     1       0.949   2.842  21.314  0.00  0.00    +0.000 N 
ATOM     38  O   UNL     1       2.207   2.110  19.608  0.00  0.00    +0.000 OA
ATOM     39  H   UNL     1       0.521   3.556  21.881  0.00  0.00    +0.000 HD
ATOM     40  H   UNL     1       0.846   1.879  21.607  0.00  0.00    +0.000 HD
ENDBRANCH  33  36
ENDBRANCH  29  30
ENDBRANCH   7  29
TORSDOF 7
ENDMDL
