MODEL 1
REMARK VINA RESULT:      -7.4      0.000      0.000
REMARK  Name = 
REMARK  7 active torsions:
REMARK  status: ('A' for Active; 'I' for Inactive)
REMARK    1  A    between atoms: C_2  and  O_3
REMARK    2  A    between atoms: C_2  and  C_4
REMARK    3  A    between atoms: C_4  and  C_5
REMARK    4  A    between atoms: C_5  and  C_6
REMARK    5  A    between atoms: C_6  and  C_7
REMARK    6  A    between atoms: C_6  and  N_10
REMARK    7  A    between atoms: C_7  and  O_9
REMARK                            x       y       z     vdW  Elec       q    Type
REMARK                         _______ _______ _______ _____ _____    ______ ____
ROOT
ATOM      1  C   UNL     1       5.863   4.247  16.541  0.00  0.00    +0.000 C 
ENDROOT
BRANCH   1   2
ATOM      2  N   UNL     1       4.786   4.502  17.529  0.00  0.00    +0.000 N 
ATOM      3  C   UNL     1       3.960   3.515  17.995  0.00  0.00    +0.000 C 
ATOM      4  O   UNL     1       3.958   2.337  17.678  0.00  0.00    +0.000 OA
ATOM      5  C   UNL     1       3.050   4.120  18.963  0.00  0.00    +0.000 A 
ATOM      6  C   UNL     1       2.155   3.556  19.851  0.00  0.00    +0.000 A 
ATOM      7  C   UNL     1       1.431   4.431  20.668  0.00  0.00    +0.000 A 
ATOM      8  C   UNL     1       1.597   5.828  20.562  0.00  0.00    +0.000 A 
ATOM      9  C   UNL     1       2.518   6.371  19.663  0.00  0.00    +0.000 A 
ATOM     10  C   UNL     1       3.246   5.482  18.896  0.00  0.00    +0.000 A 
ATOM     11  C   UNL     1       4.333   5.727  17.951  0.00  0.00    +0.000 C 
ATOM     12  O   UNL     1       4.680   6.852  17.648  0.00  0.00    +0.000 OA
ENDBRANCH   1   2
BRANCH   1  13
ATOM     13  C   UNL     1       7.175   4.876  17.061  0.00  0.00    +0.000 C 
ATOM     14  O   UNL     1       7.873   4.391  17.944  0.00  0.00    +0.000 OA
BRANCH  13  15
ATOM     15  O   UNL     1       7.509   6.064  16.502  0.00  0.00    +0.000 OA
ATOM     16  H   UNL     1       8.396   6.088  16.062  0.00  0.00    +0.000 HD
ENDBRANCH  13  15
ENDBRANCH   1  13
BRANCH   1  17
ATOM     17  C   UNL     1       5.538   4.794  15.127  0.00  0.00    +0.000 C 
BRANCH  17  18
ATOM     18  C   UNL     1       6.060   4.016  13.913  0.00  0.00    +0.000 C 
BRANCH  18  20
ATOM     19  O   UNL     1       7.923   5.546  13.705  0.00  0.00    +0.000 OA
ATOM     20  C   UNL     1       7.194   4.702  13.206  0.00  0.00    +0.000 C 
BRANCH  20  21
ATOM     21  O   UNL     1       7.324   4.292  11.922  0.00  0.00    +0.000 OA
ATOM     22  H   UNL     1       6.816   4.829  11.285  0.00  0.00    +0.000 HD
ENDBRANCH  20  21
ENDBRANCH  18  20
ENDBRANCH  17  18
ENDBRANCH   1  17
TORSDOF 7
ENDMDL
MODEL 2
REMARK VINA RESULT:      -7.2      1.431      1.901
REMARK  Name = 
REMARK  7 active torsions:
REMARK  status: ('A' for Active; 'I' for Inactive)
REMARK    1  A    between atoms: C_2  and  O_3
REMARK    2  A    between atoms: C_2  and  C_4
REMARK    3  A    between atoms: C_4  and  C_5
REMARK    4  A    between atoms: C_5  and  C_6
REMARK    5  A    between atoms: C_6  and  C_7
REMARK    6  A    between atoms: C_6  and  N_10
REMARK    7  A    between atoms: C_7  and  O_9
REMARK                            x       y       z     vdW  Elec       q    Type
REMARK                         _______ _______ _______ _____ _____    ______ ____
ROOT
ATOM      1  C   UNL     1       5.877   4.036  15.643  0.00  0.00    +0.000 C 
ENDROOT
BRANCH   1   2
ATOM      2  N   UNL     1       4.952   4.617  16.647  0.00  0.00    +0.000 N 
ATOM      3  C   UNL     1       4.158   3.848  17.454  0.00  0.00    +0.000 C 
ATOM      4  O   UNL     1       4.069   2.632  17.465  0.00  0.00    +0.000 OA
ATOM      5  C   UNL     1       3.410   4.749  18.326  0.00  0.00    +0.000 A 
ATOM      6  C   UNL     1       2.620   4.501  19.432  0.00  0.00    +0.000 A 
ATOM      7  C   UNL     1       2.045   5.609  20.065  0.00  0.00    +0.000 A 
ATOM      8  C   UNL     1       2.250   6.914  19.570  0.00  0.00    +0.000 A 
ATOM      9  C   UNL     1       3.063   7.136  18.456  0.00  0.00    +0.000 A 
ATOM     10  C   UNL     1       3.648   6.029  17.874  0.00  0.00    +0.000 A 
ATOM     11  C   UNL     1       4.607   5.939  16.777  0.00  0.00    +0.000 C 
ATOM     12  O   UNL     1       4.954   6.918  16.145  0.00  0.00    +0.000 OA
ENDBRANCH   1   2
BRANCH   1  13
ATOM     13  C   UNL     1       7.279   4.656  15.840  0.00  0.00    +0.000 C 
ATOM     14  O   UNL     1       7.797   5.455  15.068  0.00  0.00    +0.000 OA
BRANCH  13  15
ATOM     15  O   UNL     1       7.957   4.223  16.930  0.00  0.00    +0.000 OA
ATOM     16  H   UNL     1       8.128   4.912  17.621  0.00  0.00    +0.000 HD
ENDBRANCH  13  15
ENDBRANCH   1  13
BRANCH   1  17
ATOM     17  C   UNL     1       5.405   4.250  14.182  0.00  0.00    +0.000 C 
BRANCH  17  18
ATOM     18  C   UNL     1       6.228   3.610  13.056  0.00  0.00    +0.000 C 
BRANCH  18  20
ATOM     19  O   UNL     1       4.389   3.431  11.494  0.00  0.00    +0.000 OA
ATOM     20  C   UNL     1       5.387   2.944  12.005  0.00  0.00    +0.000 C 
BRANCH  20  21
ATOM     21  O   UNL     1       5.847   1.713  11.679  0.00  0.00    +0.000 OA
ATOM     22  H   UNL     1       5.295   0.984  12.021  0.00  0.00    +0.000 HD
ENDBRANCH  20  21
ENDBRANCH  18  20
ENDBRANCH  17  18
ENDBRANCH   1  17
TORSDOF 7
ENDMDL
MODEL 3
REMARK VINA RESULT:      -7.0      1.453      2.584
REMARK  Name = 
REMARK  7 active torsions:
REMARK  status: ('A' for Active; 'I' for Inactive)
REMARK    1  A    between atoms: C_2  and  O_3
REMARK    2  A    between atoms: C_2  and  C_4
REMARK    3  A    between atoms: C_4  and  C_5
REMARK    4  A    between atoms: C_5  and  C_6
REMARK    5  A    between atoms: C_6  and  C_7
REMARK    6  A    between atoms: C_6  and  N_10
REMARK    7  A    between atoms: C_7  and  O_9
REMARK                            x       y       z     vdW  Elec       q    Type
REMARK                         _______ _______ _______ _____ _____    ______ ____
ROOT
ATOM      1  C   UNL     1       5.825   4.285  16.047  0.00  0.00    +0.000 C 
ENDROOT
BRANCH   1   2
ATOM      2  N   UNL     1       4.920   5.068  16.924  0.00  0.00    +0.000 N 
ATOM      3  C   UNL     1       4.602   6.376  16.681  0.00  0.00    +0.000 C 
ATOM      4  O   UNL     1       5.004   7.081  15.770  0.00  0.00    +0.000 OA
ATOM      5  C   UNL     1       3.676   6.807  17.724  0.00  0.00    +0.000 A 
ATOM      6  C   UNL     1       2.913   7.952  17.851  0.00  0.00    +0.000 A 
ATOM      7  C   UNL     1       2.101   8.054  18.987  0.00  0.00    +0.000 A 
ATOM      8  C   UNL     1       2.090   7.037  19.963  0.00  0.00    +0.000 A 
ATOM      9  C   UNL     1       2.862   5.884  19.803  0.00  0.00    +0.000 A 
ATOM     10  C   UNL     1       3.625   5.793  18.655  0.00  0.00    +0.000 A 
ATOM     11  C   UNL     1       4.450   4.695  18.159  0.00  0.00    +0.000 C 
ATOM     12  O   UNL     1       4.638   3.687  18.811  0.00  0.00    +0.000 OA
ENDBRANCH   1   2
BRANCH   1  13
ATOM     13  C   UNL     1       7.278   4.752  16.289  0.00  0.00    +0.000 C 
ATOM     14  O   UNL     1       8.056   4.217  17.071  0.00  0.00    +0.000 OA
BRANCH  13  15
ATOM     15  O   UNL     1       7.656   5.855  15.599  0.00  0.00    +0.000 OA
ATOM     16  H   UNL     1       7.202   6.694  15.865  0.00  0.00    +0.000 HD
ENDBRANCH  13  15
ENDBRANCH   1  13
BRANCH   1  17
ATOM     17  C   UNL     1       5.474   4.408  14.542  0.00  0.00    +0.000 C 
BRANCH  17  18
ATOM     18  C   UNL     1       6.489   3.883  13.518  0.00  0.00    +0.000 C 
BRANCH  18  20
ATOM     19  O   UNL     1       4.727   3.432  11.923  0.00  0.00    +0.000 OA
ATOM     20  C   UNL     1       5.853   3.203  12.339  0.00  0.00    +0.000 C 
BRANCH  20  21
ATOM     21  O   UNL     1       6.666   2.279  11.776  0.00  0.00    +0.000 OA
ATOM     22  H   UNL     1       7.435   2.042  12.329  0.00  0.00    +0.000 HD
ENDBRANCH  20  21
ENDBRANCH  18  20
ENDBRANCH  17  18
ENDBRANCH   1  17
TORSDOF 7
ENDMDL
MODEL 4
REMARK VINA RESULT:      -6.9      2.973      4.636
REMARK  Name = 
REMARK  7 active torsions:
REMARK  status: ('A' for Active; 'I' for Inactive)
REMARK    1  A    between atoms: C_2  and  O_3
REMARK    2  A    between atoms: C_2  and  C_4
REMARK    3  A    between atoms: C_4  and  C_5
REMARK    4  A    between atoms: C_5  and  C_6
REMARK    5  A    between atoms: C_6  and  C_7
REMARK    6  A    between atoms: C_6  and  N_10
REMARK    7  A    between atoms: C_7  and  O_9
REMARK                            x       y       z     vdW  Elec       q    Type
REMARK                         _______ _______ _______ _____ _____    ______ ____
ROOT
ATOM      1  C   UNL     1       4.431   4.198  19.208  0.00  0.00    +0.000 C 
ENDROOT
BRANCH   1   2
ATOM      2  N   UNL     1       3.671   5.470  19.124  0.00  0.00    +0.000 N 
ATOM      3  C   UNL     1       2.724   5.829  20.045  0.00  0.00    +0.000 C 
ATOM      4  O   UNL     1       2.354   5.190  21.016  0.00  0.00    +0.000 OA
ATOM      5  C   UNL     1       2.209   7.140  19.662  0.00  0.00    +0.000 A 
ATOM      6  C   UNL     1       1.389   8.029  20.329  0.00  0.00    +0.000 A 
ATOM      7  C   UNL     1       1.090   9.231  19.679  0.00  0.00    +0.000 A 
ATOM      8  C   UNL     1       1.590   9.501  18.388  0.00  0.00    +0.000 A 
ATOM      9  C   UNL     1       2.427   8.589  17.741  0.00  0.00    +0.000 A 
ATOM     10  C   UNL     1       2.736   7.427  18.421  0.00  0.00    +0.000 A 
ATOM     11  C   UNL     1       3.643   6.341  18.063  0.00  0.00    +0.000 C 
ATOM     12  O   UNL     1       4.205   6.301  16.986  0.00  0.00    +0.000 OA
ENDBRANCH   1   2
BRANCH   1  13
ATOM     13  C   UNL     1       5.921   4.489  18.920  0.00  0.00    +0.000 C 
ATOM     14  O   UNL     1       6.668   5.092  19.682  0.00  0.00    +0.000 OA
BRANCH  13  15
ATOM     15  O   UNL     1       6.371   4.068  17.713  0.00  0.00    +0.000 OA
ATOM     16  H   UNL     1       6.496   4.782  17.038  0.00  0.00    +0.000 HD
ENDBRANCH  13  15
ENDBRANCH   1  13
BRANCH   1  17
ATOM     17  C   UNL     1       3.908   3.108  18.238  0.00  0.00    +0.000 C 
BRANCH  17  18
ATOM     18  C   UNL     1       2.702   2.269  18.677  0.00  0.00    +0.000 C 
BRANCH  18  20
ATOM     19  O   UNL     1       1.245   3.807  17.509  0.00  0.00    +0.000 OA
ATOM     20  C   UNL     1       1.382   2.852  18.259  0.00  0.00    +0.000 C 
BRANCH  20  21
ATOM     21  O   UNL     1       0.332   2.207  18.819  0.00  0.00    +0.000 OA
ATOM     22  H   UNL     1      -0.351   2.805  19.178  0.00  0.00    +0.000 HD
ENDBRANCH  20  21
ENDBRANCH  18  20
ENDBRANCH  17  18
ENDBRANCH   1  17
TORSDOF 7
ENDMDL
MODEL 5
REMARK VINA RESULT:      -6.9      1.420      1.864
REMARK  Name = 
REMARK  7 active torsions:
REMARK  status: ('A' for Active; 'I' for Inactive)
REMARK    1  A    between atoms: C_2  and  O_3
REMARK    2  A    between atoms: C_2  and  C_4
REMARK    3  A    between atoms: C_4  and  C_5
REMARK    4  A    between atoms: C_5  and  C_6
REMARK    5  A    between atoms: C_6  and  C_7
REMARK    6  A    between atoms: C_6  and  N_10
REMARK    7  A    between atoms: C_7  and  O_9
REMARK                            x       y       z     vdW  Elec       q    Type
REMARK                         _______ _______ _______ _____ _____    ______ ____
ROOT
ATOM      1  C   UNL     1       6.712   4.698  18.280  0.00  0.00    +0.000 C 
ENDROOT
BRANCH   1   2
ATOM      2  N   UNL     1       5.341   4.649  18.845  0.00  0.00    +0.000 N 
ATOM      3  C   UNL     1       4.813   3.520  19.411  0.00  0.00    +0.000 C 
ATOM      4  O   UNL     1       5.343   2.427  19.517  0.00  0.00    +0.000 OA
ATOM      5  C   UNL     1       3.470   3.847  19.878  0.00  0.00    +0.000 A 
ATOM      6  C   UNL     1       2.583   3.143  20.671  0.00  0.00    +0.000 A 
ATOM      7  C   UNL     1       1.357   3.755  20.953  0.00  0.00    +0.000 A 
ATOM      8  C   UNL     1       1.041   5.024  20.425  0.00  0.00    +0.000 A 
ATOM      9  C   UNL     1       1.961   5.718  19.635  0.00  0.00    +0.000 A 
ATOM     10  C   UNL     1       3.178   5.107  19.404  0.00  0.00    +0.000 A 
ATOM     11  C   UNL     1       4.364   5.604  18.713  0.00  0.00    +0.000 C 
ATOM     12  O   UNL     1       4.371   6.676  18.138  0.00  0.00    +0.000 OA
ENDBRANCH   1   2
BRANCH   1  13
ATOM     13  C   UNL     1       7.535   5.746  19.062  0.00  0.00    +0.000 C 
ATOM     14  O   UNL     1       7.980   6.780  18.577  0.00  0.00    +0.000 OA
BRANCH  13  15
ATOM     15  O   UNL     1       7.793   5.434  20.355  0.00  0.00    +0.000 OA
ATOM     16  H   UNL     1       8.284   6.126  20.866  0.00  0.00    +0.000 HD
ENDBRANCH  13  15
ENDBRANCH   1  13
BRANCH   1  17
ATOM     17  C   UNL     1       6.737   5.029  16.765  0.00  0.00    +0.000 C 
BRANCH  17  18
ATOM     18  C   UNL     1       6.119   4.016  15.794  0.00  0.00    +0.000 C 
BRANCH  18  20
ATOM     19  O   UNL     1       6.098   3.592  13.413  0.00  0.00    +0.000 OA
ATOM     20  C   UNL     1       6.467   4.276  14.356  0.00  0.00    +0.000 C 
BRANCH  20  21
ATOM     21  O   UNL     1       7.261   5.361  14.205  0.00  0.00    +0.000 OA
ATOM     22  H   UNL     1       7.358   5.894  15.018  0.00  0.00    +0.000 HD
ENDBRANCH  20  21
ENDBRANCH  18  20
ENDBRANCH  17  18
ENDBRANCH   1  17
TORSDOF 7
ENDMDL
MODEL 6
REMARK VINA RESULT:      -6.9      1.473      2.465
REMARK  Name = 
REMARK  7 active torsions:
REMARK  status: ('A' for Active; 'I' for Inactive)
REMARK    1  A    between atoms: C_2  and  O_3
REMARK    2  A    between atoms: C_2  and  C_4
REMARK    3  A    between atoms: C_4  and  C_5
REMARK    4  A    between atoms: C_5  and  C_6
REMARK    5  A    between atoms: C_6  and  C_7
REMARK    6  A    between atoms: C_6  and  N_10
REMARK    7  A    between atoms: C_7  and  O_9
REMARK                            x       y       z     vdW  Elec       q    Type
REMARK                         _______ _______ _______ _____ _____    ______ ____
ROOT
ATOM      1  C   UNL     1       6.379   4.490  18.170  0.00  0.00    +0.000 C 
ENDROOT
BRANCH   1   2
ATOM      2  N   UNL     1       5.060   4.284  18.819  0.00  0.00    +0.000 N 
ATOM      3  C   UNL     1       4.124   5.277  18.928  0.00  0.00    +0.000 C 
ATOM      4  O   UNL     1       4.223   6.433  18.552  0.00  0.00    +0.000 OA
ATOM      5  C   UNL     1       2.953   4.711  19.590  0.00  0.00    +0.000 A 
ATOM      6  C   UNL     1       1.681   5.214  19.780  0.00  0.00    +0.000 A 
ATOM      7  C   UNL     1       0.767   4.396  20.455  0.00  0.00    +0.000 A 
ATOM      8  C   UNL     1       1.149   3.127  20.937  0.00  0.00    +0.000 A 
ATOM      9  C   UNL     1       2.439   2.639  20.720  0.00  0.00    +0.000 A 
ATOM     10  C   UNL     1       3.309   3.451  20.019  0.00  0.00    +0.000 A 
ATOM     11  C   UNL     1       4.669   3.194  19.555  0.00  0.00    +0.000 C 
ATOM     12  O   UNL     1       5.264   2.174  19.844  0.00  0.00    +0.000 OA
ENDBRANCH   1   2
BRANCH   1  13
ATOM     13  C   UNL     1       7.173   5.538  18.982  0.00  0.00    +0.000 C 
ATOM     14  O   UNL     1       7.522   5.391  20.148  0.00  0.00    +0.000 OA
BRANCH  13  15
ATOM     15  O   UNL     1       7.441   6.695  18.331  0.00  0.00    +0.000 OA
ATOM     16  H   UNL     1       6.646   7.211  18.044  0.00  0.00    +0.000 HD
ENDBRANCH  13  15
ENDBRANCH   1  13
BRANCH   1  17
ATOM     17  C   UNL     1       6.268   4.940  16.691  0.00  0.00    +0.000 C 
BRANCH  17  18
ATOM     18  C   UNL     1       5.979   3.871  15.630  0.00  0.00    +0.000 C 
BRANCH  18  20
ATOM     19  O   UNL     1       7.153   5.224  14.005  0.00  0.00    +0.000 OA
ATOM     20  C   UNL     1       6.545   4.200  14.278  0.00  0.00    +0.000 C 
BRANCH  20  21
ATOM     21  O   UNL     1       6.295   3.233  13.365  0.00  0.00    +0.000 OA
ATOM     22  H   UNL     1       6.258   3.560  12.446  0.00  0.00    +0.000 HD
ENDBRANCH  20  21
ENDBRANCH  18  20
ENDBRANCH  17  18
ENDBRANCH   1  17
TORSDOF 7
ENDMDL
MODEL 7
REMARK VINA RESULT:      -6.9      0.638      2.113
REMARK  Name = 
REMARK  7 active torsions:
REMARK  status: ('A' for Active; 'I' for Inactive)
REMARK    1  A    between atoms: C_2  and  O_3
REMARK    2  A    between atoms: C_2  and  C_4
REMARK    3  A    between atoms: C_4  and  C_5
REMARK    4  A    between atoms: C_5  and  C_6
REMARK    5  A    between atoms: C_6  and  C_7
REMARK    6  A    between atoms: C_6  and  N_10
REMARK    7  A    between atoms: C_7  and  O_9
REMARK                            x       y       z     vdW  Elec       q    Type
REMARK                         _______ _______ _______ _____ _____    ______ ____
ROOT
ATOM      1  C   UNL     1       5.887   4.349  16.727  0.00  0.00    +0.000 C 
ENDROOT
BRANCH   1   2
ATOM      2  N   UNL     1       4.848   4.742  17.711  0.00  0.00    +0.000 N 
ATOM      3  C   UNL     1       4.436   6.036  17.875  0.00  0.00    +0.000 C 
ATOM      4  O   UNL     1       4.846   7.025  17.291  0.00  0.00    +0.000 OA
ATOM      5  C   UNL     1       3.394   6.042  18.898  0.00  0.00    +0.000 A 
ATOM      6  C   UNL     1       2.526   7.034  19.309  0.00  0.00    +0.000 A 
ATOM      7  C   UNL     1       1.619   6.706  20.324  0.00  0.00    +0.000 A 
ATOM      8  C   UNL     1       1.619   5.423  20.909  0.00  0.00    +0.000 A 
ATOM      9  C   UNL     1       2.501   4.435  20.465  0.00  0.00    +0.000 A 
ATOM     10  C   UNL     1       3.359   4.775  19.437  0.00  0.00    +0.000 A 
ATOM     11  C   UNL     1       4.315   3.954  18.700  0.00  0.00    +0.000 C 
ATOM     12  O   UNL     1       4.539   2.798  19.005  0.00  0.00    +0.000 OA
ENDBRANCH   1   2
BRANCH   1  13
ATOM     13  C   UNL     1       7.247   4.923  17.184  0.00  0.00    +0.000 C 
ATOM     14  O   UNL     1       7.952   4.425  18.055  0.00  0.00    +0.000 OA
BRANCH  13  15
ATOM     15  O   UNL     1       7.620   6.078  16.582  0.00  0.00    +0.000 OA
ATOM     16  H   UNL     1       7.377   6.152  15.625  0.00  0.00    +0.000 HD
ENDBRANCH  13  15
ENDBRANCH   1  13
BRANCH   1  17
ATOM     17  C   UNL     1       5.572   4.819  15.284  0.00  0.00    +0.000 C 
BRANCH  17  18
ATOM     18  C   UNL     1       5.998   3.915  14.120  0.00  0.00    +0.000 C 
BRANCH  18  20
ATOM     19  O   UNL     1       7.189   4.253  12.042  0.00  0.00    +0.000 OA
ATOM     20  C   UNL     1       7.020   4.545  13.217  0.00  0.00    +0.000 C 
BRANCH  20  21
ATOM     21  O   UNL     1       7.763   5.481  13.851  0.00  0.00    +0.000 OA
ATOM     22  H   UNL     1       8.026   6.228  13.280  0.00  0.00    +0.000 HD
ENDBRANCH  20  21
ENDBRANCH  18  20
ENDBRANCH  17  18
ENDBRANCH   1  17
TORSDOF 7
ENDMDL
MODEL 8
REMARK VINA RESULT:      -6.8      0.904      1.365
REMARK  Name = 
REMARK  7 active torsions:
REMARK  status: ('A' for Active; 'I' for Inactive)
REMARK    1  A    between atoms: C_2  and  O_3
REMARK    2  A    between atoms: C_2  and  C_4
REMARK    3  A    between atoms: C_4  and  C_5
REMARK    4  A    between atoms: C_5  and  C_6
REMARK    5  A    between atoms: C_6  and  C_7
REMARK    6  A    between atoms: C_6  and  N_10
REMARK    7  A    between atoms: C_7  and  O_9
REMARK                            x       y       z     vdW  Elec       q    Type
REMARK                         _______ _______ _______ _____ _____    ______ ____
ROOT
ATOM      1  C   UNL     1       5.797   4.145  15.801  0.00  0.00    +0.000 C 
ENDROOT
BRANCH   1   2
ATOM      2  N   UNL     1       4.849   4.581  16.856  0.00  0.00    +0.000 N 
ATOM      3  C   UNL     1       4.101   3.700  17.590  0.00  0.00    +0.000 C 
ATOM      4  O   UNL     1       4.076   2.485  17.488  0.00  0.00    +0.000 OA
ATOM      5  C   UNL     1       3.312   4.476  18.542  0.00  0.00    +0.000 A 
ATOM      6  C   UNL     1       2.543   4.086  19.621  0.00  0.00    +0.000 A 
ATOM      7  C   UNL     1       1.915   5.099  20.355  0.00  0.00    +0.000 A 
ATOM      8  C   UNL     1       2.049   6.453  19.983  0.00  0.00    +0.000 A 
ATOM      9  C   UNL     1       2.842   6.819  18.894  0.00  0.00    +0.000 A 
ATOM     10  C   UNL     1       3.480   5.803  18.210  0.00  0.00    +0.000 A 
ATOM     11  C   UNL     1       4.436   5.866  17.108  0.00  0.00    +0.000 C 
ATOM     12  O   UNL     1       4.727   6.916  16.570  0.00  0.00    +0.000 OA
ENDBRANCH   1   2
BRANCH   1  13
ATOM     13  C   UNL     1       7.190   4.740  16.107  0.00  0.00    +0.000 C 
ATOM     14  O   UNL     1       7.682   5.692  15.511  0.00  0.00    +0.000 OA
BRANCH  13  15
ATOM     15  O   UNL     1       7.891   4.105  17.077  0.00  0.00    +0.000 OA
ATOM     16  H   UNL     1       8.396   3.308  16.778  0.00  0.00    +0.000 HD
ENDBRANCH  13  15
ENDBRANCH   1  13
BRANCH   1  17
ATOM     17  C   UNL     1       5.350   4.551  14.373  0.00  0.00    +0.000 C 
BRANCH  17  18
ATOM     18  C   UNL     1       5.456   3.503  13.258  0.00  0.00    +0.000 C 
BRANCH  18  20
ATOM     19  O   UNL     1       7.077   2.833  11.593  0.00  0.00    +0.000 OA
ATOM     20  C   UNL     1       6.687   3.653  12.410  0.00  0.00    +0.000 C 
BRANCH  20  21
ATOM     21  O   UNL     1       7.345   4.809  12.656  0.00  0.00    +0.000 OA
ATOM     22  H   UNL     1       6.767   5.534  12.962  0.00  0.00    +0.000 HD
ENDBRANCH  20  21
ENDBRANCH  18  20
ENDBRANCH  17  18
ENDBRANCH   1  17
TORSDOF 7
ENDMDL
MODEL 9
REMARK VINA RESULT:      -6.8      0.992      1.200
REMARK  Name = 
REMARK  7 active torsions:
REMARK  status: ('A' for Active; 'I' for Inactive)
REMARK    1  A    between atoms: C_2  and  O_3
REMARK    2  A    between atoms: C_2  and  C_4
REMARK    3  A    between atoms: C_4  and  C_5
REMARK    4  A    between atoms: C_5  and  C_6
REMARK    5  A    between atoms: C_6  and  C_7
REMARK    6  A    between atoms: C_6  and  N_10
REMARK    7  A    between atoms: C_7  and  O_9
REMARK                            x       y       z     vdW  Elec       q    Type
REMARK                         _______ _______ _______ _____ _____    ______ ____
ROOT
ATOM      1  C   UNL     1       5.652   4.336  16.975  0.00  0.00    +0.000 C 
ENDROOT
BRANCH   1   2
ATOM      2  N   UNL     1       4.492   4.194  17.889  0.00  0.00    +0.000 N 
ATOM      3  C   UNL     1       3.835   3.007  18.072  0.00  0.00    +0.000 C 
ATOM      4  O   UNL     1       4.067   1.940  17.530  0.00  0.00    +0.000 OA
ATOM      5  C   UNL     1       2.776   3.235  19.050  0.00  0.00    +0.000 A 
ATOM      6  C   UNL     1       1.950   2.355  19.722  0.00  0.00    +0.000 A 
ATOM      7  C   UNL     1       1.032   2.905  20.624  0.00  0.00    +0.000 A 
ATOM      8  C   UNL     1       0.947   4.300  20.811  0.00  0.00    +0.000 A 
ATOM      9  C   UNL     1       1.802   5.166  20.127  0.00  0.00    +0.000 A 
ATOM     10  C   UNL     1       2.724   4.594  19.272  0.00  0.00    +0.000 A 
ATOM     11  C   UNL     1       3.799   5.209  18.500  0.00  0.00    +0.000 C 
ATOM     12  O   UNL     1       3.952   6.415  18.458  0.00  0.00    +0.000 OA
ENDBRANCH   1   2
BRANCH   1  13
ATOM     13  C   UNL     1       6.935   4.498  17.821  0.00  0.00    +0.000 C 
ATOM     14  O   UNL     1       6.956   4.917  18.973  0.00  0.00    +0.000 OA
BRANCH  13  15
ATOM     15  O   UNL     1       8.091   4.182  17.188  0.00  0.00    +0.000 OA
ATOM     16  H   UNL     1       8.848   4.795  17.365  0.00  0.00    +0.000 HD
ENDBRANCH  13  15
ENDBRANCH   1  13
BRANCH   1  17
ATOM     17  C   UNL     1       5.514   5.527  15.992  0.00  0.00    +0.000 C 
BRANCH  17  18
ATOM     18  C   UNL     1       5.507   5.226  14.488  0.00  0.00    +0.000 C 
BRANCH  18  20
ATOM     19  O   UNL     1       7.905   5.220  14.168  0.00  0.00    +0.000 OA
ATOM     20  C   UNL     1       6.817   4.696  13.978  0.00  0.00    +0.000 C 
BRANCH  20  21
ATOM     21  O   UNL     1       6.670   3.560  13.258  0.00  0.00    +0.000 OA
ATOM     22  H   UNL     1       7.157   2.797  13.622  0.00  0.00    +0.000 HD
ENDBRANCH  20  21
ENDBRANCH  18  20
ENDBRANCH  17  18
ENDBRANCH   1  17
TORSDOF 7
ENDMDL
