MODEL 1
REMARK VINA RESULT:      -6.8      0.000      0.000
REMARK  Name = 
REMARK  5 active torsions:
REMARK  status: ('A' for Active; 'I' for Inactive)
REMARK    1  A    between atoms: C_1  and  C_2
REMARK    2  A    between atoms: C_2  and  C_3
REMARK    3  A    between atoms: C_3  and  C_4
REMARK    4  A    between atoms: C_7  and  C_8
REMARK    5  A    between atoms: N_12  and  C_13
REMARK                            x       y       z     vdW  Elec       q    Type
REMARK                         _______ _______ _______ _____ _____    ______ ____
ROOT
ATOM      1  C   UNL     1       6.830   4.433  13.541  0.00  0.00    +0.000 A 
ATOM      2  N   UNL     1       7.582   5.472  13.911  0.00  0.00    +0.000 NA
ATOM      3  O   UNL     1       7.243   5.631  15.264  0.00  0.00    +0.000 OA
ATOM      4  C   UNL     1       6.313   4.656  15.579  0.00  0.00    +0.000 A 
ATOM      5  N   UNL     1       6.071   3.889  14.530  0.00  0.00    +0.000 NA
ENDROOT
BRANCH   4   6
ATOM      6  C   UNL     1       5.672   4.489  16.853  0.00  0.00    +0.000 C 
ATOM      7  C   UNL     1       6.231   5.055  17.938  0.00  0.00    +0.000 C 
ATOM      8  C   UNL     1       5.566   5.054  19.278  0.00  0.00    +0.000 C 
ATOM      9  C   UNL     1       4.247   4.268  19.384  0.00  0.00    +0.000 C 
ATOM     10  N   UNL     1       3.536   3.920  18.157  0.00  0.00    +0.000 NA
ATOM     11  C   UNL     1       2.312   4.670  17.930  0.00  0.00    +0.000 C 
ATOM     12  C   UNL     1       4.347   3.759  16.952  0.00  0.00    +0.000 C 
ENDBRANCH   4   6
BRANCH   1  13
ATOM     13  C   UNL     1       6.764   3.914  12.155  0.00  0.00    +0.000 C 
BRANCH  13  15
ATOM     14  C   UNL     1       4.462   3.205  11.441  0.00  0.00    +0.000 C 
ATOM     15  C   UNL     1       5.788   2.749  12.024  0.00  0.00    +0.000 C 
ENDBRANCH  13  15
ENDBRANCH   1  13
TORSDOF 3
ENDMDL
MODEL 2
REMARK VINA RESULT:      -6.7      1.184      1.340
REMARK  Name = 
REMARK  5 active torsions:
REMARK  status: ('A' for Active; 'I' for Inactive)
REMARK    1  A    between atoms: C_1  and  C_2
REMARK    2  A    between atoms: C_2  and  C_3
REMARK    3  A    between atoms: C_3  and  C_4
REMARK    4  A    between atoms: C_7  and  C_8
REMARK    5  A    between atoms: N_12  and  C_13
REMARK                            x       y       z     vdW  Elec       q    Type
REMARK                         _______ _______ _______ _____ _____    ______ ____
ROOT
ATOM      1  C   UNL     1       6.660   4.539  13.679  0.00  0.00    +0.000 A 
ATOM      2  N   UNL     1       7.676   5.227  14.204  0.00  0.00    +0.000 NA
ATOM      3  O   UNL     1       7.146   5.676  15.424  0.00  0.00    +0.000 OA
ATOM      4  C   UNL     1       5.849   5.201  15.515  0.00  0.00    +0.000 A 
ATOM      5  N   UNL     1       5.546   4.470  14.456  0.00  0.00    +0.000 NA
ENDROOT
BRANCH   4   6
ATOM      6  C   UNL     1       4.933   5.463  16.590  0.00  0.00    +0.000 C 
ATOM      7  C   UNL     1       4.582   6.737  16.843  0.00  0.00    +0.000 C 
ATOM      8  C   UNL     1       3.532   7.096  17.847  0.00  0.00    +0.000 C 
ATOM      9  C   UNL     1       2.945   5.933  18.665  0.00  0.00    +0.000 C 
ATOM     10  N   UNL     1       3.128   4.569  18.178  0.00  0.00    +0.000 NA
ATOM     11  C   UNL     1       1.926   3.945  17.651  0.00  0.00    +0.000 C 
ATOM     12  C   UNL     1       4.315   4.316  17.364  0.00  0.00    +0.000 C 
ENDBRANCH   4   6
BRANCH   1  13
ATOM     13  C   UNL     1       6.690   3.921  12.332  0.00  0.00    +0.000 C 
BRANCH  13  15
ATOM     14  C   UNL     1       4.442   3.305  11.395  0.00  0.00    +0.000 C 
ATOM     15  C   UNL     1       5.647   2.819  12.182  0.00  0.00    +0.000 C 
ENDBRANCH  13  15
ENDBRANCH   1  13
TORSDOF 3
ENDMDL
MODEL 3
REMARK VINA RESULT:      -6.6      1.895      2.560
REMARK  Name = 
REMARK  5 active torsions:
REMARK  status: ('A' for Active; 'I' for Inactive)
REMARK    1  A    between atoms: C_1  and  C_2
REMARK    2  A    between atoms: C_2  and  C_3
REMARK    3  A    between atoms: C_3  and  C_4
REMARK    4  A    between atoms: C_7  and  C_8
REMARK    5  A    between atoms: N_12  and  C_13
REMARK                            x       y       z     vdW  Elec       q    Type
REMARK                         _______ _______ _______ _____ _____    ______ ____
ROOT
ATOM      1  C   UNL     1       6.811   4.535  16.035  0.00  0.00    +0.000 A 
ATOM      2  N   UNL     1       7.813   4.451  16.913  0.00  0.00    +0.000 NA
ATOM      3  O   UNL     1       7.140   4.366  18.142  0.00  0.00    +0.000 OA
ATOM      4  C   UNL     1       5.782   4.402  17.877  0.00  0.00    +0.000 A 
ATOM      5  N   UNL     1       5.564   4.475  16.576  0.00  0.00    +0.000 NA
ENDROOT
BRANCH   4   6
ATOM      6  C   UNL     1       4.735   4.381  18.860  0.00  0.00    +0.000 C 
ATOM      7  C   UNL     1       4.080   5.524  19.132  0.00  0.00    +0.000 C 
ATOM      8  C   UNL     1       2.888   5.572  20.034  0.00  0.00    +0.000 C 
ATOM      9  C   UNL     1       2.508   4.255  20.733  0.00  0.00    +0.000 C 
ATOM     10  N   UNL     1       3.042   3.002  20.208  0.00  0.00    +0.000 NA
ATOM     11  C   UNL     1       2.068   2.163  19.530  0.00  0.00    +0.000 C 
ATOM     12  C   UNL     1       4.325   3.076  19.513  0.00  0.00    +0.000 C 
ENDBRANCH   4   6
BRANCH   1  13
ATOM     13  C   UNL     1       7.003   4.726  14.579  0.00  0.00    +0.000 C 
BRANCH  13  15
ATOM     14  C   UNL     1       6.534   3.587  12.389  0.00  0.00    +0.000 C 
ATOM     15  C   UNL     1       5.981   3.947  13.757  0.00  0.00    +0.000 C 
ENDBRANCH  13  15
ENDBRANCH   1  13
TORSDOF 3
ENDMDL
MODEL 4
REMARK VINA RESULT:      -6.6      2.326      3.540
REMARK  Name = 
REMARK  5 active torsions:
REMARK  status: ('A' for Active; 'I' for Inactive)
REMARK    1  A    between atoms: C_1  and  C_2
REMARK    2  A    between atoms: C_2  and  C_3
REMARK    3  A    between atoms: C_3  and  C_4
REMARK    4  A    between atoms: C_7  and  C_8
REMARK    5  A    between atoms: N_12  and  C_13
REMARK                            x       y       z     vdW  Elec       q    Type
REMARK                         _______ _______ _______ _____ _____    ______ ____
ROOT
ATOM      1  C   UNL     1       6.417   4.691  17.208  0.00  0.00    +0.000 A 
ATOM      2  N   UNL     1       7.188   4.551  18.288  0.00  0.00    +0.000 NA
ATOM      3  O   UNL     1       6.251   4.311  19.306  0.00  0.00    +0.000 OA
ATOM      4  C   UNL     1       4.994   4.323  18.727  0.00  0.00    +0.000 A 
ATOM      5  N   UNL     1       5.084   4.527  17.424  0.00  0.00    +0.000 NA
ENDROOT
BRANCH   4   6
ATOM      6  C   UNL     1       3.748   4.158  19.423  0.00  0.00    +0.000 C 
ATOM      7  C   UNL     1       3.142   5.247  19.930  0.00  0.00    +0.000 C 
ATOM      8  C   UNL     1       1.780   5.193  20.547  0.00  0.00    +0.000 C 
ATOM      9  C   UNL     1       1.144   3.798  20.675  0.00  0.00    +0.000 C 
ATOM     10  N   UNL     1       1.683   2.704  19.873  0.00  0.00    +0.000 NA
ATOM     11  C   UNL     1       0.830   2.275  18.778  0.00  0.00    +0.000 C 
ATOM     12  C   UNL     1       3.095   2.793  19.506  0.00  0.00    +0.000 C 
ENDBRANCH   4   6
BRANCH   1  13
ATOM     13  C   UNL     1       6.934   5.044  15.865  0.00  0.00    +0.000 C 
BRANCH  13  15
ATOM     14  C   UNL     1       6.035   3.870  13.834  0.00  0.00    +0.000 C 
ATOM     15  C   UNL     1       5.839   5.023  14.804  0.00  0.00    +0.000 C 
ENDBRANCH  13  15
ENDBRANCH   1  13
TORSDOF 3
ENDMDL
MODEL 5
REMARK VINA RESULT:      -6.5      2.527      6.264
REMARK  Name = 
REMARK  5 active torsions:
REMARK  status: ('A' for Active; 'I' for Inactive)
REMARK    1  A    between atoms: C_1  and  C_2
REMARK    2  A    between atoms: C_2  and  C_3
REMARK    3  A    between atoms: C_3  and  C_4
REMARK    4  A    between atoms: C_7  and  C_8
REMARK    5  A    between atoms: N_12  and  C_13
REMARK                            x       y       z     vdW  Elec       q    Type
REMARK                         _______ _______ _______ _____ _____    ______ ____
ROOT
ATOM      1  C   UNL     1       1.988   3.913  18.844  0.00  0.00    +0.000 A 
ATOM      2  N   UNL     1       1.449   3.263  17.811  0.00  0.00    +0.000 NA
ATOM      3  O   UNL     1       2.486   3.276  16.864  0.00  0.00    +0.000 OA
ATOM      4  C   UNL     1       3.561   3.938  17.432  0.00  0.00    +0.000 A 
ATOM      5  N   UNL     1       3.277   4.310  18.669  0.00  0.00    +0.000 NA
ENDROOT
BRANCH   4   6
ATOM      6  C   UNL     1       4.815   4.210  16.787  0.00  0.00    +0.000 C 
ATOM      7  C   UNL     1       4.867   4.196  15.443  0.00  0.00    +0.000 C 
ATOM      8  C   UNL     1       6.089   4.602  14.681  0.00  0.00    +0.000 C 
ATOM      9  C   UNL     1       7.334   4.935  15.520  0.00  0.00    +0.000 C 
ATOM     10  N   UNL     1       7.169   5.218  16.943  0.00  0.00    +0.000 NA
ATOM     11  C   UNL     1       7.352   6.611  17.311  0.00  0.00    +0.000 C 
ATOM     12  C   UNL     1       6.031   4.588  17.609  0.00  0.00    +0.000 C 
ENDBRANCH   4   6
BRANCH   1  13
ATOM     13  C   UNL     1       1.252   4.239  20.088  0.00  0.00    +0.000 C 
BRANCH  13  15
ATOM     14  C   UNL     1       2.409   2.689  21.692  0.00  0.00    +0.000 C 
ATOM     15  C   UNL     1       1.099   3.026  21.000  0.00  0.00    +0.000 C 
ENDBRANCH  13  15
ENDBRANCH   1  13
TORSDOF 3
ENDMDL
MODEL 6
REMARK VINA RESULT:      -6.5      2.254      3.602
REMARK  Name = 
REMARK  5 active torsions:
REMARK  status: ('A' for Active; 'I' for Inactive)
REMARK    1  A    between atoms: C_1  and  C_2
REMARK    2  A    between atoms: C_2  and  C_3
REMARK    3  A    between atoms: C_3  and  C_4
REMARK    4  A    between atoms: C_7  and  C_8
REMARK    5  A    between atoms: N_12  and  C_13
REMARK                            x       y       z     vdW  Elec       q    Type
REMARK                         _______ _______ _______ _____ _____    ______ ____
ROOT
ATOM      1  C   UNL     1       6.449   4.439  16.891  0.00  0.00    +0.000 A 
ATOM      2  N   UNL     1       7.034   4.471  18.090  0.00  0.00    +0.000 NA
ATOM      3  O   UNL     1       5.952   4.289  18.965  0.00  0.00    +0.000 OA
ATOM      4  C   UNL     1       4.810   4.158  18.195  0.00  0.00    +0.000 A 
ATOM      5  N   UNL     1       5.107   4.217  16.909  0.00  0.00    +0.000 NA
ENDROOT
BRANCH   4   6
ATOM      6  C   UNL     1       3.474   3.995  18.697  0.00  0.00    +0.000 C 
ATOM      7  C   UNL     1       2.571   3.351  17.935  0.00  0.00    +0.000 C 
ATOM      8  C   UNL     1       1.200   3.012  18.428  0.00  0.00    +0.000 C 
ATOM      9  C   UNL     1       0.828   3.537  19.825  0.00  0.00    +0.000 C 
ATOM     10  N   UNL     1       1.897   3.968  20.721  0.00  0.00    +0.000 NA
ATOM     11  C   UNL     1       2.149   3.076  21.840  0.00  0.00    +0.000 C 
ATOM     12  C   UNL     1       3.119   4.466  20.093  0.00  0.00    +0.000 C 
ENDBRANCH   4   6
BRANCH   1  13
ATOM     13  C   UNL     1       7.168   4.670  15.615  0.00  0.00    +0.000 C 
BRANCH  13  15
ATOM     14  C   UNL     1       6.249   3.816  13.438  0.00  0.00    +0.000 C 
ATOM     15  C   UNL     1       6.211   4.941  14.459  0.00  0.00    +0.000 C 
ENDBRANCH  13  15
ENDBRANCH   1  13
TORSDOF 3
ENDMDL
MODEL 7
REMARK VINA RESULT:      -6.4      4.061      5.002
REMARK  Name = 
REMARK  5 active torsions:
REMARK  status: ('A' for Active; 'I' for Inactive)
REMARK    1  A    between atoms: C_1  and  C_2
REMARK    2  A    between atoms: C_2  and  C_3
REMARK    3  A    between atoms: C_3  and  C_4
REMARK    4  A    between atoms: C_7  and  C_8
REMARK    5  A    between atoms: N_12  and  C_13
REMARK                            x       y       z     vdW  Elec       q    Type
REMARK                         _______ _______ _______ _____ _____    ______ ____
ROOT
ATOM      1  C   UNL     1       6.438   5.874  18.049  0.00  0.00    +0.000 A 
ATOM      2  N   UNL     1       7.108   4.821  18.522  0.00  0.00    +0.000 NA
ATOM      3  O   UNL     1       6.111   4.097  19.194  0.00  0.00    +0.000 OA
ATOM      4  C   UNL     1       4.922   4.793  19.051  0.00  0.00    +0.000 A 
ATOM      5  N   UNL     1       5.105   5.879  18.319  0.00  0.00    +0.000 NA
ENDROOT
BRANCH   4   6
ATOM      6  C   UNL     1       3.658   4.420  19.622  0.00  0.00    +0.000 C 
ATOM      7  C   UNL     1       2.851   5.388  20.093  0.00  0.00    +0.000 C 
ATOM      8  C   UNL     1       1.462   5.111  20.576  0.00  0.00    +0.000 C 
ATOM      9  C   UNL     1       1.035   3.633  20.612  0.00  0.00    +0.000 C 
ATOM     10  N   UNL     1       1.804   2.660  19.842  0.00  0.00    +0.000 NA
ATOM     11  C   UNL     1       1.129   2.149  18.661  0.00  0.00    +0.000 C 
ATOM     12  C   UNL     1       3.214   2.971  19.612  0.00  0.00    +0.000 C 
ENDBRANCH   4   6
BRANCH   1  13
ATOM     13  C   UNL     1       7.073   6.998  17.321  0.00  0.00    +0.000 C 
BRANCH  13  15
ATOM     14  C   UNL     1       8.160   9.179  17.933  0.00  0.00    +0.000 C 
ATOM     15  C   UNL     1       8.162   7.675  18.147  0.00  0.00    +0.000 C 
ENDBRANCH  13  15
ENDBRANCH   1  13
TORSDOF 3
ENDMDL
MODEL 8
REMARK VINA RESULT:      -6.4      3.335      4.769
REMARK  Name = 
REMARK  5 active torsions:
REMARK  status: ('A' for Active; 'I' for Inactive)
REMARK    1  A    between atoms: C_1  and  C_2
REMARK    2  A    between atoms: C_2  and  C_3
REMARK    3  A    between atoms: C_3  and  C_4
REMARK    4  A    between atoms: C_7  and  C_8
REMARK    5  A    between atoms: N_12  and  C_13
REMARK                            x       y       z     vdW  Elec       q    Type
REMARK                         _______ _______ _______ _____ _____    ______ ____
ROOT
ATOM      1  C   UNL     1       6.474   6.481  17.352  0.00  0.00    +0.000 A 
ATOM      2  N   UNL     1       6.246   6.438  16.038  0.00  0.00    +0.000 NA
ATOM      3  O   UNL     1       5.061   5.690  15.955  0.00  0.00    +0.000 OA
ATOM      4  C   UNL     1       4.686   5.359  17.246  0.00  0.00    +0.000 A 
ATOM      5  N   UNL     1       5.535   5.867  18.122  0.00  0.00    +0.000 NA
ENDROOT
BRANCH   4   6
ATOM      6  C   UNL     1       3.548   4.561  17.610  0.00  0.00    +0.000 C 
ATOM      7  C   UNL     1       3.559   3.248  17.318  0.00  0.00    +0.000 C 
ATOM      8  C   UNL     1       2.486   2.313  17.780  0.00  0.00    +0.000 C 
ATOM      9  C   UNL     1       1.298   2.952  18.519  0.00  0.00    +0.000 C 
ATOM     10  N   UNL     1       1.450   4.298  19.063  0.00  0.00    +0.000 NA
ATOM     11  C   UNL     1       1.544   4.362  20.512  0.00  0.00    +0.000 C 
ATOM     12  C   UNL     1       2.399   5.177  18.383  0.00  0.00    +0.000 C 
ENDBRANCH   4   6
BRANCH   1  13
ATOM     13  C   UNL     1       7.675   7.100  17.962  0.00  0.00    +0.000 C 
BRANCH  13  15
ATOM     14  C   UNL     1       8.697   9.308  18.587  0.00  0.00    +0.000 C 
ATOM     15  C   UNL     1       7.808   8.575  17.598  0.00  0.00    +0.000 C 
ENDBRANCH  13  15
ENDBRANCH   1  13
TORSDOF 3
ENDMDL
MODEL 9
REMARK VINA RESULT:      -6.4      3.807      5.027
REMARK  Name = 
REMARK  5 active torsions:
REMARK  status: ('A' for Active; 'I' for Inactive)
REMARK    1  A    between atoms: C_1  and  C_2
REMARK    2  A    between atoms: C_2  and  C_3
REMARK    3  A    between atoms: C_3  and  C_4
REMARK    4  A    between atoms: C_7  and  C_8
REMARK    5  A    between atoms: N_12  and  C_13
REMARK                            x       y       z     vdW  Elec       q    Type
REMARK                         _______ _______ _______ _____ _____    ______ ____
ROOT
ATOM      1  C   UNL     1       6.815   6.066  17.966  0.00  0.00    +0.000 A 
ATOM      2  N   UNL     1       7.447   5.159  18.713  0.00  0.00    +0.000 NA
ATOM      3  O   UNL     1       6.413   4.280  19.073  0.00  0.00    +0.000 OA
ATOM      4  C   UNL     1       5.247   4.750  18.494  0.00  0.00    +0.000 A 
ATOM      5  N   UNL     1       5.487   5.837  17.781  0.00  0.00    +0.000 NA
ENDROOT
BRANCH   4   6
ATOM      6  C   UNL     1       3.943   4.167  18.643  0.00  0.00    +0.000 C 
ATOM      7  C   UNL     1       3.583   3.167  17.818  0.00  0.00    +0.000 C 
ATOM      8  C   UNL     1       2.305   2.408  17.985  0.00  0.00    +0.000 C 
ATOM      9  C   UNL     1       1.358   2.902  19.093  0.00  0.00    +0.000 C 
ATOM     10  N   UNL     1       1.890   3.778  20.133  0.00  0.00    +0.000 NA
ATOM     11  C   UNL     1       2.034   3.155  21.438  0.00  0.00    +0.000 C 
ATOM     12  C   UNL     1       3.029   4.617  19.765  0.00  0.00    +0.000 C 
ENDBRANCH   4   6
BRANCH   1  13
ATOM     13  C   UNL     1       7.467   7.271  17.403  0.00  0.00    +0.000 C 
BRANCH  13  15
ATOM     14  C   UNL     1       8.414   9.484  18.123  0.00  0.00    +0.000 C 
ATOM     15  C   UNL     1       8.316   8.001  18.438  0.00  0.00    +0.000 C 
ENDBRANCH  13  15
ENDBRANCH   1  13
TORSDOF 3
ENDMDL
