MODEL 1
REMARK VINA RESULT:      -8.7      0.000      0.000
REMARK  Name = 
REMARK  6 active torsions:
REMARK  status: ('A' for Active; 'I' for Inactive)
REMARK    1  A    between atoms: C_2  and  C_28
REMARK    2  A    between atoms: N_3  and  C_4
REMARK    3  A    between atoms: C_7  and  C_8
REMARK    4  A    between atoms: C_14  and  O_16
REMARK    5  A    between atoms: O_16  and  C_17
REMARK    6  A    between atoms: C_17  and  C_18
REMARK                            x       y       z     vdW  Elec       q    Type
REMARK                         _______ _______ _______ _____ _____    ______ ____
ROOT
ATOM      1  C   UNL     1       1.014   9.525  20.240  0.00  0.00    +0.000 A 
ATOM      2  C   UNL     1       1.063  10.771  19.614  0.00  0.00    +0.000 A 
ATOM      3  C   UNL     1       0.601  11.921  20.275  0.00  0.00    +0.000 A 
ATOM      4  C   UNL     1       0.084  11.855  21.579  0.00  0.00    +0.000 A 
ATOM      5  C   UNL     1      -0.050  10.596  22.169  0.00  0.00    +0.000 A 
ATOM      6  C   UNL     1       0.416   9.447  21.508  0.00  0.00    +0.000 A 
ENDROOT
BRANCH   4   7
ATOM      7  C   UNL     1      -0.415  13.121  22.200  0.00  0.00    +0.000 C 
ATOM      8  O   UNL     1       0.417  14.010  22.392  0.00  0.00    +0.000 OA
ATOM      9  N   UNL     1      -1.761  13.296  22.522  0.00  0.00    +0.000 N 
ATOM     10  C   UNL     1      -2.212  14.618  22.973  0.00  0.00    +0.000 C 
ATOM     11  C   UNL     1      -3.497  15.032  22.241  0.00  0.00    +0.000 C 
ATOM     12  N   UNL     1      -4.521  13.983  22.306  0.00  0.00    +0.000 N 
ATOM     13  C   UNL     1      -5.828  14.317  22.600  0.00  0.00    +0.000 C 
ATOM     14  O   UNL     1      -6.206  15.464  22.808  0.00  0.00    +0.000 OA
ATOM     15  C   UNL     1      -4.072  12.630  21.956  0.00  0.00    +0.000 C 
ATOM     16  C   UNL     1      -2.777  12.250  22.697  0.00  0.00    +0.000 C 
BRANCH  13  17
ATOM     17  O   UNL     1      -6.631  13.224  22.706  0.00  0.00    +0.000 OA
BRANCH  17  18
ATOM     18  C   UNL     1      -7.777  13.214  21.848  0.00  0.00    +0.000 C 
BRANCH  18  19
ATOM     19  C   UNL     1      -7.503  12.495  20.554  0.00  0.00    +0.000 A 
ATOM     20  C   UNL     1      -7.503  13.187  19.336  0.00  0.00    +0.000 A 
ATOM     21  C   UNL     1      -7.187  12.528  18.145  0.00  0.00    +0.000 A 
ATOM     22  C   UNL     1      -6.877  11.169  18.162  0.00  0.00    +0.000 A 
ATOM     23  C   UNL     1      -6.891  10.467  19.366  0.00  0.00    +0.000 A 
ATOM     24  C   UNL     1      -7.209  11.124  20.556  0.00  0.00    +0.000 A 
ENDBRANCH  18  19
ENDBRANCH  17  18
ENDBRANCH  13  17
ENDBRANCH   4   7
BRANCH   1  27
ATOM     25  O   UNL     1       2.251   8.995  17.542  0.00  0.00    +0.000 OA
ATOM     26  C   UNL     1       2.140   8.157  18.429  0.00  0.00    +0.000 C 
ATOM     27  N   UNL     1       1.539   8.347  19.674  0.00  0.00    +0.000 N 
ATOM     28  H   UNL     1       1.611   7.522  20.267  0.00  0.00    +0.000 HD
BRANCH  26  29
ATOM     29  C   UNL     1       2.704   6.786  18.311  0.00  0.00    +0.000 A 
ATOM     30  N   UNL     1       2.232   5.812  19.126  0.00  0.00    +0.000 NA
ATOM     31  N   UNL     1       2.946   4.728  18.792  0.00  0.00    +0.000 N 
ATOM     32  C   UNL     1       3.864   4.931  17.800  0.00  0.00    +0.000 A 
ATOM     33  C   UNL     1       4.768   4.048  17.206  0.00  0.00    +0.000 A 
ATOM     34  C   UNL     1       5.625   4.562  16.233  0.00  0.00    +0.000 A 
ATOM     35  C   UNL     1       5.570   5.913  15.882  0.00  0.00    +0.000 A 
ATOM     36  C   UNL     1       4.637   6.781  16.481  0.00  0.00    +0.000 A 
ATOM     37  C   UNL     1       3.756   6.283  17.467  0.00  0.00    +0.000 A 
ATOM     38  H   UNL     1       2.779   3.867  19.295  0.00  0.00    +0.000 HD
ENDBRANCH  26  29
ENDBRANCH   1  27
TORSDOF 6
ENDMDL
MODEL 2
REMARK VINA RESULT:      -8.6      4.021      6.335
REMARK  Name = 
REMARK  6 active torsions:
REMARK  status: ('A' for Active; 'I' for Inactive)
REMARK    1  A    between atoms: C_2  and  C_28
REMARK    2  A    between atoms: N_3  and  C_4
REMARK    3  A    between atoms: C_7  and  C_8
REMARK    4  A    between atoms: C_14  and  O_16
REMARK    5  A    between atoms: O_16  and  C_17
REMARK    6  A    between atoms: C_17  and  C_18
REMARK                            x       y       z     vdW  Elec       q    Type
REMARK                         _______ _______ _______ _____ _____    ______ ____
ROOT
ATOM      1  C   UNL     1       3.797   7.091  17.851  0.00  0.00    +0.000 A 
ATOM      2  C   UNL     1       3.381   6.452  19.019  0.00  0.00    +0.000 A 
ATOM      3  C   UNL     1       2.352   6.998  19.805  0.00  0.00    +0.000 A 
ATOM      4  C   UNL     1       1.711   8.192  19.439  0.00  0.00    +0.000 A 
ATOM      5  C   UNL     1       2.189   8.879  18.320  0.00  0.00    +0.000 A 
ATOM      6  C   UNL     1       3.216   8.330  17.533  0.00  0.00    +0.000 A 
ENDROOT
BRANCH   4   7
ATOM      7  C   UNL     1       0.645   8.722  20.345  0.00  0.00    +0.000 C 
ATOM      8  O   UNL     1       0.184   7.937  21.176  0.00  0.00    +0.000 OA
ATOM      9  N   UNL     1       0.213  10.047  20.270  0.00  0.00    +0.000 N 
ATOM     10  C   UNL     1      -0.712  10.546  21.294  0.00  0.00    +0.000 C 
ATOM     11  C   UNL     1      -0.247  11.910  21.825  0.00  0.00    +0.000 C 
ATOM     12  N   UNL     1       0.023  12.854  20.736  0.00  0.00    +0.000 N 
ATOM     13  C   UNL     1      -0.438  14.153  20.821  0.00  0.00    +0.000 C 
ATOM     14  O   UNL     1      -1.070  14.587  21.777  0.00  0.00    +0.000 OA
ATOM     15  C   UNL     1       0.866  12.346  19.646  0.00  0.00    +0.000 C 
ATOM     16  C   UNL     1       0.382  10.974  19.143  0.00  0.00    +0.000 C 
BRANCH  13  17
ATOM     17  O   UNL     1      -0.178  14.870  19.696  0.00  0.00    +0.000 OA
BRANCH  17  18
ATOM     18  C   UNL     1      -0.191  16.293  19.854  0.00  0.00    +0.000 C 
BRANCH  18  19
ATOM     19  C   UNL     1       0.231  17.002  18.594  0.00  0.00    +0.000 A 
ATOM     20  C   UNL     1      -0.696  17.734  17.840  0.00  0.00    +0.000 A 
ATOM     21  C   UNL     1      -0.287  18.441  16.707  0.00  0.00    +0.000 A 
ATOM     22  C   UNL     1       1.050  18.413  16.313  0.00  0.00    +0.000 A 
ATOM     23  C   UNL     1       1.976  17.674  17.045  0.00  0.00    +0.000 A 
ATOM     24  C   UNL     1       1.569  16.965  18.177  0.00  0.00    +0.000 A 
ENDBRANCH  18  19
ENDBRANCH  17  18
ENDBRANCH  13  17
ENDBRANCH   4   7
BRANCH   1  27
ATOM     25  O   UNL     1       4.389   4.249  17.036  0.00  0.00    +0.000 OA
ATOM     26  C   UNL     1       4.972   5.232  16.593  0.00  0.00    +0.000 C 
ATOM     27  N   UNL     1       4.759   6.558  16.971  0.00  0.00    +0.000 N 
ATOM     28  H   UNL     1       5.324   7.209  16.428  0.00  0.00    +0.000 HD
BRANCH  26  29
ATOM     29  C   UNL     1       5.985   5.140  15.509  0.00  0.00    +0.000 A 
ATOM     30  N   UNL     1       7.161   5.797  15.654  0.00  0.00    +0.000 NA
ATOM     31  N   UNL     1       7.826   5.538  14.521  0.00  0.00    +0.000 N 
ATOM     32  C   UNL     1       7.156   4.745  13.632  0.00  0.00    +0.000 A 
ATOM     33  C   UNL     1       7.531   4.277  12.372  0.00  0.00    +0.000 A 
ATOM     34  C   UNL     1       6.604   3.509  11.668  0.00  0.00    +0.000 A 
ATOM     35  C   UNL     1       5.350   3.232  12.218  0.00  0.00    +0.000 A 
ATOM     36  C   UNL     1       5.000   3.699  13.499  0.00  0.00    +0.000 A 
ATOM     37  C   UNL     1       5.924   4.476  14.233  0.00  0.00    +0.000 A 
ATOM     38  H   UNL     1       8.740   5.952  14.393  0.00  0.00    +0.000 HD
ENDBRANCH  26  29
ENDBRANCH   1  27
TORSDOF 6
ENDMDL
MODEL 3
REMARK VINA RESULT:      -8.6      3.828      5.954
REMARK  Name = 
REMARK  6 active torsions:
REMARK  status: ('A' for Active; 'I' for Inactive)
REMARK    1  A    between atoms: C_2  and  C_28
REMARK    2  A    between atoms: N_3  and  C_4
REMARK    3  A    between atoms: C_7  and  C_8
REMARK    4  A    between atoms: C_14  and  O_16
REMARK    5  A    between atoms: O_16  and  C_17
REMARK    6  A    between atoms: C_17  and  C_18
REMARK                            x       y       z     vdW  Elec       q    Type
REMARK                         _______ _______ _______ _____ _____    ______ ____
ROOT
ATOM      1  C   UNL     1       3.193   7.388  18.279  0.00  0.00    +0.000 A 
ATOM      2  C   UNL     1       2.458   8.509  17.896  0.00  0.00    +0.000 A 
ATOM      3  C   UNL     1       1.496   9.062  18.757  0.00  0.00    +0.000 A 
ATOM      4  C   UNL     1       1.249   8.510  20.025  0.00  0.00    +0.000 A 
ATOM      5  C   UNL     1       1.919   7.334  20.371  0.00  0.00    +0.000 A 
ATOM      6  C   UNL     1       2.884   6.785  19.510  0.00  0.00    +0.000 A 
ENDROOT
BRANCH   4   7
ATOM      7  C   UNL     1       0.187   9.140  20.869  0.00  0.00    +0.000 C 
ATOM      8  O   UNL     1      -0.324   8.430  21.738  0.00  0.00    +0.000 OA
ATOM      9  N   UNL     1      -0.189  10.473  20.698  0.00  0.00    +0.000 N 
ATOM     10  C   UNL     1      -1.115  11.074  21.665  0.00  0.00    +0.000 C 
ATOM     11  C   UNL     1      -0.607  12.450  22.119  0.00  0.00    +0.000 C 
ATOM     12  N   UNL     1      -0.274  13.309  20.977  0.00  0.00    +0.000 N 
ATOM     13  C   UNL     1      -0.684  14.628  20.968  0.00  0.00    +0.000 C 
ATOM     14  O   UNL     1      -1.318  15.149  21.878  0.00  0.00    +0.000 OA
ATOM     15  C   UNL     1       0.571  12.699  19.943  0.00  0.00    +0.000 C 
ATOM     16  C   UNL     1       0.042  11.317  19.519  0.00  0.00    +0.000 C 
BRANCH  13  17
ATOM     17  O   UNL     1      -0.371  15.260  19.805  0.00  0.00    +0.000 OA
BRANCH  17  18
ATOM     18  C   UNL     1       0.083  16.611  19.940  0.00  0.00    +0.000 C 
BRANCH  18  19
ATOM     19  C   UNL     1       0.340  17.252  18.601  0.00  0.00    +0.000 A 
ATOM     20  C   UNL     1      -0.668  17.972  17.946  0.00  0.00    +0.000 A 
ATOM     21  C   UNL     1      -0.405  18.618  16.736  0.00  0.00    +0.000 A 
ATOM     22  C   UNL     1       0.864  18.540  16.165  0.00  0.00    +0.000 A 
ATOM     23  C   UNL     1       1.869  17.812  16.799  0.00  0.00    +0.000 A 
ATOM     24  C   UNL     1       1.608  17.164  18.008  0.00  0.00    +0.000 A 
ENDBRANCH  18  19
ENDBRANCH  17  18
ENDBRANCH  13  17
ENDBRANCH   4   7
BRANCH   1  27
ATOM     25  O   UNL     1       3.565   4.625  17.133  0.00  0.00    +0.000 OA
ATOM     26  C   UNL     1       4.344   5.555  16.962  0.00  0.00    +0.000 C 
ATOM     27  N   UNL     1       4.233   6.835  17.506  0.00  0.00    +0.000 N 
ATOM     28  H   UNL     1       4.971   7.457  17.181  0.00  0.00    +0.000 HD
BRANCH  26  29
ATOM     29  C   UNL     1       5.529   5.453  16.071  0.00  0.00    +0.000 A 
ATOM     30  N   UNL     1       6.678   6.070  16.436  0.00  0.00    +0.000 NA
ATOM     31  N   UNL     1       7.525   5.813  15.431  0.00  0.00    +0.000 N 
ATOM     32  C   UNL     1       7.001   5.058  14.420  0.00  0.00    +0.000 A 
ATOM     33  C   UNL     1       7.579   4.602  13.233  0.00  0.00    +0.000 A 
ATOM     34  C   UNL     1       6.770   3.877  12.360  0.00  0.00    +0.000 A 
ATOM     35  C   UNL     1       5.432   3.629  12.674  0.00  0.00    +0.000 A 
ATOM     36  C   UNL     1       4.874   4.081  13.885  0.00  0.00    +0.000 A 
ATOM     37  C   UNL     1       5.675   4.815  14.789  0.00  0.00    +0.000 A 
ATOM     38  H   UNL     1       8.458   6.200  15.475  0.00  0.00    +0.000 HD
ENDBRANCH  26  29
ENDBRANCH   1  27
TORSDOF 6
ENDMDL
MODEL 4
REMARK VINA RESULT:      -8.6      5.054     11.467
REMARK  Name = 
REMARK  6 active torsions:
REMARK  status: ('A' for Active; 'I' for Inactive)
REMARK    1  A    between atoms: C_2  and  C_28
REMARK    2  A    between atoms: N_3  and  C_4
REMARK    3  A    between atoms: C_7  and  C_8
REMARK    4  A    between atoms: C_14  and  O_16
REMARK    5  A    between atoms: O_16  and  C_17
REMARK    6  A    between atoms: C_17  and  C_18
REMARK                            x       y       z     vdW  Elec       q    Type
REMARK                         _______ _______ _______ _____ _____    ______ ____
ROOT
ATOM      1  C   UNL     1       1.220  12.124  19.442  0.00  0.00    +0.000 A 
ATOM      2  C   UNL     1       1.002  11.761  20.771  0.00  0.00    +0.000 A 
ATOM      3  C   UNL     1       1.006  10.409  21.153  0.00  0.00    +0.000 A 
ATOM      4  C   UNL     1       1.233   9.388  20.217  0.00  0.00    +0.000 A 
ATOM      5  C   UNL     1       1.359   9.744  18.872  0.00  0.00    +0.000 A 
ATOM      6  C   UNL     1       1.359  11.098  18.492  0.00  0.00    +0.000 A 
ENDROOT
BRANCH   4   7
ATOM      7  C   UNL     1       1.191   7.973  20.700  0.00  0.00    +0.000 C 
ATOM      8  O   UNL     1       0.477   7.741  21.678  0.00  0.00    +0.000 OA
ATOM      9  N   UNL     1       1.904   6.959  20.059  0.00  0.00    +0.000 N 
ATOM     10  C   UNL     1       1.688   5.570  20.479  0.00  0.00    +0.000 C 
ATOM     11  C   UNL     1       1.492   4.658  19.259  0.00  0.00    +0.000 C 
ATOM     12  N   UNL     1       2.560   4.837  18.270  0.00  0.00    +0.000 N 
ATOM     13  C   UNL     1       3.149   3.733  17.687  0.00  0.00    +0.000 C 
ATOM     14  O   UNL     1       2.826   2.577  17.940  0.00  0.00    +0.000 OA
ATOM     15  C   UNL     1       2.865   6.226  17.904  0.00  0.00    +0.000 C 
ATOM     16  C   UNL     1       3.046   7.116  19.147  0.00  0.00    +0.000 C 
BRANCH  13  17
ATOM     17  O   UNL     1       4.175   4.068  16.860  0.00  0.00    +0.000 OA
BRANCH  17  18
ATOM     18  C   UNL     1       5.486   3.774  17.355  0.00  0.00    +0.000 C 
BRANCH  18  19
ATOM     19  C   UNL     1       6.275   5.027  17.631  0.00  0.00    +0.000 A 
ATOM     20  C   UNL     1       7.170   5.087  18.708  0.00  0.00    +0.000 A 
ATOM     21  C   UNL     1       7.945   6.229  18.923  0.00  0.00    +0.000 A 
ATOM     22  C   UNL     1       7.824   7.324  18.069  0.00  0.00    +0.000 A 
ATOM     23  C   UNL     1       6.924   7.282  17.006  0.00  0.00    +0.000 A 
ATOM     24  C   UNL     1       6.148   6.142  16.791  0.00  0.00    +0.000 A 
ENDBRANCH  18  19
ENDBRANCH  17  18
ENDBRANCH  13  17
ENDBRANCH   4   7
BRANCH   1  27
ATOM     25  O   UNL     1       3.130  14.331  20.197  0.00  0.00    +0.000 OA
ATOM     26  C   UNL     1       2.247  14.438  19.354  0.00  0.00    +0.000 C 
ATOM     27  N   UNL     1       1.317  13.459  19.003  0.00  0.00    +0.000 N 
ATOM     28  H   UNL     1       0.713  13.756  18.239  0.00  0.00    +0.000 HD
BRANCH  26  29
ATOM     29  C   UNL     1       2.080  15.658  18.521  0.00  0.00    +0.000 A 
ATOM     30  N   UNL     1       3.139  16.117  17.812  0.00  0.00    +0.000 NA
ATOM     31  N   UNL     1       2.677  17.216  17.202  0.00  0.00    +0.000 N 
ATOM     32  C   UNL     1       1.368  17.510  17.467  0.00  0.00    +0.000 A 
ATOM     33  C   UNL     1       0.565  18.559  17.015  0.00  0.00    +0.000 A 
ATOM     34  C   UNL     1      -0.741  18.624  17.500  0.00  0.00    +0.000 A 
ATOM     35  C   UNL     1      -1.209  17.669  18.406  0.00  0.00    +0.000 A 
ATOM     36  C   UNL     1      -0.387  16.608  18.833  0.00  0.00    +0.000 A 
ATOM     37  C   UNL     1       0.939  16.519  18.352  0.00  0.00    +0.000 A 
ATOM     38  H   UNL     1       3.312  17.750  16.623  0.00  0.00    +0.000 HD
ENDBRANCH  26  29
ENDBRANCH   1  27
TORSDOF 6
ENDMDL
MODEL 5
REMARK VINA RESULT:      -8.5      3.451      5.851
REMARK  Name = 
REMARK  6 active torsions:
REMARK  status: ('A' for Active; 'I' for Inactive)
REMARK    1  A    between atoms: C_2  and  C_28
REMARK    2  A    between atoms: N_3  and  C_4
REMARK    3  A    between atoms: C_7  and  C_8
REMARK    4  A    between atoms: C_14  and  O_16
REMARK    5  A    between atoms: O_16  and  C_17
REMARK    6  A    between atoms: C_17  and  C_18
REMARK                            x       y       z     vdW  Elec       q    Type
REMARK                         _______ _______ _______ _____ _____    ______ ____
ROOT
ATOM      1  C   UNL     1       2.121   8.190  19.002  0.00  0.00    +0.000 A 
ATOM      2  C   UNL     1       1.538   8.495  20.232  0.00  0.00    +0.000 A 
ATOM      3  C   UNL     1       0.508   9.446  20.319  0.00  0.00    +0.000 A 
ATOM      4  C   UNL     1       0.033  10.113  19.177  0.00  0.00    +0.000 A 
ATOM      5  C   UNL     1       0.679   9.876  17.961  0.00  0.00    +0.000 A 
ATOM      6  C   UNL     1       1.707   8.921  17.876  0.00  0.00    +0.000 A 
ENDROOT
BRANCH   4   7
ATOM      7  C   UNL     1      -1.044  11.133  19.359  0.00  0.00    +0.000 C 
ATOM      8  O   UNL     1      -2.200  10.765  19.138  0.00  0.00    +0.000 OA
ATOM      9  N   UNL     1      -0.759  12.432  19.783  0.00  0.00    +0.000 N 
ATOM     10  C   UNL     1      -1.873  13.331  20.102  0.00  0.00    +0.000 C 
ATOM     11  C   UNL     1      -1.628  14.047  21.438  0.00  0.00    +0.000 C 
ATOM     12  N   UNL     1      -0.304  14.677  21.481  0.00  0.00    +0.000 N 
ATOM     13  C   UNL     1      -0.171  15.963  21.968  0.00  0.00    +0.000 C 
ATOM     14  O   UNL     1      -1.109  16.632  22.386  0.00  0.00    +0.000 OA
ATOM     15  C   UNL     1       0.821  13.828  21.072  0.00  0.00    +0.000 C 
ATOM     16  C   UNL     1       0.540  13.117  19.736  0.00  0.00    +0.000 C 
BRANCH  13  17
ATOM     17  O   UNL     1       1.102  16.429  21.860  0.00  0.00    +0.000 OA
BRANCH  17  18
ATOM     18  C   UNL     1       1.253  17.648  21.124  0.00  0.00    +0.000 C 
BRANCH  18  19
ATOM     19  C   UNL     1       1.817  17.407  19.749  0.00  0.00    +0.000 A 
ATOM     20  C   UNL     1       2.946  16.595  19.570  0.00  0.00    +0.000 A 
ATOM     21  C   UNL     1       3.427  16.324  18.287  0.00  0.00    +0.000 A 
ATOM     22  C   UNL     1       2.791  16.871  17.173  0.00  0.00    +0.000 A 
ATOM     23  C   UNL     1       1.679  17.694  17.341  0.00  0.00    +0.000 A 
ATOM     24  C   UNL     1       1.197  17.967  18.623  0.00  0.00    +0.000 A 
ENDBRANCH  18  19
ENDBRANCH  17  18
ENDBRANCH  13  17
ENDBRANCH   4   7
BRANCH   1  27
ATOM     25  O   UNL     1       1.873   5.192  18.811  0.00  0.00    +0.000 OA
ATOM     26  C   UNL     1       2.928   5.807  18.705  0.00  0.00    +0.000 C 
ATOM     27  N   UNL     1       3.095   7.187  18.827  0.00  0.00    +0.000 N 
ATOM     28  H   UNL     1       4.054   7.477  18.647  0.00  0.00    +0.000 HD
BRANCH  26  29
ATOM     29  C   UNL     1       4.212   5.141  18.363  0.00  0.00    +0.000 A 
ATOM     30  N   UNL     1       4.827   4.381  19.302  0.00  0.00    +0.000 NA
ATOM     31  N   UNL     1       5.944   3.954  18.701  0.00  0.00    +0.000 N 
ATOM     32  C   UNL     1       6.104   4.387  17.414  0.00  0.00    +0.000 A 
ATOM     33  C   UNL     1       7.129   4.147  16.497  0.00  0.00    +0.000 A 
ATOM     34  C   UNL     1       7.038   4.771  15.253  0.00  0.00    +0.000 A 
ATOM     35  C   UNL     1       5.958   5.606  14.956  0.00  0.00    +0.000 A 
ATOM     36  C   UNL     1       4.927   5.819  15.890  0.00  0.00    +0.000 A 
ATOM     37  C   UNL     1       4.994   5.194  17.155  0.00  0.00    +0.000 A 
ATOM     38  H   UNL     1       6.585   3.377  19.229  0.00  0.00    +0.000 HD
ENDBRANCH  26  29
ENDBRANCH   1  27
TORSDOF 6
ENDMDL
MODEL 6
REMARK VINA RESULT:      -8.5      1.616      2.105
REMARK  Name = 
REMARK  6 active torsions:
REMARK  status: ('A' for Active; 'I' for Inactive)
REMARK    1  A    between atoms: C_2  and  C_28
REMARK    2  A    between atoms: N_3  and  C_4
REMARK    3  A    between atoms: C_7  and  C_8
REMARK    4  A    between atoms: C_14  and  O_16
REMARK    5  A    between atoms: O_16  and  C_17
REMARK    6  A    between atoms: C_17  and  C_18
REMARK                            x       y       z     vdW  Elec       q    Type
REMARK                         _______ _______ _______ _____ _____    ______ ____
ROOT
ATOM      1  C   UNL     1       0.945   8.921  20.118  0.00  0.00    +0.000 A 
ATOM      2  C   UNL     1       0.308  10.000  19.507  0.00  0.00    +0.000 A 
ATOM      3  C   UNL     1      -0.361  10.966  20.278  0.00  0.00    +0.000 A 
ATOM      4  C   UNL     1      -0.404  10.878  21.679  0.00  0.00    +0.000 A 
ATOM      5  C   UNL     1       0.154   9.749  22.284  0.00  0.00    +0.000 A 
ATOM      6  C   UNL     1       0.826   8.786  21.512  0.00  0.00    +0.000 A 
ENDROOT
BRANCH   4   7
ATOM      7  C   UNL     1      -1.162  11.930  22.424  0.00  0.00    +0.000 C 
ATOM      8  O   UNL     1      -0.657  12.342  23.470  0.00  0.00    +0.000 OA
ATOM      9  N   UNL     1      -2.370  12.439  21.945  0.00  0.00    +0.000 N 
ATOM     10  C   UNL     1      -2.976  13.584  22.635  0.00  0.00    +0.000 C 
ATOM     11  C   UNL     1      -3.423  14.651  21.625  0.00  0.00    +0.000 C 
ATOM     12  N   UNL     1      -4.247  14.077  20.557  0.00  0.00    +0.000 N 
ATOM     13  C   UNL     1      -5.403  14.719  20.160  0.00  0.00    +0.000 C 
ATOM     14  O   UNL     1      -5.797  15.773  20.648  0.00  0.00    +0.000 OA
ATOM     15  C   UNL     1      -3.711  12.870  19.915  0.00  0.00    +0.000 C 
ATOM     16  C   UNL     1      -3.262  11.825  20.952  0.00  0.00    +0.000 C 
BRANCH  13  17
ATOM     17  O   UNL     1      -6.093  14.015  19.223  0.00  0.00    +0.000 OA
BRANCH  17  18
ATOM     18  C   UNL     1      -7.391  13.563  19.623  0.00  0.00    +0.000 C 
BRANCH  18  19
ATOM     19  C   UNL     1      -7.424  12.074  19.844  0.00  0.00    +0.000 A 
ATOM     20  C   UNL     1      -6.933  11.194  18.870  0.00  0.00    +0.000 A 
ATOM     21  C   UNL     1      -6.907   9.817  19.106  0.00  0.00    +0.000 A 
ATOM     22  C   UNL     1      -7.382   9.308  20.314  0.00  0.00    +0.000 A 
ATOM     23  C   UNL     1      -7.889  10.172  21.282  0.00  0.00    +0.000 A 
ATOM     24  C   UNL     1      -7.917  11.549  21.047  0.00  0.00    +0.000 A 
ENDBRANCH  18  19
ENDBRANCH  17  18
ENDBRANCH  13  17
ENDBRANCH   4   7
BRANCH   1  27
ATOM     25  O   UNL     1       2.267   9.029  17.411  0.00  0.00    +0.000 OA
ATOM     26  C   UNL     1       2.335   8.075  18.176  0.00  0.00    +0.000 C 
ATOM     27  N   UNL     1       1.707   7.965  19.417  0.00  0.00    +0.000 N 
ATOM     28  H   UNL     1       1.951   7.101  19.898  0.00  0.00    +0.000 HD
BRANCH  26  29
ATOM     29  C   UNL     1       3.175   6.881  17.895  0.00  0.00    +0.000 A 
ATOM     30  N   UNL     1       4.453   7.062  17.482  0.00  0.00    +0.000 NA
ATOM     31  N   UNL     1       4.919   5.821  17.296  0.00  0.00    +0.000 N 
ATOM     32  C   UNL     1       4.020   4.826  17.564  0.00  0.00    +0.000 A 
ATOM     33  C   UNL     1       4.152   3.438  17.483  0.00  0.00    +0.000 A 
ATOM     34  C   UNL     1       3.029   2.667  17.780  0.00  0.00    +0.000 A 
ATOM     35  C   UNL     1       1.825   3.277  18.141  0.00  0.00    +0.000 A 
ATOM     36  C   UNL     1       1.721   4.678  18.234  0.00  0.00    +0.000 A 
ATOM     37  C   UNL     1       2.846   5.481  17.941  0.00  0.00    +0.000 A 
ATOM     38  H   UNL     1       5.866   5.706  16.960  0.00  0.00    +0.000 HD
ENDBRANCH  26  29
ENDBRANCH   1  27
TORSDOF 6
ENDMDL
MODEL 7
REMARK VINA RESULT:      -8.5      4.613      8.093
REMARK  Name = 
REMARK  6 active torsions:
REMARK  status: ('A' for Active; 'I' for Inactive)
REMARK    1  A    between atoms: C_2  and  C_28
REMARK    2  A    between atoms: N_3  and  C_4
REMARK    3  A    between atoms: C_7  and  C_8
REMARK    4  A    between atoms: C_14  and  O_16
REMARK    5  A    between atoms: O_16  and  C_17
REMARK    6  A    between atoms: C_17  and  C_18
REMARK                            x       y       z     vdW  Elec       q    Type
REMARK                         _______ _______ _______ _____ _____    ______ ____
ROOT
ATOM      1  C   UNL     1       1.839   8.337  18.909  0.00  0.00    +0.000 A 
ATOM      2  C   UNL     1       1.593   9.196  17.838  0.00  0.00    +0.000 A 
ATOM      3  C   UNL     1       1.075  10.483  18.058  0.00  0.00    +0.000 A 
ATOM      4  C   UNL     1       0.797  10.946  19.354  0.00  0.00    +0.000 A 
ATOM      5  C   UNL     1       0.957  10.054  20.418  0.00  0.00    +0.000 A 
ATOM      6  C   UNL     1       1.478   8.768  20.197  0.00  0.00    +0.000 A 
ENDROOT
BRANCH   4   7
ATOM      7  C   UNL     1       0.220  12.317  19.500  0.00  0.00    +0.000 C 
ATOM      8  O   UNL     1      -0.930  12.392  19.940  0.00  0.00    +0.000 OA
ATOM      9  N   UNL     1       0.955  13.459  19.178  0.00  0.00    +0.000 N 
ATOM     10  C   UNL     1       0.392  14.775  19.501  0.00  0.00    +0.000 C 
ATOM     11  C   UNL     1       1.444  15.662  20.183  0.00  0.00    +0.000 C 
ATOM     12  N   UNL     1       2.695  15.705  19.420  0.00  0.00    +0.000 N 
ATOM     13  C   UNL     1       3.335  16.912  19.216  0.00  0.00    +0.000 C 
ATOM     14  O   UNL     1       2.920  17.982  19.647  0.00  0.00    +0.000 OA
ATOM     15  C   UNL     1       3.230  14.404  18.998  0.00  0.00    +0.000 C 
ATOM     16  C   UNL     1       2.150  13.535  18.328  0.00  0.00    +0.000 C 
BRANCH  13  17
ATOM     17  O   UNL     1       4.430  16.790  18.420  0.00  0.00    +0.000 OA
BRANCH  17  18
ATOM     18  C   UNL     1       5.681  17.115  19.037  0.00  0.00    +0.000 C 
BRANCH  18  19
ATOM     19  C   UNL     1       6.613  15.933  19.072  0.00  0.00    +0.000 A 
ATOM     20  C   UNL     1       6.799  15.133  17.936  0.00  0.00    +0.000 A 
ATOM     21  C   UNL     1       7.712  14.076  17.955  0.00  0.00    +0.000 A 
ATOM     22  C   UNL     1       8.439  13.803  19.112  0.00  0.00    +0.000 A 
ATOM     23  C   UNL     1       8.249  14.580  20.253  0.00  0.00    +0.000 A 
ATOM     24  C   UNL     1       7.335  15.637  20.237  0.00  0.00    +0.000 A 
ENDBRANCH  18  19
ENDBRANCH  17  18
ENDBRANCH  13  17
ENDBRANCH   4   7
BRANCH   1  27
ATOM     25  O   UNL     1       4.257   7.439  17.348  0.00  0.00    +0.000 OA
ATOM     26  C   UNL     1       3.585   6.707  18.065  0.00  0.00    +0.000 C 
ATOM     27  N   UNL     1       2.438   7.069  18.772  0.00  0.00    +0.000 N 
ATOM     28  H   UNL     1       2.079   6.306  19.343  0.00  0.00    +0.000 HD
BRANCH  26  29
ATOM     29  C   UNL     1       3.952   5.291  18.332  0.00  0.00    +0.000 A 
ATOM     30  N   UNL     1       5.261   4.968  18.466  0.00  0.00    +0.000 NA
ATOM     31  N   UNL     1       5.255   3.644  18.670  0.00  0.00    +0.000 N 
ATOM     32  C   UNL     1       4.013   3.072  18.680  0.00  0.00    +0.000 A 
ATOM     33  C   UNL     1       3.628   1.742  18.861  0.00  0.00    +0.000 A 
ATOM     34  C   UNL     1       2.268   1.449  18.773  0.00  0.00    +0.000 A 
ATOM     35  C   UNL     1       1.340   2.459  18.510  0.00  0.00    +0.000 A 
ATOM     36  C   UNL     1       1.749   3.797  18.350  0.00  0.00    +0.000 A 
ATOM     37  C   UNL     1       3.122   4.120  18.438  0.00  0.00    +0.000 A 
ATOM     38  H   UNL     1       6.141   3.168  18.776  0.00  0.00    +0.000 HD
ENDBRANCH  26  29
ENDBRANCH   1  27
TORSDOF 6
ENDMDL
MODEL 8
REMARK VINA RESULT:      -8.4      3.497      5.959
REMARK  Name = 
REMARK  6 active torsions:
REMARK  status: ('A' for Active; 'I' for Inactive)
REMARK    1  A    between atoms: C_2  and  C_28
REMARK    2  A    between atoms: N_3  and  C_4
REMARK    3  A    between atoms: C_7  and  C_8
REMARK    4  A    between atoms: C_14  and  O_16
REMARK    5  A    between atoms: O_16  and  C_17
REMARK    6  A    between atoms: C_17  and  C_18
REMARK                            x       y       z     vdW  Elec       q    Type
REMARK                         _______ _______ _______ _____ _____    ______ ____
ROOT
ATOM      1  C   UNL     1       2.169   8.098  18.824  0.00  0.00    +0.000 A 
ATOM      2  C   UNL     1       1.603   8.778  17.745  0.00  0.00    +0.000 A 
ATOM      3  C   UNL     1       0.612   9.751  17.953  0.00  0.00    +0.000 A 
ATOM      4  C   UNL     1       0.165  10.072  19.246  0.00  0.00    +0.000 A 
ATOM      5  C   UNL     1       0.664   9.327  20.317  0.00  0.00    +0.000 A 
ATOM      6  C   UNL     1       1.659   8.356  20.107  0.00  0.00    +0.000 A 
ENDROOT
BRANCH   4   7
ATOM      7  C   UNL     1      -0.915  11.098  19.380  0.00  0.00    +0.000 C 
ATOM      8  O   UNL     1      -2.054  10.748  19.066  0.00  0.00    +0.000 OA
ATOM      9  N   UNL     1      -0.649  12.381  19.860  0.00  0.00    +0.000 N 
ATOM     10  C   UNL     1      -1.777  13.282  20.124  0.00  0.00    +0.000 C 
ATOM     11  C   UNL     1      -1.622  13.958  21.495  0.00  0.00    +0.000 C 
ATOM     12  N   UNL     1      -0.300  14.573  21.650  0.00  0.00    +0.000 N 
ATOM     13  C   UNL     1      -0.191  15.843  22.182  0.00  0.00    +0.000 C 
ATOM     14  O   UNL     1      -1.151  16.510  22.551  0.00  0.00    +0.000 OA
ATOM     15  C   UNL     1       0.845  13.724  21.297  0.00  0.00    +0.000 C 
ATOM     16  C   UNL     1       0.655  13.054  19.925  0.00  0.00    +0.000 C 
BRANCH  13  17
ATOM     17  O   UNL     1       1.090  16.299  22.178  0.00  0.00    +0.000 OA
BRANCH  17  18
ATOM     18  C   UNL     1       1.353  17.393  21.293  0.00  0.00    +0.000 C 
BRANCH  18  19
ATOM     19  C   UNL     1       2.287  17.001  20.179  0.00  0.00    +0.000 A 
ATOM     20  C   UNL     1       1.849  16.988  18.848  0.00  0.00    +0.000 A 
ATOM     21  C   UNL     1       2.736  16.685  17.812  0.00  0.00    +0.000 A 
ATOM     22  C   UNL     1       4.066  16.381  18.100  0.00  0.00    +0.000 A 
ATOM     23  C   UNL     1       4.508  16.373  19.421  0.00  0.00    +0.000 A 
ATOM     24  C   UNL     1       3.622  16.675  20.458  0.00  0.00    +0.000 A 
ENDBRANCH  18  19
ENDBRANCH  17  18
ENDBRANCH  13  17
ENDBRANCH   4   7
BRANCH   1  27
ATOM     25  O   UNL     1       2.384   5.198  19.619  0.00  0.00    +0.000 OA
ATOM     26  C   UNL     1       3.266   5.826  19.046  0.00  0.00    +0.000 C 
ATOM     27  N   UNL     1       3.226   7.176  18.697  0.00  0.00    +0.000 N 
ATOM     28  H   UNL     1       4.054   7.466  18.180  0.00  0.00    +0.000 HD
BRANCH  26  29
ATOM     29  C   UNL     1       4.527   5.190  18.579  0.00  0.00    +0.000 A 
ATOM     30  N   UNL     1       5.267   4.478  19.463  0.00  0.00    +0.000 NA
ATOM     31  N   UNL     1       6.325   4.068  18.751  0.00  0.00    +0.000 N 
ATOM     32  C   UNL     1       6.325   4.467  17.444  0.00  0.00    +0.000 A 
ATOM     33  C   UNL     1       7.249   4.231  16.423  0.00  0.00    +0.000 A 
ATOM     34  C   UNL     1       6.999   4.815  15.182  0.00  0.00    +0.000 A 
ATOM     35  C   UNL     1       5.864   5.606  14.986  0.00  0.00    +0.000 A 
ATOM     36  C   UNL     1       4.937   5.815  16.024  0.00  0.00    +0.000 A 
ATOM     37  C   UNL     1       5.166   5.231  17.291  0.00  0.00    +0.000 A 
ATOM     38  H   UNL     1       7.040   3.527  19.218  0.00  0.00    +0.000 HD
ENDBRANCH  26  29
ENDBRANCH   1  27
TORSDOF 6
ENDMDL
MODEL 9
REMARK VINA RESULT:      -8.4      2.778     11.323
REMARK  Name = 
REMARK  6 active torsions:
REMARK  status: ('A' for Active; 'I' for Inactive)
REMARK    1  A    between atoms: C_2  and  C_28
REMARK    2  A    between atoms: N_3  and  C_4
REMARK    3  A    between atoms: C_7  and  C_8
REMARK    4  A    between atoms: C_14  and  O_16
REMARK    5  A    between atoms: O_16  and  C_17
REMARK    6  A    between atoms: C_17  and  C_18
REMARK                            x       y       z     vdW  Elec       q    Type
REMARK                         _______ _______ _______ _____ _____    ______ ____
ROOT
ATOM      1  C   UNL     1      -0.478  10.427  20.520  0.00  0.00    +0.000 A 
ATOM      2  C   UNL     1      -0.600  10.555  19.137  0.00  0.00    +0.000 A 
ATOM      3  C   UNL     1       0.324   9.938  18.277  0.00  0.00    +0.000 A 
ATOM      4  C   UNL     1       1.390   9.175  18.780  0.00  0.00    +0.000 A 
ATOM      5  C   UNL     1       1.566   9.123  20.165  0.00  0.00    +0.000 A 
ATOM      6  C   UNL     1       0.638   9.738  21.024  0.00  0.00    +0.000 A 
ENDROOT
BRANCH   4   7
ATOM      7  C   UNL     1       2.348   8.576  17.799  0.00  0.00    +0.000 C 
ATOM      8  O   UNL     1       2.551   9.213  16.763  0.00  0.00    +0.000 OA
ATOM      9  N   UNL     1       2.998   7.369  18.055  0.00  0.00    +0.000 N 
ATOM     10  C   UNL     1       4.047   6.923  17.131  0.00  0.00    +0.000 C 
ATOM     11  C   UNL     1       5.290   6.459  17.904  0.00  0.00    +0.000 C 
ATOM     12  N   UNL     1       4.949   5.492  18.952  0.00  0.00    +0.000 N 
ATOM     13  C   UNL     1       5.715   4.354  19.112  0.00  0.00    +0.000 C 
ATOM     14  O   UNL     1       6.695   4.092  18.424  0.00  0.00    +0.000 OA
ATOM     15  C   UNL     1       3.835   5.869  19.831  0.00  0.00    +0.000 C 
ATOM     16  C   UNL     1       2.609   6.338  19.028  0.00  0.00    +0.000 C 
BRANCH  13  17
ATOM     17  O   UNL     1       5.216   3.523  20.066  0.00  0.00    +0.000 OA
BRANCH  17  18
ATOM     18  C   UNL     1       4.531   2.364  19.578  0.00  0.00    +0.000 C 
BRANCH  18  19
ATOM     19  C   UNL     1       3.036   2.508  19.688  0.00  0.00    +0.000 A 
ATOM     20  C   UNL     1       2.430   2.758  20.927  0.00  0.00    +0.000 A 
ATOM     21  C   UNL     1       1.049   2.952  21.014  0.00  0.00    +0.000 A 
ATOM     22  C   UNL     1       0.262   2.888  19.865  0.00  0.00    +0.000 A 
ATOM     23  C   UNL     1       0.852   2.622  18.631  0.00  0.00    +0.000 A 
ATOM     24  C   UNL     1       2.232   2.425  18.542  0.00  0.00    +0.000 A 
ENDBRANCH  18  19
ENDBRANCH  17  18
ENDBRANCH  13  17
ENDBRANCH   4   7
BRANCH   1  27
ATOM     25  O   UNL     1      -0.681  13.125  21.850  0.00  0.00    +0.000 OA
ATOM     26  C   UNL     1      -1.491  12.218  21.999  0.00  0.00    +0.000 C 
ATOM     27  N   UNL     1      -1.415  10.943  21.437  0.00  0.00    +0.000 N 
ATOM     28  H   UNL     1      -2.230  10.374  21.659  0.00  0.00    +0.000 HD
BRANCH  26  29
ATOM     29  C   UNL     1      -2.742  12.382  22.786  0.00  0.00    +0.000 A 
ATOM     30  N   UNL     1      -2.964  11.561  23.841  0.00  0.00    +0.000 NA
ATOM     31  N   UNL     1      -4.159  11.943  24.310  0.00  0.00    +0.000 N 
ATOM     32  C   UNL     1      -4.741  12.973  23.624  0.00  0.00    +0.000 A 
ATOM     33  C   UNL     1      -5.961  13.620  23.824  0.00  0.00    +0.000 A 
ATOM     34  C   UNL     1      -6.312  14.623  22.921  0.00  0.00    +0.000 A 
ATOM     35  C   UNL     1      -5.465  14.951  21.861  0.00  0.00    +0.000 A 
ATOM     36  C   UNL     1      -4.230  14.298  21.690  0.00  0.00    +0.000 A 
ATOM     37  C   UNL     1      -3.849  13.281  22.594  0.00  0.00    +0.000 A 
ATOM     38  H   UNL     1      -4.549  11.445  25.100  0.00  0.00    +0.000 HD
ENDBRANCH  26  29
ENDBRANCH   1  27
TORSDOF 6
ENDMDL
