MODEL 1
REMARK VINA RESULT:      -8.1      0.000      0.000
REMARK  Name = 
REMARK  5 active torsions:
REMARK  status: ('A' for Active; 'I' for Inactive)
REMARK    1  A    between atoms: C_1  and  C_2
REMARK    2  A    between atoms: C_2  and  N_3
REMARK    3  A    between atoms: C_15  and  C_16
REMARK    4  A    between atoms: C_22  and  C_23
REMARK    5  A    between atoms: N_24  and  C_25
REMARK                            x       y       z     vdW  Elec       q    Type
REMARK                         _______ _______ _______ _____ _____    ______ ____
ROOT
ATOM      1  N   UNL     1      -3.366  11.082  16.042  0.00  0.00    +0.000 NA
ATOM      2  C   UNL     1      -2.940  10.374  17.263  0.00  0.00    +0.000 C 
ATOM      3  C   UNL     1      -3.306  11.175  18.507  0.00  0.00    +0.000 C 
ATOM      4  C   UNL     1      -4.744  11.594  18.489  0.00  0.00    +0.000 A 
ATOM      5  N   UNL     1      -5.277  11.940  19.678  0.00  0.00    +0.000 NA
ATOM      6  C   UNL     1      -6.544  12.387  19.745  0.00  0.00    +0.000 A 
ATOM      7  N   UNL     1      -7.081  12.778  20.984  0.00  0.00    +0.000 N 
ATOM      8  C   UNL     1      -6.368  12.755  22.180  0.00  0.00    +0.000 A 
ATOM      9  N   UNL     1      -7.062  12.479  23.294  0.00  0.00    +0.000 NA
ATOM     10  C   UNL     1      -6.354  12.398  24.441  0.00  0.00    +0.000 A 
ATOM     11  C   UNL     1      -4.988  12.572  24.518  0.00  0.00    +0.000 A 
ATOM     12  F   UNL     1      -4.365  12.487  25.694  0.00  0.00    +0.000 F 
ATOM     13  C   UNL     1      -4.353  12.889  23.338  0.00  0.00    +0.000 A 
ATOM     14  N   UNL     1      -5.051  13.013  22.191  0.00  0.00    +0.000 NA
ATOM     15  C   UNL     1      -7.319  12.494  18.596  0.00  0.00    +0.000 A 
ATOM     16  C   UNL     1      -6.773  12.117  17.366  0.00  0.00    +0.000 A 
ATOM     17  C   UNL     1      -5.453  11.666  17.299  0.00  0.00    +0.000 A 
ATOM     18  C   UNL     1      -4.839  11.197  16.006  0.00  0.00    +0.000 C 
ATOM     19  H   UNL     1      -7.995  12.388  21.161  0.00  0.00    +0.000 HD
ENDROOT
BRANCH  13  20
ATOM     20  C   UNL     1      -2.922  13.240  23.229  0.00  0.00    +0.000 A 
ATOM     21  C   UNL     1      -2.340  14.256  23.999  0.00  0.00    +0.000 A 
ATOM     22  C   UNL     1      -1.036  14.687  23.759  0.00  0.00    +0.000 A 
ATOM     23  F   UNL     1      -0.533  15.687  24.499  0.00  0.00    +0.000 F 
ATOM     24  C   UNL     1      -0.291  14.113  22.719  0.00  0.00    +0.000 A 
ATOM     25  N   UNL     1       0.960  14.407  22.262  0.00  0.00    +0.000 NA
ATOM     26  C   UNL     1       1.201  13.584  21.261  0.00  0.00    +0.000 A 
ATOM     27  C   UNL     1       2.512  13.583  20.567  0.00  0.00    +0.000 C 
ATOM     28  N   UNL     1       0.103  12.777  21.003  0.00  0.00    +0.000 N 
ATOM     29  C   UNL     1      -0.841  13.074  21.984  0.00  0.00    +0.000 A 
ATOM     30  C   UNL     1      -2.125  12.579  22.259  0.00  0.00    +0.000 A 
BRANCH  28  31
ATOM     31  C   UNL     1      -0.199  11.893  19.882  0.00  0.00    +0.000 C 
ATOM     32  C   UNL     1      -0.144  10.412  20.204  0.00  0.00    +0.000 C 
ATOM     33  C   UNL     1       1.242  10.005  19.757  0.00  0.00    +0.000 C 
ATOM     34  O   UNL     1       1.648  10.916  18.727  0.00  0.00    +0.000 OA
ATOM     35  C   UNL     1       0.690  11.983  18.650  0.00  0.00    +0.000 C 
ENDBRANCH  28  31
ENDBRANCH  13  20
BRANCH   1  37
ATOM     36  C   UNL     1      -3.901   9.984  13.848  0.00  0.00    +0.000 C 
ATOM     37  C   UNL     1      -2.835  10.385  14.860  0.00  0.00    +0.000 C 
ENDBRANCH   1  37
TORSDOF 3
ENDMDL
MODEL 2
REMARK VINA RESULT:      -7.2      3.178      6.242
REMARK  Name = 
REMARK  5 active torsions:
REMARK  status: ('A' for Active; 'I' for Inactive)
REMARK    1  A    between atoms: C_1  and  C_2
REMARK    2  A    between atoms: C_2  and  N_3
REMARK    3  A    between atoms: C_15  and  C_16
REMARK    4  A    between atoms: C_22  and  C_23
REMARK    5  A    between atoms: N_24  and  C_25
REMARK                            x       y       z     vdW  Elec       q    Type
REMARK                         _______ _______ _______ _____ _____    ______ ____
ROOT
ATOM      1  N   UNL     1      -4.810  15.903  24.166  0.00  0.00    +0.000 NA
ATOM      2  C   UNL     1      -4.118  16.267  22.916  0.00  0.00    +0.000 C 
ATOM      3  C   UNL     1      -3.889  15.035  22.047  0.00  0.00    +0.000 C 
ATOM      4  C   UNL     1      -5.151  14.248  21.865  0.00  0.00    +0.000 A 
ATOM      5  N   UNL     1      -5.174  13.395  20.821  0.00  0.00    +0.000 NA
ATOM      6  C   UNL     1      -6.242  12.605  20.619  0.00  0.00    +0.000 A 
ATOM      7  N   UNL     1      -6.244  11.694  19.548  0.00  0.00    +0.000 N 
ATOM      8  C   UNL     1      -5.178  11.533  18.666  0.00  0.00    +0.000 A 
ATOM      9  N   UNL     1      -5.483  11.219  17.399  0.00  0.00    +0.000 NA
ATOM     10  C   UNL     1      -4.449  11.123  16.535  0.00  0.00    +0.000 A 
ATOM     11  C   UNL     1      -3.131  11.337  16.884  0.00  0.00    +0.000 A 
ATOM     12  F   UNL     1      -2.166  11.212  15.973  0.00  0.00    +0.000 F 
ATOM     13  C   UNL     1      -2.897  11.619  18.211  0.00  0.00    +0.000 A 
ATOM     14  N   UNL     1      -3.915  11.679  19.094  0.00  0.00    +0.000 NA
ATOM     15  C   UNL     1      -7.335  12.657  21.477  0.00  0.00    +0.000 A 
ATOM     16  C   UNL     1      -7.320  13.554  22.548  0.00  0.00    +0.000 A 
ATOM     17  C   UNL     1      -6.202  14.364  22.762  0.00  0.00    +0.000 A 
ATOM     18  C   UNL     1      -6.162  15.384  23.870  0.00  0.00    +0.000 C 
ATOM     19  H   UNL     1      -7.093  11.723  19.004  0.00  0.00    +0.000 HD
ENDROOT
BRANCH  13  20
ATOM     20  C   UNL     1      -1.554  11.753  18.811  0.00  0.00    +0.000 A 
ATOM     21  C   UNL     1      -0.840  10.651  19.302  0.00  0.00    +0.000 A 
ATOM     22  C   UNL     1       0.345  10.818  20.017  0.00  0.00    +0.000 A 
ATOM     23  F   UNL     1       0.975   9.735  20.498  0.00  0.00    +0.000 F 
ATOM     24  C   UNL     1       0.831  12.108  20.271  0.00  0.00    +0.000 A 
ATOM     25  N   UNL     1       1.916  12.518  20.989  0.00  0.00    +0.000 NA
ATOM     26  C   UNL     1       1.935  13.835  20.930  0.00  0.00    +0.000 A 
ATOM     27  C   UNL     1       3.032  14.615  21.554  0.00  0.00    +0.000 C 
ATOM     28  N   UNL     1       0.841  14.318  20.228  0.00  0.00    +0.000 N 
ATOM     29  C   UNL     1       0.159  13.202  19.748  0.00  0.00    +0.000 A 
ATOM     30  C   UNL     1      -0.995  13.048  18.965  0.00  0.00    +0.000 A 
BRANCH  28  31
ATOM     31  C   UNL     1       0.306  15.669  20.091  0.00  0.00    +0.000 C 
ATOM     32  C   UNL     1       0.570  16.327  18.750  0.00  0.00    +0.000 C 
ATOM     33  C   UNL     1       1.801  17.167  19.005  0.00  0.00    +0.000 C 
ATOM     34  O   UNL     1       1.823  17.486  20.403  0.00  0.00    +0.000 OA
ATOM     35  C   UNL     1       0.800  16.727  21.066  0.00  0.00    +0.000 C 
ENDBRANCH  28  31
ENDBRANCH  13  20
BRANCH   1  37
ATOM     36  C   UNL     1      -5.488  18.304  24.444  0.00  0.00    +0.000 C 
ATOM     37  C   UNL     1      -4.847  17.068  25.063  0.00  0.00    +0.000 C 
ENDBRANCH   1  37
TORSDOF 3
ENDMDL
MODEL 3
REMARK VINA RESULT:      -6.8      3.395      8.441
REMARK  Name = 
REMARK  5 active torsions:
REMARK  status: ('A' for Active; 'I' for Inactive)
REMARK    1  A    between atoms: C_1  and  C_2
REMARK    2  A    between atoms: C_2  and  N_3
REMARK    3  A    between atoms: C_15  and  C_16
REMARK    4  A    between atoms: C_22  and  C_23
REMARK    5  A    between atoms: N_24  and  C_25
REMARK                            x       y       z     vdW  Elec       q    Type
REMARK                         _______ _______ _______ _____ _____    ______ ____
ROOT
ATOM      1  N   UNL     1      -2.891  15.848  23.785  0.00  0.00    +0.000 NA
ATOM      2  C   UNL     1      -3.096  14.394  23.652  0.00  0.00    +0.000 C 
ATOM      3  C   UNL     1      -2.516  13.885  22.338  0.00  0.00    +0.000 C 
ATOM      4  C   UNL     1      -1.103  14.344  22.145  0.00  0.00    +0.000 A 
ATOM      5  N   UNL     1      -0.368  13.648  21.254  0.00  0.00    +0.000 NA
ATOM      6  C   UNL     1       0.890  14.029  20.973  0.00  0.00    +0.000 A 
ATOM      7  N   UNL     1       1.639  13.319  20.018  0.00  0.00    +0.000 N 
ATOM      8  C   UNL     1       1.147  12.228  19.305  0.00  0.00    +0.000 A 
ATOM      9  N   UNL     1       2.026  11.267  18.986  0.00  0.00    +0.000 NA
ATOM     10  C   UNL     1       1.533  10.184  18.347  0.00  0.00    +0.000 A 
ATOM     11  C   UNL     1       0.201  10.021  18.025  0.00  0.00    +0.000 A 
ATOM     12  F   UNL     1      -0.205   8.925  17.383  0.00  0.00    +0.000 F 
ATOM     13  C   UNL     1      -0.632  11.067  18.353  0.00  0.00    +0.000 A 
ATOM     14  N   UNL     1      -0.147  12.172  18.954  0.00  0.00    +0.000 NA
ATOM     15  C   UNL     1       1.451  15.138  21.598  0.00  0.00    +0.000 A 
ATOM     16  C   UNL     1       0.697  15.848  22.535  0.00  0.00    +0.000 A 
ATOM     17  C   UNL     1      -0.615  15.456  22.813  0.00  0.00    +0.000 A 
ATOM     18  C   UNL     1      -1.448  16.156  23.856  0.00  0.00    +0.000 C 
ATOM     19  H   UNL     1       2.568  13.088  20.333  0.00  0.00    +0.000 HD
ENDROOT
BRANCH  13  20
ATOM     20  C   UNL     1      -2.059  11.145  17.980  0.00  0.00    +0.000 A 
ATOM     21  C   UNL     1      -2.522  10.783  16.707  0.00  0.00    +0.000 A 
ATOM     22  C   UNL     1      -3.839  11.026  16.321  0.00  0.00    +0.000 A 
ATOM     23  F   UNL     1      -4.227  10.694  15.080  0.00  0.00    +0.000 F 
ATOM     24  C   UNL     1      -4.721  11.660  17.208  0.00  0.00    +0.000 A 
ATOM     25  N   UNL     1      -6.016  12.053  17.036  0.00  0.00    +0.000 NA
ATOM     26  C   UNL     1      -6.396  12.609  18.169  0.00  0.00    +0.000 A 
ATOM     27  C   UNL     1      -7.787  13.093  18.357  0.00  0.00    +0.000 C 
ATOM     28  N   UNL     1      -5.354  12.646  19.082  0.00  0.00    +0.000 N 
ATOM     29  C   UNL     1      -4.286  11.978  18.486  0.00  0.00    +0.000 A 
ATOM     30  C   UNL     1      -2.985  11.675  18.915  0.00  0.00    +0.000 A 
BRANCH  28  31
ATOM     31  C   UNL     1      -5.212  13.349  20.353  0.00  0.00    +0.000 C 
ATOM     32  C   UNL     1      -5.817  12.635  21.547  0.00  0.00    +0.000 C 
ATOM     33  C   UNL     1      -7.178  13.278  21.690  0.00  0.00    +0.000 C 
ATOM     34  O   UNL     1      -7.094  14.596  21.132  0.00  0.00    +0.000 OA
ATOM     35  C   UNL     1      -5.829  14.736  20.467  0.00  0.00    +0.000 C 
ENDBRANCH  28  31
ENDBRANCH  13  20
BRANCH   1  37
ATOM     36  C   UNL     1      -3.269  17.769  25.356  0.00  0.00    +0.000 C 
ATOM     37  C   UNL     1      -3.623  16.341  24.962  0.00  0.00    +0.000 C 
ENDBRANCH   1  37
TORSDOF 3
ENDMDL
MODEL 4
REMARK VINA RESULT:      -6.8      3.202      6.445
REMARK  Name = 
REMARK  5 active torsions:
REMARK  status: ('A' for Active; 'I' for Inactive)
REMARK    1  A    between atoms: C_1  and  C_2
REMARK    2  A    between atoms: C_2  and  N_3
REMARK    3  A    between atoms: C_15  and  C_16
REMARK    4  A    between atoms: C_22  and  C_23
REMARK    5  A    between atoms: N_24  and  C_25
REMARK                            x       y       z     vdW  Elec       q    Type
REMARK                         _______ _______ _______ _____ _____    ______ ____
ROOT
ATOM      1  N   UNL     1      -3.126  16.354  24.357  0.00  0.00    +0.000 NA
ATOM      2  C   UNL     1      -2.877  16.613  22.927  0.00  0.00    +0.000 C 
ATOM      3  C   UNL     1      -3.035  15.335  22.111  0.00  0.00    +0.000 C 
ATOM      4  C   UNL     1      -4.332  14.647  22.413  0.00  0.00    +0.000 A 
ATOM      5  N   UNL     1      -4.762  13.760  21.493  0.00  0.00    +0.000 NA
ATOM      6  C   UNL     1      -5.884  13.053  21.710  0.00  0.00    +0.000 A 
ATOM      7  N   UNL     1      -6.308  12.105  20.761  0.00  0.00    +0.000 N 
ATOM      8  C   UNL     1      -5.616  11.825  19.585  0.00  0.00    +0.000 A 
ATOM      9  N   UNL     1      -6.351  11.489  18.516  0.00  0.00    +0.000 NA
ATOM     10  C   UNL     1      -5.680  11.276  17.364  0.00  0.00    +0.000 A 
ATOM     11  C   UNL     1      -4.311  11.394  17.237  0.00  0.00    +0.000 A 
ATOM     12  F   UNL     1      -3.722  11.156  16.065  0.00  0.00    +0.000 F 
ATOM     13  C   UNL     1      -3.624  11.707  18.388  0.00  0.00    +0.000 A 
ATOM     14  N   UNL     1      -4.276  11.882  19.556  0.00  0.00    +0.000 NA
ATOM     15  C   UNL     1      -6.616  13.227  22.880  0.00  0.00    +0.000 A 
ATOM     16  C   UNL     1      -6.181  14.159  23.825  0.00  0.00    +0.000 A 
ATOM     17  C   UNL     1      -5.007  14.883  23.600  0.00  0.00    +0.000 A 
ATOM     18  C   UNL     1      -4.528  15.937  24.564  0.00  0.00    +0.000 C 
ATOM     19  H   UNL     1      -7.287  12.183  20.533  0.00  0.00    +0.000 HD
ENDROOT
BRANCH  13  20
ATOM     20  C   UNL     1      -2.151  11.752  18.494  0.00  0.00    +0.000 A 
ATOM     21  C   UNL     1      -1.363  10.592  18.483  0.00  0.00    +0.000 A 
ATOM     22  C   UNL     1       0.003  10.645  18.757  0.00  0.00    +0.000 A 
ATOM     23  F   UNL     1       0.710   9.504  18.770  0.00  0.00    +0.000 F 
ATOM     24  C   UNL     1       0.607  11.871  19.067  0.00  0.00    +0.000 A 
ATOM     25  N   UNL     1       1.892  12.159  19.423  0.00  0.00    +0.000 NA
ATOM     26  C   UNL     1       1.950  13.462  19.615  0.00  0.00    +0.000 A 
ATOM     27  C   UNL     1       3.230  14.131  19.952  0.00  0.00    +0.000 C 
ATOM     28  N   UNL     1       0.704  14.047  19.446  0.00  0.00    +0.000 N 
ATOM     29  C   UNL     1      -0.154  13.031  19.031  0.00  0.00    +0.000 A 
ATOM     30  C   UNL     1      -1.514  13.005  18.688  0.00  0.00    +0.000 A 
BRANCH  28  31
ATOM     31  C   UNL     1       0.219  15.385  19.767  0.00  0.00    +0.000 C 
ATOM     32  C   UNL     1       0.069  16.311  18.575  0.00  0.00    +0.000 C 
ATOM     33  C   UNL     1       1.355  17.106  18.582  0.00  0.00    +0.000 C 
ATOM     34  O   UNL     1       1.840  17.130  19.931  0.00  0.00    +0.000 OA
ATOM     35  C   UNL     1       1.049  16.229  20.722  0.00  0.00    +0.000 C 
ENDBRANCH  28  31
ENDBRANCH  13  20
BRANCH   1  37
ATOM     36  C   UNL     1      -1.508  17.405  25.963  0.00  0.00    +0.000 C 
ATOM     37  C   UNL     1      -2.781  17.552  25.139  0.00  0.00    +0.000 C 
ENDBRANCH   1  37
TORSDOF 3
ENDMDL
MODEL 5
REMARK VINA RESULT:      -6.8      2.892      6.552
REMARK  Name = 
REMARK  5 active torsions:
REMARK  status: ('A' for Active; 'I' for Inactive)
REMARK    1  A    between atoms: C_1  and  C_2
REMARK    2  A    between atoms: C_2  and  N_3
REMARK    3  A    between atoms: C_15  and  C_16
REMARK    4  A    between atoms: C_22  and  C_23
REMARK    5  A    between atoms: N_24  and  C_25
REMARK                            x       y       z     vdW  Elec       q    Type
REMARK                         _______ _______ _______ _____ _____    ______ ____
ROOT
ATOM      1  N   UNL     1       0.681  16.149  23.320  0.00  0.00    +0.000 NA
ATOM      2  C   UNL     1       0.037  16.364  22.011  0.00  0.00    +0.000 C 
ATOM      3  C   UNL     1      -1.031  15.307  21.755  0.00  0.00    +0.000 C 
ATOM      4  C   UNL     1      -1.975  15.187  22.913  0.00  0.00    +0.000 A 
ATOM      5  N   UNL     1      -3.162  14.604  22.653  0.00  0.00    +0.000 NA
ATOM      6  C   UNL     1      -4.046  14.400  23.646  0.00  0.00    +0.000 A 
ATOM      7  N   UNL     1      -5.268  13.760  23.373  0.00  0.00    +0.000 N 
ATOM      8  C   UNL     1      -5.632  13.290  22.114  0.00  0.00    +0.000 A 
ATOM      9  N   UNL     1      -6.935  13.341  21.801  0.00  0.00    +0.000 NA
ATOM     10  C   UNL     1      -7.274  12.940  20.557  0.00  0.00    +0.000 A 
ATOM     11  C   UNL     1      -6.366  12.502  19.615  0.00  0.00    +0.000 A 
ATOM     12  F   UNL     1      -6.784  12.112  18.410  0.00  0.00    +0.000 F 
ATOM     13  C   UNL     1      -5.053  12.444  20.024  0.00  0.00    +0.000 A 
ATOM     14  N   UNL     1      -4.704  12.802  21.276  0.00  0.00    +0.000 NA
ATOM     15  C   UNL     1      -3.750  14.789  24.948  0.00  0.00    +0.000 A 
ATOM     16  C   UNL     1      -2.528  15.411  25.214  0.00  0.00    +0.000 A 
ATOM     17  C   UNL     1      -1.608  15.608  24.181  0.00  0.00    +0.000 A 
ATOM     18  C   UNL     1      -0.302  16.323  24.409  0.00  0.00    +0.000 C 
ATOM     19  H   UNL     1      -6.063  14.240  23.766  0.00  0.00    +0.000 HD
ENDROOT
BRANCH  13  20
ATOM     20  C   UNL     1      -3.951  11.883  19.215  0.00  0.00    +0.000 A 
ATOM     21  C   UNL     1      -4.169  11.280  17.968  0.00  0.00    +0.000 A 
ATOM     22  C   UNL     1      -3.146  10.607  17.303  0.00  0.00    +0.000 A 
ATOM     23  F   UNL     1      -3.411  10.015  16.128  0.00  0.00    +0.000 F 
ATOM     24  C   UNL     1      -1.876  10.510  17.890  0.00  0.00    +0.000 A 
ATOM     25  N   UNL     1      -0.754   9.861  17.466  0.00  0.00    +0.000 NA
ATOM     26  C   UNL     1       0.173  10.071  18.379  0.00  0.00    +0.000 A 
ATOM     27  C   UNL     1       1.554   9.558  18.202  0.00  0.00    +0.000 C 
ATOM     28  N   UNL     1      -0.330  10.807  19.441  0.00  0.00    +0.000 N 
ATOM     29  C   UNL     1      -1.637  11.145  19.099  0.00  0.00    +0.000 A 
ATOM     30  C   UNL     1      -2.636  11.888  19.748  0.00  0.00    +0.000 A 
BRANCH  28  31
ATOM     31  C   UNL     1       0.221  11.090  20.762  0.00  0.00    +0.000 C 
ATOM     32  C   UNL     1       0.767   9.880  21.496  0.00  0.00    +0.000 C 
ATOM     33  C   UNL     1      -0.376   9.467  22.395  0.00  0.00    +0.000 C 
ATOM     34  O   UNL     1      -1.168  10.635  22.650  0.00  0.00    +0.000 OA
ATOM     35  C   UNL     1      -0.709  11.699  21.802  0.00  0.00    +0.000 C 
ENDBRANCH  28  31
ENDBRANCH  13  20
BRANCH   1  37
ATOM     36  C   UNL     1       1.501  18.366  24.166  0.00  0.00    +0.000 C 
ATOM     37  C   UNL     1       1.830  17.058  23.457  0.00  0.00    +0.000 C 
ENDBRANCH   1  37
TORSDOF 3
ENDMDL
MODEL 6
REMARK VINA RESULT:      -6.7      2.291      3.072
REMARK  Name = 
REMARK  5 active torsions:
REMARK  status: ('A' for Active; 'I' for Inactive)
REMARK    1  A    between atoms: C_1  and  C_2
REMARK    2  A    between atoms: C_2  and  N_3
REMARK    3  A    between atoms: C_15  and  C_16
REMARK    4  A    between atoms: C_22  and  C_23
REMARK    5  A    between atoms: N_24  and  C_25
REMARK                            x       y       z     vdW  Elec       q    Type
REMARK                         _______ _______ _______ _____ _____    ______ ____
ROOT
ATOM      1  N   UNL     1      -3.192  10.943  15.850  0.00  0.00    +0.000 NA
ATOM      2  C   UNL     1      -2.069  10.911  16.805  0.00  0.00    +0.000 C 
ATOM      3  C   UNL     1      -2.273  11.937  17.913  0.00  0.00    +0.000 C 
ATOM      4  C   UNL     1      -3.633  11.815  18.532  0.00  0.00    +0.000 A 
ATOM      5  N   UNL     1      -3.782  12.369  19.752  0.00  0.00    +0.000 NA
ATOM      6  C   UNL     1      -4.984  12.360  20.354  0.00  0.00    +0.000 A 
ATOM      7  N   UNL     1      -5.140  12.970  21.612  0.00  0.00    +0.000 N 
ATOM      8  C   UNL     1      -4.111  13.620  22.290  0.00  0.00    +0.000 A 
ATOM      9  N   UNL     1      -4.130  13.551  23.629  0.00  0.00    +0.000 NA
ATOM     10  C   UNL     1      -3.098  14.133  24.278  0.00  0.00    +0.000 A 
ATOM     11  C   UNL     1      -2.050  14.767  23.645  0.00  0.00    +0.000 A 
ATOM     12  F   UNL     1      -1.073  15.327  24.360  0.00  0.00    +0.000 F 
ATOM     13  C   UNL     1      -2.121  14.827  22.272  0.00  0.00    +0.000 A 
ATOM     14  N   UNL     1      -3.166  14.287  21.611  0.00  0.00    +0.000 NA
ATOM     15  C   UNL     1      -6.084  11.778  19.733  0.00  0.00    +0.000 A 
ATOM     16  C   UNL     1      -5.925  11.188  18.477  0.00  0.00    +0.000 A 
ATOM     17  C   UNL     1      -4.677  11.212  17.849  0.00  0.00    +0.000 A 
ATOM     18  C   UNL     1      -4.445  10.540  16.521  0.00  0.00    +0.000 C 
ATOM     19  H   UNL     1      -5.629  12.390  22.276  0.00  0.00    +0.000 HD
ENDROOT
BRANCH  13  20
ATOM     20  C   UNL     1      -1.171  15.571  21.418  0.00  0.00    +0.000 A 
ATOM     21  C   UNL     1      -1.492  16.808  20.842  0.00  0.00    +0.000 A 
ATOM     22  C   UNL     1      -0.653  17.408  19.905  0.00  0.00    +0.000 A 
ATOM     23  F   UNL     1      -1.018  18.576  19.355  0.00  0.00    +0.000 F 
ATOM     24  C   UNL     1       0.528  16.763  19.512  0.00  0.00    +0.000 A 
ATOM     25  N   UNL     1       1.462  17.118  18.583  0.00  0.00    +0.000 NA
ATOM     26  C   UNL     1       2.379  16.171  18.585  0.00  0.00    +0.000 A 
ATOM     27  C   UNL     1       3.588  16.272  17.731  0.00  0.00    +0.000 C 
ATOM     28  N   UNL     1       2.044  15.155  19.466  0.00  0.00    +0.000 N 
ATOM     29  C   UNL     1       0.879  15.563  20.112  0.00  0.00    +0.000 A 
ATOM     30  C   UNL     1       0.081  14.981  21.109  0.00  0.00    +0.000 A 
BRANCH  28  31
ATOM     31  C   UNL     1       2.602  13.819  19.650  0.00  0.00    +0.000 C 
ATOM     32  C   UNL     1       2.562  12.936  18.417  0.00  0.00    +0.000 C 
ATOM     33  C   UNL     1       1.311  12.110  18.615  0.00  0.00    +0.000 C 
ATOM     34  O   UNL     1       1.065  12.030  20.025  0.00  0.00    +0.000 OA
ATOM     35  C   UNL     1       1.963  12.924  20.702  0.00  0.00    +0.000 C 
ENDBRANCH  28  31
ENDBRANCH  13  20
BRANCH   1  37
ATOM     36  C   UNL     1      -4.007   9.985  13.678  0.00  0.00    +0.000 C 
ATOM     37  C   UNL     1      -2.878  10.086  14.696  0.00  0.00    +0.000 C 
ENDBRANCH   1  37
TORSDOF 3
ENDMDL
MODEL 7
REMARK VINA RESULT:      -6.7      4.862      9.745
REMARK  Name = 
REMARK  5 active torsions:
REMARK  status: ('A' for Active; 'I' for Inactive)
REMARK    1  A    between atoms: C_1  and  C_2
REMARK    2  A    between atoms: C_2  and  N_3
REMARK    3  A    between atoms: C_15  and  C_16
REMARK    4  A    between atoms: C_22  and  C_23
REMARK    5  A    between atoms: N_24  and  C_25
REMARK                            x       y       z     vdW  Elec       q    Type
REMARK                         _______ _______ _______ _____ _____    ______ ____
ROOT
ATOM      1  N   UNL     1       9.130  13.456  18.302  0.00  0.00    +0.000 NA
ATOM      2  C   UNL     1       7.989  13.231  17.396  0.00  0.00    +0.000 C 
ATOM      3  C   UNL     1       6.688  13.700  18.038  0.00  0.00    +0.000 C 
ATOM      4  C   UNL     1       6.809  15.097  18.568  0.00  0.00    +0.000 A 
ATOM      5  N   UNL     1       5.651  15.753  18.783  0.00  0.00    +0.000 NA
ATOM      6  C   UNL     1       5.663  16.987  19.315  0.00  0.00    +0.000 A 
ATOM      7  N   UNL     1       4.450  17.652  19.567  0.00  0.00    +0.000 N 
ATOM      8  C   UNL     1       3.197  17.097  19.316  0.00  0.00    +0.000 A 
ATOM      9  N   UNL     1       2.226  17.941  18.940  0.00  0.00    +0.000 NA
ATOM     10  C   UNL     1       1.029  17.391  18.641  0.00  0.00    +0.000 A 
ATOM     11  C   UNL     1       0.770  16.037  18.693  0.00  0.00    +0.000 A 
ATOM     12  F   UNL     1      -0.443  15.573  18.392  0.00  0.00    +0.000 F 
ATOM     13  C   UNL     1       1.807  15.240  19.123  0.00  0.00    +0.000 A 
ATOM     14  N   UNL     1       2.996  15.779  19.464  0.00  0.00    +0.000 NA
ATOM     15  C   UNL     1       6.865  17.604  19.646  0.00  0.00    +0.000 A 
ATOM     16  C   UNL     1       8.066  16.932  19.407  0.00  0.00    +0.000 A 
ATOM     17  C   UNL     1       8.048  15.644  18.866  0.00  0.00    +0.000 A 
ATOM     18  C   UNL     1       9.317  14.902  18.539  0.00  0.00    +0.000 C 
ATOM     19  H   UNL     1       4.440  18.602  19.230  0.00  0.00    +0.000 HD
ENDROOT
BRANCH  13  20
ATOM     20  C   UNL     1       1.697  13.788  19.371  0.00  0.00    +0.000 A 
ATOM     21  C   UNL     1       2.104  12.833  18.428  0.00  0.00    +0.000 A 
ATOM     22  C   UNL     1       1.833  11.478  18.609  0.00  0.00    +0.000 A 
ATOM     23  F   UNL     1       2.212  10.606  17.662  0.00  0.00    +0.000 F 
ATOM     24  C   UNL     1       1.125  11.052  19.741  0.00  0.00    +0.000 A 
ATOM     25  N   UNL     1       0.696   9.808  20.099  0.00  0.00    +0.000 NA
ATOM     26  C   UNL     1       0.071   9.939  21.253  0.00  0.00    +0.000 A 
ATOM     27  C   UNL     1      -0.470   8.759  21.970  0.00  0.00    +0.000 C 
ATOM     28  N   UNL     1       0.027  11.268  21.648  0.00  0.00    +0.000 N 
ATOM     29  C   UNL     1       0.761  11.983  20.704  0.00  0.00    +0.000 A 
ATOM     30  C   UNL     1       1.089  13.340  20.573  0.00  0.00    +0.000 A 
BRANCH  28  31
ATOM     31  C   UNL     1      -0.732  11.933  22.701  0.00  0.00    +0.000 C 
ATOM     32  C   UNL     1      -2.198  11.548  22.771  0.00  0.00    +0.000 C 
ATOM     33  C   UNL     1      -2.888  12.649  21.998  0.00  0.00    +0.000 C 
ATOM     34  O   UNL     1      -2.059  13.816  22.075  0.00  0.00    +0.000 OA
ATOM     35  C   UNL     1      -0.804  13.452  22.671  0.00  0.00    +0.000 C 
ENDBRANCH  28  31
ENDBRANCH  13  20
BRANCH   1  37
ATOM     36  C   UNL     1      10.410  11.321  17.979  0.00  0.00    +0.000 C 
ATOM     37  C   UNL     1      10.334  12.824  17.741  0.00  0.00    +0.000 C 
ENDBRANCH   1  37
TORSDOF 3
ENDMDL
MODEL 8
REMARK VINA RESULT:      -6.7      3.297      8.522
REMARK  Name = 
REMARK  5 active torsions:
REMARK  status: ('A' for Active; 'I' for Inactive)
REMARK    1  A    between atoms: C_1  and  C_2
REMARK    2  A    between atoms: C_2  and  N_3
REMARK    3  A    between atoms: C_15  and  C_16
REMARK    4  A    between atoms: C_22  and  C_23
REMARK    5  A    between atoms: N_24  and  C_25
REMARK                            x       y       z     vdW  Elec       q    Type
REMARK                         _______ _______ _______ _____ _____    ______ ____
ROOT
ATOM      1  N   UNL     1      -0.886  16.601  23.986  0.00  0.00    +0.000 NA
ATOM      2  C   UNL     1      -1.151  15.152  24.033  0.00  0.00    +0.000 C 
ATOM      3  C   UNL     1      -0.977  14.526  22.654  0.00  0.00    +0.000 C 
ATOM      4  C   UNL     1       0.334  14.909  22.038  0.00  0.00    +0.000 A 
ATOM      5  N   UNL     1       0.772  14.120  21.036  0.00  0.00    +0.000 NA
ATOM      6  C   UNL     1       1.908  14.425  20.385  0.00  0.00    +0.000 A 
ATOM      7  N   UNL     1       2.341  13.617  19.318  0.00  0.00    +0.000 N 
ATOM      8  C   UNL     1       1.645  12.501  18.861  0.00  0.00    +0.000 A 
ATOM      9  N   UNL     1       2.378  11.482  18.388  0.00  0.00    +0.000 NA
ATOM     10  C   UNL     1       1.701  10.379  18.001  0.00  0.00    +0.000 A 
ATOM     11  C   UNL     1       0.329  10.252  18.078  0.00  0.00    +0.000 A 
ATOM     12  F   UNL     1      -0.265   9.131  17.665  0.00  0.00    +0.000 F 
ATOM     13  C   UNL     1      -0.354  11.353  18.541  0.00  0.00    +0.000 A 
ATOM     14  N   UNL     1       0.304  12.477  18.892  0.00  0.00    +0.000 NA
ATOM     15  C   UNL     1       2.646  15.550  20.736  0.00  0.00    +0.000 A 
ATOM     16  C   UNL     1       2.202  16.357  21.787  0.00  0.00    +0.000 A 
ATOM     17  C   UNL     1       1.014  16.044  22.451  0.00  0.00    +0.000 A 
ATOM     18  C   UNL     1       0.525  16.851  23.625  0.00  0.00    +0.000 C 
ATOM     19  H   UNL     1       3.317  13.370  19.379  0.00  0.00    +0.000 HD
ENDROOT
BRANCH  13  20
ATOM     20  C   UNL     1      -1.827  11.466  18.577  0.00  0.00    +0.000 A 
ATOM     21  C   UNL     1      -2.629  11.164  17.467  0.00  0.00    +0.000 A 
ATOM     22  C   UNL     1      -3.995  11.442  17.467  0.00  0.00    +0.000 A 
ATOM     23  F   UNL     1      -4.716  11.167  16.369  0.00  0.00    +0.000 F 
ATOM     24  C   UNL     1      -4.585  12.050  18.584  0.00  0.00    +0.000 A 
ATOM     25  N   UNL     1      -5.867  12.467  18.789  0.00  0.00    +0.000 NA
ATOM     26  C   UNL     1      -5.910  12.980  20.003  0.00  0.00    +0.000 A 
ATOM     27  C   UNL     1      -7.183  13.474  20.582  0.00  0.00    +0.000 C 
ATOM     28  N   UNL     1      -4.657  12.964  20.595  0.00  0.00    +0.000 N 
ATOM     29  C   UNL     1      -3.810  12.307  19.705  0.00  0.00    +0.000 A 
ATOM     30  C   UNL     1      -2.449  11.969  19.749  0.00  0.00    +0.000 A 
BRANCH  28  31
ATOM     31  C   UNL     1      -4.156  13.611  21.803  0.00  0.00    +0.000 C 
ATOM     32  C   UNL     1      -4.165  12.738  23.044  0.00  0.00    +0.000 C 
ATOM     33  C   UNL     1      -5.452  13.123  23.737  0.00  0.00    +0.000 C 
ATOM     34  O   UNL     1      -5.771  14.463  23.341  0.00  0.00    +0.000 OA
ATOM     35  C   UNL     1      -4.878  14.859  22.289  0.00  0.00    +0.000 C 
ENDBRANCH  28  31
ENDBRANCH  13  20
BRANCH   1  37
ATOM     36  C   UNL     1      -1.112  16.260  26.462  0.00  0.00    +0.000 C 
ATOM     37  C   UNL     1      -1.246  17.208  25.277  0.00  0.00    +0.000 C 
ENDBRANCH   1  37
TORSDOF 3
ENDMDL
MODEL 9
REMARK VINA RESULT:      -6.7      2.689      4.290
REMARK  Name = 
REMARK  5 active torsions:
REMARK  status: ('A' for Active; 'I' for Inactive)
REMARK    1  A    between atoms: C_1  and  C_2
REMARK    2  A    between atoms: C_2  and  N_3
REMARK    3  A    between atoms: C_15  and  C_16
REMARK    4  A    between atoms: C_22  and  C_23
REMARK    5  A    between atoms: N_24  and  C_25
REMARK                            x       y       z     vdW  Elec       q    Type
REMARK                         _______ _______ _______ _____ _____    ______ ____
ROOT
ATOM      1  N   UNL     1       1.258   9.624  18.375  0.00  0.00    +0.000 NA
ATOM      2  C   UNL     1       0.802   9.569  19.775  0.00  0.00    +0.000 C 
ATOM      3  C   UNL     1      -0.161  10.713  20.074  0.00  0.00    +0.000 C 
ATOM      4  C   UNL     1      -1.256  10.791  19.055  0.00  0.00    +0.000 A 
ATOM      5  N   UNL     1      -2.361  11.473  19.420  0.00  0.00    +0.000 NA
ATOM      6  C   UNL     1      -3.367  11.645  18.546  0.00  0.00    +0.000 A 
ATOM      7  N   UNL     1      -4.501  12.386  18.923  0.00  0.00    +0.000 N 
ATOM      8  C   UNL     1      -4.652  12.990  20.169  0.00  0.00    +0.000 A 
ATOM      9  N   UNL     1      -5.896  13.053  20.665  0.00  0.00    +0.000 NA
ATOM     10  C   UNL     1      -6.029  13.586  21.899  0.00  0.00    +0.000 A 
ATOM     11  C   UNL     1      -4.971  14.045  22.656  0.00  0.00    +0.000 A 
ATOM     12  F   UNL     1      -5.188  14.568  23.864  0.00  0.00    +0.000 F 
ATOM     13  C   UNL     1      -3.731  13.980  22.063  0.00  0.00    +0.000 A 
ATOM     14  N   UNL     1      -3.587  13.488  20.816  0.00  0.00    +0.000 NA
ATOM     15  C   UNL     1      -3.286  11.122  17.259  0.00  0.00    +0.000 A 
ATOM     16  C   UNL     1      -2.150  10.400  16.887  0.00  0.00    +0.000 A 
ATOM     17  C   UNL     1      -1.101  10.235  17.794  0.00  0.00    +0.000 A 
ATOM     18  C   UNL     1       0.119   9.418  17.457  0.00  0.00    +0.000 C 
ATOM     19  H   UNL     1      -5.370  11.926  18.695  0.00  0.00    +0.000 HD
ENDROOT
BRANCH  13  20
ATOM     20  C   UNL     1      -2.495  14.536  22.651  0.00  0.00    +0.000 A 
ATOM     21  C   UNL     1      -2.268  14.561  24.035  0.00  0.00    +0.000 A 
ATOM     22  C   UNL     1      -1.180  15.243  24.576  0.00  0.00    +0.000 A 
ATOM     23  F   UNL     1      -1.024  15.268  25.909  0.00  0.00    +0.000 F 
ATOM     24  C   UNL     1      -0.299  15.934  23.733  0.00  0.00    +0.000 A 
ATOM     25  N   UNL     1       0.782  16.711  24.030  0.00  0.00    +0.000 NA
ATOM     26  C   UNL     1       1.268  17.139  22.882  0.00  0.00    +0.000 A 
ATOM     27  C   UNL     1       2.501  17.965  22.831  0.00  0.00    +0.000 C 
ATOM     28  N   UNL     1       0.492  16.705  21.818  0.00  0.00    +0.000 N 
ATOM     29  C   UNL     1      -0.486  15.875  22.360  0.00  0.00    +0.000 A 
ATOM     30  C   UNL     1      -1.535  15.134  21.794  0.00  0.00    +0.000 A 
BRANCH  28  31
ATOM     31  C   UNL     1       0.484  17.094  20.412  0.00  0.00    +0.000 C 
ATOM     32  C   UNL     1       1.275  16.183  19.493  0.00  0.00    +0.000 C 
ATOM     33  C   UNL     1       2.609  16.883  19.365  0.00  0.00    +0.000 C 
ATOM     34  O   UNL     1       2.386  18.281  19.591  0.00  0.00    +0.000 OA
ATOM     35  C   UNL     1       1.039  18.465  20.054  0.00  0.00    +0.000 C 
ENDBRANCH  28  31
ENDBRANCH  13  20
BRANCH   1  37
ATOM     36  C   UNL     1       2.223   7.416  19.080  0.00  0.00    +0.000 C 
ATOM     37  C   UNL     1       2.325   8.632  18.168  0.00  0.00    +0.000 C 
ENDBRANCH   1  37
TORSDOF 3
ENDMDL
