MODEL 1
REMARK VINA RESULT:     -10.3      0.000      0.000
REMARK  Name = 
REMARK  3 active torsions:
REMARK  status: ('A' for Active; 'I' for Inactive)
REMARK    1  A    between atoms: C_1  and  C_2
REMARK    2  A    between atoms: C_5  and  C_6
REMARK    3  A    between atoms: C_15  and  C_16
REMARK                            x       y       z     vdW  Elec       q    Type
REMARK                         _______ _______ _______ _____ _____    ______ ____
ROOT
ATOM      1  C   UNL     1       1.516   4.897  19.835  0.00  0.00    +0.000 C 
ATOM      2  C   UNL     1       2.661   5.180  18.889  0.00  0.00    +0.000 A 
ATOM      3  C   UNL     1       3.366   4.036  18.462  0.00  0.00    +0.000 A 
ATOM      4  C   UNL     1       4.362   4.121  17.504  0.00  0.00    +0.000 A 
ATOM      5  C   UNL     1       4.700   5.356  16.964  0.00  0.00    +0.000 A 
ATOM      6  C   UNL     1       4.054   6.518  17.424  0.00  0.00    +0.000 A 
ATOM      7  C   UNL     1       3.023   6.474  18.407  0.00  0.00    +0.000 A 
ENDROOT
BRANCH   7   8
ATOM      8  C   UNL     1       2.325   7.740  18.825  0.00  0.00    +0.000 A 
ATOM      9  C   UNL     1       1.808   7.919  20.135  0.00  0.00    +0.000 A 
ATOM     10  C   UNL     1       0.935   8.961  20.484  0.00  0.00    +0.000 A 
ATOM     11  C   UNL     1       0.648   9.923  19.533  0.00  0.00    +0.000 A 
ATOM     12  C   UNL     1       1.422   9.919  18.390  0.00  0.00    +0.000 A 
ATOM     13  C   UNL     1       2.177   8.840  17.964  0.00  0.00    +0.000 A 
ATOM     14  N   UNL     1       1.586  11.240  18.036  0.00  0.00    +0.000 N 
ATOM     15  C   UNL     1       1.034  11.970  19.085  0.00  0.00    +0.000 C 
ATOM     16  O   UNL     1       1.498  13.018  19.525  0.00  0.00    +0.000 OA
ATOM     17  C   UNL     1      -0.252  11.194  19.680  0.00  0.00    +0.000 C 
ATOM     18  C   UNL     1      -1.521  10.252  19.447  0.00  0.00    +0.000 C 
ATOM     19  C   UNL     1      -1.958  10.311  17.993  0.00  0.00    +0.000 C 
ATOM     20  C   UNL     1      -2.137  11.782  17.842  0.00  0.00    +0.000 C 
ATOM     21  C   UNL     1      -1.072  12.353  18.771  0.00  0.00    +0.000 C 
ATOM     22  H   UNL     1       2.423  11.567  17.577  0.00  0.00    +0.000 HD
ENDBRANCH   7   8
BRANCH   5  23
ATOM     23  C   UNL     1       5.693   5.350  15.853  0.00  0.00    +0.000 C 
ATOM     24  O   UNL     1       6.544   6.235  15.855  0.00  0.00    +0.000 OA
ATOM     25  N   UNL     1       5.511   4.385  14.897  0.00  0.00    +0.000 N 
ATOM     26  C   UNL     1       6.267   4.291  13.759  0.00  0.00    +0.000 A 
ATOM     27  N   UNL     1       7.404   5.009  13.526  0.00  0.00    +0.000 NA
ATOM     28  C   UNL     1       7.767   4.634  12.324  0.00  0.00    +0.000 A 
ATOM     29  N   UNL     1       6.880   3.724  11.857  0.00  0.00    +0.000 N 
ATOM     30  N   UNL     1       5.928   3.460  12.769  0.00  0.00    +0.000 NA
ATOM     31  H   UNL     1       4.705   3.781  14.898  0.00  0.00    +0.000 HD
ATOM     32  H   UNL     1       6.853   3.259  10.959  0.00  0.00    +0.000 HD
ENDBRANCH   5  23
TORSDOF 2
ENDMDL
MODEL 2
REMARK VINA RESULT:      -9.4      1.023      1.246
REMARK  Name = 
REMARK  3 active torsions:
REMARK  status: ('A' for Active; 'I' for Inactive)
REMARK    1  A    between atoms: C_1  and  C_2
REMARK    2  A    between atoms: C_5  and  C_6
REMARK    3  A    between atoms: C_15  and  C_16
REMARK                            x       y       z     vdW  Elec       q    Type
REMARK                         _______ _______ _______ _____ _____    ______ ____
ROOT
ATOM      1  C   UNL     1       1.819   5.016  20.985  0.00  0.00    +0.000 C 
ATOM      2  C   UNL     1       2.683   5.022  19.745  0.00  0.00    +0.000 A 
ATOM      3  C   UNL     1       3.294   3.785  19.451  0.00  0.00    +0.000 A 
ATOM      4  C   UNL     1       4.019   3.600  18.284  0.00  0.00    +0.000 A 
ATOM      5  C   UNL     1       4.174   4.653  17.392  0.00  0.00    +0.000 A 
ATOM      6  C   UNL     1       3.627   5.913  17.697  0.00  0.00    +0.000 A 
ATOM      7  C   UNL     1       2.875   6.145  18.885  0.00  0.00    +0.000 A 
ENDROOT
BRANCH   7   8
ATOM      8  C   UNL     1       2.265   7.497  19.140  0.00  0.00    +0.000 A 
ATOM      9  C   UNL     1       1.744   7.863  20.409  0.00  0.00    +0.000 A 
ATOM     10  C   UNL     1       0.944   8.998  20.617  0.00  0.00    +0.000 A 
ATOM     11  C   UNL     1       0.741   9.860  19.555  0.00  0.00    +0.000 A 
ATOM     12  C   UNL     1       1.528   9.669  18.437  0.00  0.00    +0.000 A 
ATOM     13  C   UNL     1       2.209   8.498  18.155  0.00  0.00    +0.000 A 
ATOM     14  N   UNL     1       1.793  10.925  17.938  0.00  0.00    +0.000 N 
ATOM     15  C   UNL     1       1.280  11.809  18.884  0.00  0.00    +0.000 C 
ATOM     16  O   UNL     1       1.813  12.865  19.210  0.00  0.00    +0.000 OA
ATOM     17  C   UNL     1      -0.067  11.200  19.535  0.00  0.00    +0.000 C 
ATOM     18  C   UNL     1      -1.398  10.329  19.384  0.00  0.00    +0.000 C 
ATOM     19  C   UNL     1      -1.809  10.249  17.923  0.00  0.00    +0.000 C 
ATOM     20  C   UNL     1      -1.878  11.702  17.600  0.00  0.00    +0.000 C 
ATOM     21  C   UNL     1      -0.788  12.300  18.481  0.00  0.00    +0.000 C 
ATOM     22  H   UNL     1       2.658  11.136  17.463  0.00  0.00    +0.000 HD
ENDBRANCH   7   8
BRANCH   5  23
ATOM     23  C   UNL     1       4.859   4.343  16.106  0.00  0.00    +0.000 C 
ATOM     24  O   UNL     1       4.533   3.310  15.529  0.00  0.00    +0.000 OA
ATOM     25  N   UNL     1       5.842   5.222  15.727  0.00  0.00    +0.000 N 
ATOM     26  C   UNL     1       6.639   5.042  14.628  0.00  0.00    +0.000 A 
ATOM     27  N   UNL     1       6.435   4.089  13.674  0.00  0.00    +0.000 NA
ATOM     28  C   UNL     1       7.439   4.256  12.848  0.00  0.00    +0.000 A 
ATOM     29  N   UNL     1       8.213   5.274  13.292  0.00  0.00    +0.000 N 
ATOM     30  N   UNL     1       7.705   5.818  14.412  0.00  0.00    +0.000 NA
ATOM     31  H   UNL     1       6.142   5.973  16.327  0.00  0.00    +0.000 HD
ATOM     32  H   UNL     1       9.073   5.641  12.905  0.00  0.00    +0.000 HD
ENDBRANCH   5  23
TORSDOF 2
ENDMDL
MODEL 3
REMARK VINA RESULT:      -9.2      3.879      5.590
REMARK  Name = 
REMARK  3 active torsions:
REMARK  status: ('A' for Active; 'I' for Inactive)
REMARK    1  A    between atoms: C_1  and  C_2
REMARK    2  A    between atoms: C_5  and  C_6
REMARK    3  A    between atoms: C_15  and  C_16
REMARK                            x       y       z     vdW  Elec       q    Type
REMARK                         _______ _______ _______ _____ _____    ______ ____
ROOT
ATOM      1  C   UNL     1       1.417  11.749  18.449  0.00  0.00    +0.000 C 
ATOM      2  C   UNL     1       1.461  10.303  18.887  0.00  0.00    +0.000 A 
ATOM      3  C   UNL     1       2.113   9.437  17.985  0.00  0.00    +0.000 A 
ATOM      4  C   UNL     1       2.338   8.107  18.300  0.00  0.00    +0.000 A 
ATOM      5  C   UNL     1       1.895   7.599  19.516  0.00  0.00    +0.000 A 
ATOM      6  C   UNL     1       1.186   8.430  20.402  0.00  0.00    +0.000 A 
ATOM      7  C   UNL     1       0.934   9.803  20.117  0.00  0.00    +0.000 A 
ENDROOT
BRANCH   7   8
ATOM      8  C   UNL     1       0.219  10.664  21.122  0.00  0.00    +0.000 A 
ATOM      9  C   UNL     1      -0.306  10.135  22.330  0.00  0.00    +0.000 A 
ATOM     10  C   UNL     1      -1.194  10.840  23.160  0.00  0.00    +0.000 A 
ATOM     11  C   UNL     1      -1.488  12.152  22.840  0.00  0.00    +0.000 A 
ATOM     12  C   UNL     1      -0.710  12.747  21.867  0.00  0.00    +0.000 A 
ATOM     13  C   UNL     1       0.061  12.050  20.952  0.00  0.00    +0.000 A 
ATOM     14  N   UNL     1      -0.560  14.062  22.249  0.00  0.00    +0.000 N 
ATOM     15  C   UNL     1      -1.126  14.139  23.519  0.00  0.00    +0.000 C 
ATOM     16  O   UNL     1      -0.677  14.812  24.442  0.00  0.00    +0.000 OA
ATOM     17  C   UNL     1      -2.405  13.157  23.614  0.00  0.00    +0.000 C 
ATOM     18  C   UNL     1      -3.661  12.460  22.915  0.00  0.00    +0.000 C 
ATOM     19  C   UNL     1      -4.093  13.259  21.696  0.00  0.00    +0.000 C 
ATOM     20  C   UNL     1      -4.289  14.594  22.326  0.00  0.00    +0.000 C 
ATOM     21  C   UNL     1      -3.235  14.612  23.427  0.00  0.00    +0.000 C 
ATOM     22  H   UNL     1       0.274  14.585  22.034  0.00  0.00    +0.000 HD
ENDBRANCH   7   8
BRANCH   5  23
ATOM     23  C   UNL     1       2.282   6.196  19.833  0.00  0.00    +0.000 C 
ATOM     24  O   UNL     1       1.651   5.625  20.719  0.00  0.00    +0.000 OA
ATOM     25  N   UNL     1       3.357   5.703  19.140  0.00  0.00    +0.000 N 
ATOM     26  C   UNL     1       3.909   4.471  19.371  0.00  0.00    +0.000 A 
ATOM     27  N   UNL     1       3.354   3.513  20.168  0.00  0.00    +0.000 NA
ATOM     28  C   UNL     1       4.224   2.533  20.128  0.00  0.00    +0.000 A 
ATOM     29  N   UNL     1       5.261   2.893  19.335  0.00  0.00    +0.000 N 
ATOM     30  N   UNL     1       5.069   4.116  18.810  0.00  0.00    +0.000 NA
ATOM     31  H   UNL     1       3.904   6.283  18.526  0.00  0.00    +0.000 HD
ATOM     32  H   UNL     1       6.106   2.383  19.116  0.00  0.00    +0.000 HD
ENDBRANCH   5  23
TORSDOF 2
ENDMDL
MODEL 4
REMARK VINA RESULT:      -9.2      3.756      8.696
REMARK  Name = 
REMARK  3 active torsions:
REMARK  status: ('A' for Active; 'I' for Inactive)
REMARK    1  A    between atoms: C_1  and  C_2
REMARK    2  A    between atoms: C_5  and  C_6
REMARK    3  A    between atoms: C_15  and  C_16
REMARK                            x       y       z     vdW  Elec       q    Type
REMARK                         _______ _______ _______ _____ _____    ______ ____
ROOT
ATOM      1  C   UNL     1      -0.350   8.280  21.602  0.00  0.00    +0.000 C 
ATOM      2  C   UNL     1       0.011   9.497  20.781  0.00  0.00    +0.000 A 
ATOM      3  C   UNL     1      -0.685  10.672  21.136  0.00  0.00    +0.000 A 
ATOM      4  C   UNL     1      -0.378  11.892  20.557  0.00  0.00    +0.000 A 
ATOM      5  C   UNL     1       0.616  11.968  19.588  0.00  0.00    +0.000 A 
ATOM      6  C   UNL     1       1.276  10.798  19.173  0.00  0.00    +0.000 A 
ATOM      7  C   UNL     1       0.992   9.524  19.744  0.00  0.00    +0.000 A 
ENDROOT
BRANCH   7   8
ATOM      8  C   UNL     1       1.765   8.310  19.304  0.00  0.00    +0.000 A 
ATOM      9  C   UNL     1       2.250   8.165  17.977  0.00  0.00    +0.000 A 
ATOM     10  C   UNL     1       2.741   6.953  17.464  0.00  0.00    +0.000 A 
ATOM     11  C   UNL     1       2.857   5.877  18.323  0.00  0.00    +0.000 A 
ATOM     12  C   UNL     1       2.706   6.134  19.671  0.00  0.00    +0.000 A 
ATOM     13  C   UNL     1       2.094   7.265  20.184  0.00  0.00    +0.000 A 
ATOM     14  N   UNL     1       3.588   5.300  20.320  0.00  0.00    +0.000 N 
ATOM     15  C   UNL     1       4.336   4.703  19.310  0.00  0.00    +0.000 C 
ATOM     16  O   UNL     1       5.539   4.466  19.381  0.00  0.00    +0.000 OA
ATOM     17  C   UNL     1       3.408   4.444  18.013  0.00  0.00    +0.000 C 
ATOM     18  C   UNL     1       1.979   4.092  17.392  0.00  0.00    +0.000 C 
ATOM     19  C   UNL     1       1.126   3.365  18.418  0.00  0.00    +0.000 C 
ATOM     20  C   UNL     1       2.042   2.241  18.757  0.00  0.00    +0.000 C 
ATOM     21  C   UNL     1       3.422   2.870  18.614  0.00  0.00    +0.000 C 
ATOM     22  H   UNL     1       4.029   5.565  21.188  0.00  0.00    +0.000 HD
ENDBRANCH   7   8
BRANCH   5  23
ATOM     23  C   UNL     1       0.972  13.332  19.103  0.00  0.00    +0.000 C 
ATOM     24  O   UNL     1       0.071  14.009  18.617  0.00  0.00    +0.000 OA
ATOM     25  N   UNL     1       2.298  13.668  19.192  0.00  0.00    +0.000 N 
ATOM     26  C   UNL     1       2.819  14.838  18.707  0.00  0.00    +0.000 A 
ATOM     27  N   UNL     1       2.073  15.888  18.257  0.00  0.00    +0.000 NA
ATOM     28  C   UNL     1       2.968  16.759  17.862  0.00  0.00    +0.000 A 
ATOM     29  N   UNL     1       4.205  16.248  18.069  0.00  0.00    +0.000 N 
ATOM     30  N   UNL     1       4.139  15.033  18.641  0.00  0.00    +0.000 NA
ATOM     31  H   UNL     1       2.997  13.002  19.479  0.00  0.00    +0.000 HD
ATOM     32  H   UNL     1       5.108  16.649  17.850  0.00  0.00    +0.000 HD
ENDBRANCH   5  23
TORSDOF 2
ENDMDL
MODEL 5
REMARK VINA RESULT:      -9.1      1.513      2.271
REMARK  Name = 
REMARK  3 active torsions:
REMARK  status: ('A' for Active; 'I' for Inactive)
REMARK    1  A    between atoms: C_1  and  C_2
REMARK    2  A    between atoms: C_5  and  C_6
REMARK    3  A    between atoms: C_15  and  C_16
REMARK                            x       y       z     vdW  Elec       q    Type
REMARK                         _______ _______ _______ _____ _____    ______ ____
ROOT
ATOM      1  C   UNL     1       1.514   5.367  20.406  0.00  0.00    +0.000 C 
ATOM      2  C   UNL     1       2.621   5.671  19.423  0.00  0.00    +0.000 A 
ATOM      3  C   UNL     1       3.478   4.585  19.149  0.00  0.00    +0.000 A 
ATOM      4  C   UNL     1       4.465   4.674  18.181  0.00  0.00    +0.000 A 
ATOM      5  C   UNL     1       4.640   5.859  17.478  0.00  0.00    +0.000 A 
ATOM      6  C   UNL     1       3.838   6.975  17.781  0.00  0.00    +0.000 A 
ATOM      7  C   UNL     1       2.812   6.926  18.768  0.00  0.00    +0.000 A 
ENDROOT
BRANCH   7   8
ATOM      8  C   UNL     1       1.946   8.131  19.017  0.00  0.00    +0.000 A 
ATOM      9  C   UNL     1       1.191   8.744  17.983  0.00  0.00    +0.000 A 
ATOM     10  C   UNL     1       0.585  10.004  18.112  0.00  0.00    +0.000 A 
ATOM     11  C   UNL     1       0.636  10.632  19.343  0.00  0.00    +0.000 A 
ATOM     12  C   UNL     1       1.071   9.875  20.412  0.00  0.00    +0.000 A 
ATOM     13  C   UNL     1       1.794   8.700  20.293  0.00  0.00    +0.000 A 
ATOM     14  N   UNL     1       0.333  10.289  21.499  0.00  0.00    +0.000 N 
ATOM     15  C   UNL     1      -0.620  11.162  20.980  0.00  0.00    +0.000 C 
ATOM     16  O   UNL     1      -1.784  11.230  21.364  0.00  0.00    +0.000 OA
ATOM     17  C   UNL     1       0.012  12.006  19.757  0.00  0.00    +0.000 C 
ATOM     18  C   UNL     1       1.273  12.717  19.081  0.00  0.00    +0.000 C 
ATOM     19  C   UNL     1       2.312  13.056  20.137  0.00  0.00    +0.000 C 
ATOM     20  C   UNL     1       1.471  13.855  21.072  0.00  0.00    +0.000 C 
ATOM     21  C   UNL     1       0.101  13.201  20.942  0.00  0.00    +0.000 C 
ATOM     22  H   UNL     1       0.088   9.657  22.246  0.00  0.00    +0.000 HD
ENDBRANCH   7   8
BRANCH   5  23
ATOM     23  C   UNL     1       5.637   5.838  16.371  0.00  0.00    +0.000 C 
ATOM     24  O   UNL     1       6.431   6.772  16.311  0.00  0.00    +0.000 OA
ATOM     25  N   UNL     1       5.521   4.797  15.486  0.00  0.00    +0.000 N 
ATOM     26  C   UNL     1       6.288   4.671  14.358  0.00  0.00    +0.000 A 
ATOM     27  N   UNL     1       7.378   5.441  14.075  0.00  0.00    +0.000 NA
ATOM     28  C   UNL     1       7.771   5.005  12.903  0.00  0.00    +0.000 A 
ATOM     29  N   UNL     1       6.946   4.010  12.501  0.00  0.00    +0.000 N 
ATOM     30  N   UNL     1       6.008   3.751  13.429  0.00  0.00    +0.000 NA
ATOM     31  H   UNL     1       4.755   4.145  15.529  0.00  0.00    +0.000 HD
ATOM     32  H   UNL     1       6.954   3.481  11.639  0.00  0.00    +0.000 HD
ENDBRANCH   5  23
TORSDOF 2
ENDMDL
MODEL 6
REMARK VINA RESULT:      -9.0      3.775      9.167
REMARK  Name = 
REMARK  3 active torsions:
REMARK  status: ('A' for Active; 'I' for Inactive)
REMARK    1  A    between atoms: C_1  and  C_2
REMARK    2  A    between atoms: C_5  and  C_6
REMARK    3  A    between atoms: C_15  and  C_16
REMARK                            x       y       z     vdW  Elec       q    Type
REMARK                         _______ _______ _______ _____ _____    ______ ____
ROOT
ATOM      1  C   UNL     1      -0.412   8.225  21.577  0.00  0.00    +0.000 C 
ATOM      2  C   UNL     1       0.027   9.464  20.830  0.00  0.00    +0.000 A 
ATOM      3  C   UNL     1      -0.635  10.648  21.218  0.00  0.00    +0.000 A 
ATOM      4  C   UNL     1      -0.260  11.881  20.711  0.00  0.00    +0.000 A 
ATOM      5  C   UNL     1       0.771  11.963  19.782  0.00  0.00    +0.000 A 
ATOM      6  C   UNL     1       1.401  10.788  19.334  0.00  0.00    +0.000 A 
ATOM      7  C   UNL     1       1.046   9.500  19.831  0.00  0.00    +0.000 A 
ENDROOT
BRANCH   7   8
ATOM      8  C   UNL     1       1.788   8.279  19.359  0.00  0.00    +0.000 A 
ATOM      9  C   UNL     1       2.213   8.127  18.013  0.00  0.00    +0.000 A 
ATOM     10  C   UNL     1       2.669   6.910  17.481  0.00  0.00    +0.000 A 
ATOM     11  C   UNL     1       2.812   5.833  18.336  0.00  0.00    +0.000 A 
ATOM     12  C   UNL     1       2.722   6.094  19.689  0.00  0.00    +0.000 A 
ATOM     13  C   UNL     1       2.145   7.232  20.226  0.00  0.00    +0.000 A 
ATOM     14  N   UNL     1       3.624   5.252  20.300  0.00  0.00    +0.000 N 
ATOM     15  C   UNL     1       4.322   4.647  19.259  0.00  0.00    +0.000 C 
ATOM     16  O   UNL     1       5.524   4.398  19.278  0.00  0.00    +0.000 OA
ATOM     17  C   UNL     1       3.335   4.395  18.005  0.00  0.00    +0.000 C 
ATOM     18  C   UNL     1       1.877   4.056  17.447  0.00  0.00    +0.000 C 
ATOM     19  C   UNL     1       1.062   3.339  18.511  0.00  0.00    +0.000 C 
ATOM     20  C   UNL     1       1.981   2.206  18.812  0.00  0.00    +0.000 C 
ATOM     21  C   UNL     1       3.360   2.821  18.608  0.00  0.00    +0.000 C 
ATOM     22  H   UNL     1       4.105   5.514  21.147  0.00  0.00    +0.000 HD
ENDBRANCH   7   8
BRANCH   5  23
ATOM     23  C   UNL     1       1.198  13.332  19.378  0.00  0.00    +0.000 C 
ATOM     24  O   UNL     1       2.400  13.579  19.410  0.00  0.00    +0.000 OA
ATOM     25  N   UNL     1       0.186  14.204  19.069  0.00  0.00    +0.000 N 
ATOM     26  C   UNL     1       0.387  15.525  18.771  0.00  0.00    +0.000 A 
ATOM     27  N   UNL     1       1.609  16.091  18.553  0.00  0.00    +0.000 NA
ATOM     28  C   UNL     1       1.334  17.355  18.342  0.00  0.00    +0.000 A 
ATOM     29  N   UNL     1      -0.004  17.538  18.431  0.00  0.00    +0.000 N 
ATOM     30  N   UNL     1      -0.639  16.376  18.670  0.00  0.00    +0.000 NA
ATOM     31  H   UNL     1      -0.783  13.961  19.199  0.00  0.00    +0.000 HD
ATOM     32  H   UNL     1      -0.541  18.392  18.348  0.00  0.00    +0.000 HD
ENDBRANCH   5  23
TORSDOF 2
ENDMDL
MODEL 7
REMARK VINA RESULT:      -8.8      3.917      5.723
REMARK  Name = 
REMARK  3 active torsions:
REMARK  status: ('A' for Active; 'I' for Inactive)
REMARK    1  A    between atoms: C_1  and  C_2
REMARK    2  A    between atoms: C_5  and  C_6
REMARK    3  A    between atoms: C_15  and  C_16
REMARK                            x       y       z     vdW  Elec       q    Type
REMARK                         _______ _______ _______ _____ _____    ______ ____
ROOT
ATOM      1  C   UNL     1       1.886  11.508  18.004  0.00  0.00    +0.000 C 
ATOM      2  C   UNL     1       1.810  10.068  18.456  0.00  0.00    +0.000 A 
ATOM      3  C   UNL     1       2.719   9.203  17.812  0.00  0.00    +0.000 A 
ATOM      4  C   UNL     1       2.851   7.880  18.202  0.00  0.00    +0.000 A 
ATOM      5  C   UNL     1       2.060   7.378  19.229  0.00  0.00    +0.000 A 
ATOM      6  C   UNL     1       1.102   8.207  19.840  0.00  0.00    +0.000 A 
ATOM      7  C   UNL     1       0.934   9.573  19.469  0.00  0.00    +0.000 A 
ENDROOT
BRANCH   7   8
ATOM      8  C   UNL     1      -0.068  10.434  20.191  0.00  0.00    +0.000 A 
ATOM      9  C   UNL     1      -1.104  11.121  19.506  0.00  0.00    +0.000 A 
ATOM     10  C   UNL     1      -1.887  12.124  20.099  0.00  0.00    +0.000 A 
ATOM     11  C   UNL     1      -1.712  12.382  21.446  0.00  0.00    +0.000 A 
ATOM     12  C   UNL     1      -0.953  11.479  22.161  0.00  0.00    +0.000 A 
ATOM     13  C   UNL     1      -0.070  10.578  21.589  0.00  0.00    +0.000 A 
ATOM     14  N   UNL     1      -1.529  11.398  23.409  0.00  0.00    +0.000 N 
ATOM     15  C   UNL     1      -2.703  12.140  23.316  0.00  0.00    +0.000 C 
ATOM     16  O   UNL     1      -3.765  11.834  23.851  0.00  0.00    +0.000 OA
ATOM     17  C   UNL     1      -2.479  13.410  22.344  0.00  0.00    +0.000 C 
ATOM     18  C   UNL     1      -1.518  14.547  21.763  0.00  0.00    +0.000 C 
ATOM     19  C   UNL     1      -0.372  14.807  22.727  0.00  0.00    +0.000 C 
ATOM     20  C   UNL     1      -1.145  15.104  23.965  0.00  0.00    +0.000 C 
ATOM     21  C   UNL     1      -2.377  14.218  23.819  0.00  0.00    +0.000 C 
ATOM     22  H   UNL     1      -1.510  10.546  23.948  0.00  0.00    +0.000 HD
ENDBRANCH   7   8
BRANCH   5  23
ATOM     23  C   UNL     1       2.346   5.985  19.672  0.00  0.00    +0.000 C 
ATOM     24  O   UNL     1       1.613   5.507  20.533  0.00  0.00    +0.000 OA
ATOM     25  N   UNL     1       3.451   5.397  19.112  0.00  0.00    +0.000 N 
ATOM     26  C   UNL     1       3.918   4.161  19.473  0.00  0.00    +0.000 A 
ATOM     27  N   UNL     1       3.248   3.287  20.278  0.00  0.00    +0.000 NA
ATOM     28  C   UNL     1       4.067   2.269  20.382  0.00  0.00    +0.000 A 
ATOM     29  N   UNL     1       5.186   2.526  19.664  0.00  0.00    +0.000 N 
ATOM     30  N   UNL     1       5.103   3.716  19.043  0.00  0.00    +0.000 NA
ATOM     31  H   UNL     1       4.078   5.908  18.513  0.00  0.00    +0.000 HD
ATOM     32  H   UNL     1       6.020   1.964  19.555  0.00  0.00    +0.000 HD
ENDBRANCH   5  23
TORSDOF 2
ENDMDL
MODEL 8
REMARK VINA RESULT:      -8.7      4.445      6.132
REMARK  Name = 
REMARK  3 active torsions:
REMARK  status: ('A' for Active; 'I' for Inactive)
REMARK    1  A    between atoms: C_1  and  C_2
REMARK    2  A    between atoms: C_5  and  C_6
REMARK    3  A    between atoms: C_15  and  C_16
REMARK                            x       y       z     vdW  Elec       q    Type
REMARK                         _______ _______ _______ _____ _____    ______ ____
ROOT
ATOM      1  C   UNL     1       1.096  12.052  18.326  0.00  0.00    +0.000 C 
ATOM      2  C   UNL     1       1.299  10.613  18.742  0.00  0.00    +0.000 A 
ATOM      3  C   UNL     1       1.965   9.815  17.787  0.00  0.00    +0.000 A 
ATOM      4  C   UNL     1       2.330   8.509  18.070  0.00  0.00    +0.000 A 
ATOM      5  C   UNL     1       2.016   7.955  19.305  0.00  0.00    +0.000 A 
ATOM      6  C   UNL     1       1.295   8.712  20.246  0.00  0.00    +0.000 A 
ATOM      7  C   UNL     1       0.902  10.058  19.996  0.00  0.00    +0.000 A 
ENDROOT
BRANCH   7   8
ATOM      8  C   UNL     1       0.179  10.843  21.057  0.00  0.00    +0.000 A 
ATOM      9  C   UNL     1      -0.316  10.235  22.240  0.00  0.00    +0.000 A 
ATOM     10  C   UNL     1      -1.209  10.869  23.118  0.00  0.00    +0.000 A 
ATOM     11  C   UNL     1      -1.540  12.190  22.876  0.00  0.00    +0.000 A 
ATOM     12  C   UNL     1      -0.790  12.857  21.929  0.00  0.00    +0.000 A 
ATOM     13  C   UNL     1      -0.015  12.232  20.967  0.00  0.00    +0.000 A 
ATOM     14  N   UNL     1      -0.667  14.152  22.382  0.00  0.00    +0.000 N 
ATOM     15  C   UNL     1      -1.217  14.144  23.661  0.00  0.00    +0.000 C 
ATOM     16  O   UNL     1      -0.772  14.776  24.615  0.00  0.00    +0.000 OA
ATOM     17  C   UNL     1      -2.470  13.126  23.717  0.00  0.00    +0.000 C 
ATOM     18  C   UNL     1      -3.719  12.438  22.995  0.00  0.00    +0.000 C 
ATOM     19  C   UNL     1      -4.186  13.293  21.829  0.00  0.00    +0.000 C 
ATOM     20  C   UNL     1      -4.406  14.585  22.535  0.00  0.00    +0.000 C 
ATOM     21  C   UNL     1      -3.338  14.568  23.622  0.00  0.00    +0.000 C 
ATOM     22  H   UNL     1       0.151  14.708  22.186  0.00  0.00    +0.000 HD
ENDBRANCH   7   8
BRANCH   5  23
ATOM     23  C   UNL     1       2.548   6.590  19.579  0.00  0.00    +0.000 C 
ATOM     24  O   UNL     1       3.632   6.299  19.081  0.00  0.00    +0.000 OA
ATOM     25  N   UNL     1       1.732   5.770  20.315  0.00  0.00    +0.000 N 
ATOM     26  C   UNL     1       2.016   4.456  20.579  0.00  0.00    +0.000 A 
ATOM     27  N   UNL     1       3.214   3.857  20.319  0.00  0.00    +0.000 NA
ATOM     28  C   UNL     1       3.027   2.614  20.690  0.00  0.00    +0.000 A 
ATOM     29  N   UNL     1       1.764   2.476  21.156  0.00  0.00    +0.000 N 
ATOM     30  N   UNL     1       1.104   3.648  21.129  0.00  0.00    +0.000 NA
ATOM     31  H   UNL     1       0.797   6.042  20.571  0.00  0.00    +0.000 HD
ATOM     32  H   UNL     1       1.292   1.647  21.494  0.00  0.00    +0.000 HD
ENDBRANCH   5  23
TORSDOF 2
ENDMDL
MODEL 9
REMARK VINA RESULT:      -8.6      4.177     10.150
REMARK  Name = 
REMARK  3 active torsions:
REMARK  status: ('A' for Active; 'I' for Inactive)
REMARK    1  A    between atoms: C_1  and  C_2
REMARK    2  A    between atoms: C_5  and  C_6
REMARK    3  A    between atoms: C_15  and  C_16
REMARK                            x       y       z     vdW  Elec       q    Type
REMARK                         _______ _______ _______ _____ _____    ______ ____
ROOT
ATOM      1  C   UNL     1       2.225  11.058  17.683  0.00  0.00    +0.000 C 
ATOM      2  C   UNL     1       1.429  10.974  18.966  0.00  0.00    +0.000 A 
ATOM      3  C   UNL     1       0.855  12.194  19.381  0.00  0.00    +0.000 A 
ATOM      4  C   UNL     1       0.001  12.254  20.470  0.00  0.00    +0.000 A 
ATOM      5  C   UNL     1      -0.283  11.100  21.190  0.00  0.00    +0.000 A 
ATOM      6  C   UNL     1       0.329   9.885  20.832  0.00  0.00    +0.000 A 
ATOM      7  C   UNL     1       1.212   9.780  19.719  0.00  0.00    +0.000 A 
ENDROOT
BRANCH   7   8
ATOM      8  C   UNL     1       1.800   8.447  19.344  0.00  0.00    +0.000 A 
ATOM      9  C   UNL     1       2.123   8.115  18.002  0.00  0.00    +0.000 A 
ATOM     10  C   UNL     1       2.423   6.809  17.581  0.00  0.00    +0.000 A 
ATOM     11  C   UNL     1       2.513   5.816  18.539  0.00  0.00    +0.000 A 
ATOM     12  C   UNL     1       2.534   6.221  19.858  0.00  0.00    +0.000 A 
ATOM     13  C   UNL     1       2.105   7.462  20.299  0.00  0.00    +0.000 A 
ATOM     14  N   UNL     1       3.385   5.357  20.509  0.00  0.00    +0.000 N 
ATOM     15  C   UNL     1       3.954   4.579  19.504  0.00  0.00    +0.000 C 
ATOM     16  O   UNL     1       5.124   4.210  19.488  0.00  0.00    +0.000 OA
ATOM     17  C   UNL     1       2.870   4.306  18.338  0.00  0.00    +0.000 C 
ATOM     18  C   UNL     1       1.354   4.065  17.896  0.00  0.00    +0.000 C 
ATOM     19  C   UNL     1       0.541   3.549  19.071  0.00  0.00    +0.000 C 
ATOM     20  C   UNL     1       1.361   2.363  19.445  0.00  0.00    +0.000 C 
ATOM     21  C   UNL     1       2.779   2.807  19.104  0.00  0.00    +0.000 C 
ATOM     22  H   UNL     1       3.942   5.653  21.297  0.00  0.00    +0.000 HD
ENDBRANCH   7   8
BRANCH   5  23
ATOM     23  C   UNL     1      -1.304  11.221  22.269  0.00  0.00    +0.000 C 
ATOM     24  O   UNL     1      -1.267  10.392  23.174  0.00  0.00    +0.000 OA
ATOM     25  N   UNL     1      -2.230  12.219  22.103  0.00  0.00    +0.000 N 
ATOM     26  C   UNL     1      -3.293  12.415  22.944  0.00  0.00    +0.000 A 
ATOM     27  N   UNL     1      -3.459  11.781  24.140  0.00  0.00    +0.000 NA
ATOM     28  C   UNL     1      -4.608  12.236  24.577  0.00  0.00    +0.000 A 
ATOM     29  N   UNL     1      -5.110  13.110  23.673  0.00  0.00    +0.000 N 
ATOM     30  N   UNL     1      -4.272  13.270  22.634  0.00  0.00    +0.000 NA
ATOM     31  H   UNL     1      -2.271  12.771  21.262  0.00  0.00    +0.000 HD
ATOM     32  H   UNL     1      -5.986  13.617  23.690  0.00  0.00    +0.000 HD
ENDBRANCH   5  23
TORSDOF 2
ENDMDL
