MODEL 1
REMARK VINA RESULT:      -7.6      0.000      0.000
REMARK  Name = 
REMARK  10 active torsions:
REMARK  status: ('A' for Active; 'I' for Inactive)
REMARK    1  A    between atoms: C_1  and  O_2
REMARK    2  A    between atoms: O_2  and  C_3
REMARK    3  A    between atoms: C_6  and  C_7
REMARK    4  A    between atoms: C_7  and  C_9
REMARK    5  A    between atoms: C_12  and  C_13
REMARK    6  A    between atoms: C_13  and  O_15
REMARK    7  A    between atoms: C_18  and  O_19
REMARK    8  A    between atoms: O_19  and  C_20
REMARK    9  A    between atoms: C_21  and  O_22
REMARK   10  A    between atoms: O_22  and  C_23
REMARK                            x       y       z     vdW  Elec       q    Type
REMARK                         _______ _______ _______ _____ _____    ______ ____
ROOT
ATOM      1  C   UNL     1       6.596   6.894  18.032  0.00  0.00    +0.000 A 
ATOM      2  N   UNL     1       6.186   7.319  16.832  0.00  0.00    +0.000 NA
ATOM      3  C   UNL     1       5.100   6.829  16.302  0.00  0.00    +0.000 A 
ATOM      4  C   UNL     1       4.834   5.543  16.563  0.00  0.00    +0.000 A 
ATOM      5  C   UNL     1       4.557   5.615  17.905  0.00  0.00    +0.000 A 
ATOM      6  C   UNL     1       3.355   5.975  18.706  0.00  0.00    +0.000 A 
ATOM      7  C   UNL     1       2.795   5.087  19.631  0.00  0.00    +0.000 A 
ATOM      8  C   UNL     1       3.345   3.840  19.526  0.00  0.00    +0.000 A 
ATOM      9  C   UNL     1       4.815   4.014  19.115  0.00  0.00    +0.000 A 
ATOM     10  C   UNL     1       5.659   5.425  18.583  0.00  0.00    +0.000 A 
ENDROOT
BRANCH   1  11
ATOM     11  C   UNL     1       8.048   7.912  17.705  0.00  0.00    +0.000 C 
ATOM     12  O   UNL     1       8.547   7.787  16.572  0.00  0.00    +0.000 OA
BRANCH  11  16
ATOM     13  C   UNL     1       9.613  12.459  18.822  0.00  0.00    +0.000 A 
ATOM     14  C   UNL     1       8.702  12.169  17.814  0.00  0.00    +0.000 A 
ATOM     15  C   UNL     1       8.168  10.782  17.593  0.00  0.00    +0.000 A 
ATOM     16  C   UNL     1       8.496   9.559  18.340  0.00  0.00    +0.000 A 
ATOM     17  C   UNL     1       9.246   9.988  19.475  0.00  0.00    +0.000 A 
ATOM     18  C   UNL     1       9.796  11.389  19.694  0.00  0.00    +0.000 A 
BRANCH  13  20
ATOM     19  C   UNL     1      11.201  14.171  18.134  0.00  0.00    +0.000 C 
ATOM     20  O   UNL     1      10.099  13.744  18.966  0.00  0.00    +0.000 OA
ENDBRANCH  13  20
ENDBRANCH  11  16
ENDBRANCH   1  11
BRANCH   4  21
ATOM     21  C   UNL     1       5.890   4.465  16.107  0.00  0.00    +0.000 C 
ATOM     22  O   UNL     1       5.611   3.271  16.073  0.00  0.00    +0.000 OA
BRANCH  21  23
ATOM     23  O   UNL     1       7.158   4.864  15.842  0.00  0.00    +0.000 OA
ATOM     24  H   UNL     1       7.669   4.379  15.157  0.00  0.00    +0.000 HD
ENDBRANCH  21  23
ENDBRANCH   4  21
BRANCH   7  25
ATOM     25  O   UNL     1       1.815   5.544  20.461  0.00  0.00    +0.000 OA
ATOM     26  C   UNL     1       1.625   6.954  20.692  0.00  0.00    +0.000 C 
ENDBRANCH   7  25
BRANCH   8  27
ATOM     27  O   UNL     1       2.371   2.919  19.795  0.00  0.00    +0.000 OA
ATOM     28  C   UNL     1       1.336   2.007  19.396  0.00  0.00    +0.000 C 
ENDBRANCH   8  27
TORSDOF 7
ENDMDL
MODEL 2
REMARK VINA RESULT:      -7.4      0.980      1.352
REMARK  Name = 
REMARK  10 active torsions:
REMARK  status: ('A' for Active; 'I' for Inactive)
REMARK    1  A    between atoms: C_1  and  O_2
REMARK    2  A    between atoms: O_2  and  C_3
REMARK    3  A    between atoms: C_6  and  C_7
REMARK    4  A    between atoms: C_7  and  C_9
REMARK    5  A    between atoms: C_12  and  C_13
REMARK    6  A    between atoms: C_13  and  O_15
REMARK    7  A    between atoms: C_18  and  O_19
REMARK    8  A    between atoms: O_19  and  C_20
REMARK    9  A    between atoms: C_21  and  O_22
REMARK   10  A    between atoms: O_22  and  C_23
REMARK                            x       y       z     vdW  Elec       q    Type
REMARK                         _______ _______ _______ _____ _____    ______ ____
ROOT
ATOM      1  C   UNL     1       6.318   6.900  18.154  0.00  0.00    +0.000 A 
ATOM      2  N   UNL     1       5.913   7.205  16.916  0.00  0.00    +0.000 NA
ATOM      3  C   UNL     1       4.771   6.758  16.474  0.00  0.00    +0.000 A 
ATOM      4  C   UNL     1       4.394   5.548  16.906  0.00  0.00    +0.000 A 
ATOM      5  C   UNL     1       4.165   5.819  18.232  0.00  0.00    +0.000 A 
ATOM      6  C   UNL     1       3.026   6.394  18.999  0.00  0.00    +0.000 A 
ATOM      7  C   UNL     1       2.414   5.691  20.043  0.00  0.00    +0.000 A 
ATOM      8  C   UNL     1       2.841   4.394  20.093  0.00  0.00    +0.000 A 
ATOM      9  C   UNL     1       4.308   4.370  19.636  0.00  0.00    +0.000 A 
ATOM     10  C   UNL     1       5.264   5.612  18.909  0.00  0.00    +0.000 A 
ENDROOT
BRANCH   1  11
ATOM     11  C   UNL     1       7.848   7.722  17.671  0.00  0.00    +0.000 C 
ATOM     12  O   UNL     1       8.296   7.409  16.554  0.00  0.00    +0.000 OA
BRANCH  11  16
ATOM     13  C   UNL     1       9.175  12.156  19.391  0.00  0.00    +0.000 A 
ATOM     14  C   UNL     1       9.584  10.947  19.940  0.00  0.00    +0.000 A 
ATOM     15  C   UNL     1       9.248   9.625  19.308  0.00  0.00    +0.000 A 
ATOM     16  C   UNL     1       8.471   9.383  18.083  0.00  0.00    +0.000 A 
ATOM     17  C   UNL     1       8.293  10.662  17.478  0.00  0.00    +0.000 A 
ATOM     18  C   UNL     1       8.622  12.000  18.122  0.00  0.00    +0.000 A 
BRANCH  13  20
ATOM     19  C   UNL     1       8.436  14.324  20.215  0.00  0.00    +0.000 C 
ATOM     20  O   UNL     1       9.481  13.343  20.026  0.00  0.00    +0.000 OA
ENDBRANCH  13  20
ENDBRANCH  11  16
ENDBRANCH   1  11
BRANCH   4  21
ATOM     21  C   UNL     1       5.329   4.324  16.577  0.00  0.00    +0.000 C 
ATOM     22  O   UNL     1       4.954   3.168  16.747  0.00  0.00    +0.000 OA
BRANCH  21  23
ATOM     23  O   UNL     1       6.607   4.562  16.192  0.00  0.00    +0.000 OA
ATOM     24  H   UNL     1       7.326   4.438  16.851  0.00  0.00    +0.000 HD
ENDBRANCH  21  23
ENDBRANCH   4  21
BRANCH   7  25
ATOM     25  O   UNL     1       1.506   6.343  20.822  0.00  0.00    +0.000 OA
ATOM     26  C   UNL     1       1.459   7.783  20.873  0.00  0.00    +0.000 C 
ENDBRANCH   7  25
BRANCH   8  27
ATOM     27  O   UNL     1       1.793   3.613  20.497  0.00  0.00    +0.000 OA
ATOM     28  C   UNL     1       1.200   2.619  21.346  0.00  0.00    +0.000 C 
ENDBRANCH   8  27
TORSDOF 7
ENDMDL
MODEL 3
REMARK VINA RESULT:      -7.3      5.687      9.969
REMARK  Name = 
REMARK  10 active torsions:
REMARK  status: ('A' for Active; 'I' for Inactive)
REMARK    1  A    between atoms: C_1  and  O_2
REMARK    2  A    between atoms: O_2  and  C_3
REMARK    3  A    between atoms: C_6  and  C_7
REMARK    4  A    between atoms: C_7  and  C_9
REMARK    5  A    between atoms: C_12  and  C_13
REMARK    6  A    between atoms: C_13  and  O_15
REMARK    7  A    between atoms: C_18  and  O_19
REMARK    8  A    between atoms: O_19  and  C_20
REMARK    9  A    between atoms: C_21  and  O_22
REMARK   10  A    between atoms: O_22  and  C_23
REMARK                            x       y       z     vdW  Elec       q    Type
REMARK                         _______ _______ _______ _____ _____    ______ ____
ROOT
ATOM      1  C   UNL     1       1.414  10.454  18.651  0.00  0.00    +0.000 A 
ATOM      2  N   UNL     1       0.178   9.991  18.435  0.00  0.00    +0.000 NA
ATOM      3  C   UNL     1      -0.856  10.678  18.835  0.00  0.00    +0.000 A 
ATOM      4  C   UNL     1      -0.708  11.378  19.967  0.00  0.00    +0.000 A 
ATOM      5  C   UNL     1       0.195  12.326  19.556  0.00  0.00    +0.000 A 
ATOM      6  C   UNL     1       0.091  13.620  18.828  0.00  0.00    +0.000 A 
ATOM      7  C   UNL     1       0.565  14.815  19.381  0.00  0.00    +0.000 A 
ATOM      8  C   UNL     1       0.903  14.660  20.696  0.00  0.00    +0.000 A 
ATOM      9  C   UNL     1       1.437  13.229  20.872  0.00  0.00    +0.000 A 
ATOM     10  C   UNL     1       1.408  11.891  19.780  0.00  0.00    +0.000 A 
ENDROOT
BRANCH   1  11
ATOM     11  C   UNL     1       1.940   8.859  17.995  0.00  0.00    +0.000 C 
ATOM     12  O   UNL     1       2.784   8.906  17.083  0.00  0.00    +0.000 OA
BRANCH  11  16
ATOM     13  C   UNL     1       1.750   4.298  19.875  0.00  0.00    +0.000 A 
ATOM     14  C   UNL     1       2.001   4.585  18.539  0.00  0.00    +0.000 A 
ATOM     15  C   UNL     1       2.166   5.994  18.041  0.00  0.00    +0.000 A 
ATOM     16  C   UNL     1       2.087   7.240  18.817  0.00  0.00    +0.000 A 
ATOM     17  C   UNL     1       2.055   6.843  20.186  0.00  0.00    +0.000 A 
ATOM     18  C   UNL     1       1.877   5.419  20.691  0.00  0.00    +0.000 A 
BRANCH  13  20
ATOM     19  C   UNL     1       1.963   2.614  21.620  0.00  0.00    +0.000 C 
ATOM     20  O   UNL     1       1.574   2.989  20.279  0.00  0.00    +0.000 OA
ENDBRANCH  13  20
ENDBRANCH  11  16
ENDBRANCH   1  11
BRANCH   4  21
ATOM     21  C   UNL     1      -0.363  10.583  21.284  0.00  0.00    +0.000 C 
ATOM     22  O   UNL     1      -0.177  11.162  22.350  0.00  0.00    +0.000 OA
BRANCH  21  23
ATOM     23  O   UNL     1      -0.172   9.243  21.208  0.00  0.00    +0.000 OA
ATOM     24  H   UNL     1      -0.270   8.709  22.026  0.00  0.00    +0.000 HD
ENDBRANCH  21  23
ENDBRANCH   4  21
BRANCH   7  25
ATOM     25  O   UNL     1       0.610  15.925  18.592  0.00  0.00    +0.000 OA
ATOM     26  C   UNL     1       1.858  16.579  18.287  0.00  0.00    +0.000 C 
ENDBRANCH   7  25
BRANCH   8  27
ATOM     27  O   UNL     1       0.607  15.821  21.354  0.00  0.00    +0.000 OA
ATOM     28  C   UNL     1      -0.314  16.753  21.940  0.00  0.00    +0.000 C 
ENDBRANCH   8  27
TORSDOF 7
ENDMDL
MODEL 4
REMARK VINA RESULT:      -7.1      3.436      7.741
REMARK  Name = 
REMARK  10 active torsions:
REMARK  status: ('A' for Active; 'I' for Inactive)
REMARK    1  A    between atoms: C_1  and  O_2
REMARK    2  A    between atoms: O_2  and  C_3
REMARK    3  A    between atoms: C_6  and  C_7
REMARK    4  A    between atoms: C_7  and  C_9
REMARK    5  A    between atoms: C_12  and  C_13
REMARK    6  A    between atoms: C_13  and  O_15
REMARK    7  A    between atoms: C_18  and  O_19
REMARK    8  A    between atoms: O_19  and  C_20
REMARK    9  A    between atoms: C_21  and  O_22
REMARK   10  A    between atoms: O_22  and  C_23
REMARK                            x       y       z     vdW  Elec       q    Type
REMARK                         _______ _______ _______ _____ _____    ______ ____
ROOT
ATOM      1  C   UNL     1       5.826   5.438  15.336  0.00  0.00    +0.000 A 
ATOM      2  N   UNL     1       6.755   4.651  15.890  0.00  0.00    +0.000 NA
ATOM      3  C   UNL     1       6.766   4.463  17.180  0.00  0.00    +0.000 A 
ATOM      4  C   UNL     1       6.380   5.496  17.939  0.00  0.00    +0.000 A 
ATOM      5  C   UNL     1       5.049   5.558  17.614  0.00  0.00    +0.000 A 
ATOM      6  C   UNL     1       3.829   4.835  18.066  0.00  0.00    +0.000 A 
ATOM      7  C   UNL     1       2.729   5.512  18.603  0.00  0.00    +0.000 A 
ATOM      8  C   UNL     1       3.018   6.826  18.846  0.00  0.00    +0.000 A 
ATOM      9  C   UNL     1       4.013   7.289  17.770  0.00  0.00    +0.000 A 
ATOM     10  C   UNL     1       4.890   6.368  16.600  0.00  0.00    +0.000 A 
ENDROOT
BRANCH   1  11
ATOM     11  C   UNL     1       6.761   5.180  13.816  0.00  0.00    +0.000 C 
ATOM     12  O   UNL     1       7.915   5.645  13.810  0.00  0.00    +0.000 OA
BRANCH  11  16
ATOM     13  C   UNL     1       6.294   1.098  11.078  0.00  0.00    +0.000 A 
ATOM     14  C   UNL     1       5.227   1.857  11.542  0.00  0.00    +0.000 A 
ATOM     15  C   UNL     1       5.426   3.156  12.271  0.00  0.00    +0.000 A 
ATOM     16  C   UNL     1       6.697   3.813  12.614  0.00  0.00    +0.000 A 
ATOM     17  C   UNL     1       7.707   3.092  11.912  0.00  0.00    +0.000 A 
ATOM     18  C   UNL     1       7.509   1.772  11.184  0.00  0.00    +0.000 A 
BRANCH  13  20
ATOM     19  C   UNL     1       5.824  -1.285  11.241  0.00  0.00    +0.000 C 
ATOM     20  O   UNL     1       6.062  -0.105  10.441  0.00  0.00    +0.000 OA
ENDBRANCH  13  20
ENDBRANCH  11  16
ENDBRANCH   1  11
BRANCH   4  21
ATOM     21  C   UNL     1       7.206   6.835  17.835  0.00  0.00    +0.000 C 
ATOM     22  O   UNL     1       7.084   7.590  16.875  0.00  0.00    +0.000 OA
BRANCH  21  23
ATOM     23  O   UNL     1       8.140   7.101  18.781  0.00  0.00    +0.000 OA
ATOM     24  H   UNL     1       8.112   6.596  19.623  0.00  0.00    +0.000 HD
ENDBRANCH  21  23
ENDBRANCH   4  21
BRANCH   7  25
ATOM     25  O   UNL     1       1.578   4.815  18.822  0.00  0.00    +0.000 OA
ATOM     26  C   UNL     1       1.552   3.375  18.766  0.00  0.00    +0.000 C 
ENDBRANCH   7  25
BRANCH   8  27
ATOM     27  O   UNL     1       2.339   7.213  19.967  0.00  0.00    +0.000 OA
ATOM     28  C   UNL     1       1.494   8.118  20.696  0.00  0.00    +0.000 C 
ENDBRANCH   8  27
TORSDOF 7
ENDMDL
MODEL 5
REMARK VINA RESULT:      -7.1      2.841      7.334
REMARK  Name = 
REMARK  10 active torsions:
REMARK  status: ('A' for Active; 'I' for Inactive)
REMARK    1  A    between atoms: C_1  and  O_2
REMARK    2  A    between atoms: O_2  and  C_3
REMARK    3  A    between atoms: C_6  and  C_7
REMARK    4  A    between atoms: C_7  and  C_9
REMARK    5  A    between atoms: C_12  and  C_13
REMARK    6  A    between atoms: C_13  and  O_15
REMARK    7  A    between atoms: C_18  and  O_19
REMARK    8  A    between atoms: O_19  and  C_20
REMARK    9  A    between atoms: C_21  and  O_22
REMARK   10  A    between atoms: O_22  and  C_23
REMARK                            x       y       z     vdW  Elec       q    Type
REMARK                         _______ _______ _______ _____ _____    ______ ____
ROOT
ATOM      1  C   UNL     1       3.026   6.345  19.126  0.00  0.00    +0.000 A 
ATOM      2  N   UNL     1       3.322   5.476  20.098  0.00  0.00    +0.000 NA
ATOM      3  C   UNL     1       4.324   4.654  19.956  0.00  0.00    +0.000 A 
ATOM      4  C   UNL     1       4.563   4.211  18.715  0.00  0.00    +0.000 A 
ATOM      5  C   UNL     1       4.985   5.371  18.116  0.00  0.00    +0.000 A 
ATOM      6  C   UNL     1       6.281   6.102  18.052  0.00  0.00    +0.000 A 
ATOM      7  C   UNL     1       6.900   6.396  16.832  0.00  0.00    +0.000 A 
ATOM      8  C   UNL     1       6.291   5.750  15.792  0.00  0.00    +0.000 A 
ATOM      9  C   UNL     1       4.794   5.649  16.121  0.00  0.00    +0.000 A 
ATOM     10  C   UNL     1       3.956   5.986  17.594  0.00  0.00    +0.000 A 
ENDROOT
BRANCH   1  11
ATOM     11  C   UNL     1       1.591   6.733  20.146  0.00  0.00    +0.000 C 
ATOM     12  O   UNL     1       1.203   5.819  20.897  0.00  0.00    +0.000 OA
BRANCH  11  16
ATOM     13  C   UNL     1      -0.360  10.652  22.428  0.00  0.00    +0.000 A 
ATOM     14  C   UNL     1       0.338   9.638  23.071  0.00  0.00    +0.000 A 
ATOM     15  C   UNL     1       1.014   8.528  22.316  0.00  0.00    +0.000 A 
ATOM     16  C   UNL     1       1.050   8.318  20.861  0.00  0.00    +0.000 A 
ATOM     17  C   UNL     1       0.514   9.508  20.285  0.00  0.00    +0.000 A 
ATOM     18  C   UNL     1      -0.180  10.625  21.047  0.00  0.00    +0.000 A 
BRANCH  13  20
ATOM     19  C   UNL     1      -2.304  12.080  22.758  0.00  0.00    +0.000 C 
ATOM     20  O   UNL     1      -0.991  11.633  23.167  0.00  0.00    +0.000 OA
ENDBRANCH  13  20
ENDBRANCH  11  16
ENDBRANCH   1  11
BRANCH   4  21
ATOM     21  C   UNL     1       3.422   3.404  17.988  0.00  0.00    +0.000 C 
ATOM     22  O   UNL     1       3.587   2.927  16.869  0.00  0.00    +0.000 OA
BRANCH  21  23
ATOM     23  O   UNL     1       2.202   3.324  18.575  0.00  0.00    +0.000 OA
ATOM     24  H   UNL     1       2.030   2.585  19.199  0.00  0.00    +0.000 HD
ENDBRANCH  21  23
ENDBRANCH   4  21
BRANCH   7  25
ATOM     25  O   UNL     1       7.981   7.225  16.833  0.00  0.00    +0.000 OA
ATOM     26  C   UNL     1       8.028   8.394  17.675  0.00  0.00    +0.000 C 
ENDBRANCH   7  25
BRANCH   8  27
ATOM     27  O   UNL     1       7.250   5.415  14.877  0.00  0.00    +0.000 OA
ATOM     28  C   UNL     1       7.670   4.987  13.572  0.00  0.00    +0.000 C 
ENDBRANCH   8  27
TORSDOF 7
ENDMDL
MODEL 6
REMARK VINA RESULT:      -7.0      2.830      6.904
REMARK  Name = 
REMARK  10 active torsions:
REMARK  status: ('A' for Active; 'I' for Inactive)
REMARK    1  A    between atoms: C_1  and  O_2
REMARK    2  A    between atoms: O_2  and  C_3
REMARK    3  A    between atoms: C_6  and  C_7
REMARK    4  A    between atoms: C_7  and  C_9
REMARK    5  A    between atoms: C_12  and  C_13
REMARK    6  A    between atoms: C_13  and  O_15
REMARK    7  A    between atoms: C_18  and  O_19
REMARK    8  A    between atoms: O_19  and  C_20
REMARK    9  A    between atoms: C_21  and  O_22
REMARK   10  A    between atoms: O_22  and  C_23
REMARK                            x       y       z     vdW  Elec       q    Type
REMARK                         _______ _______ _______ _____ _____    ______ ____
ROOT
ATOM      1  C   UNL     1       3.076   6.099  19.122  0.00  0.00    +0.000 A 
ATOM      2  N   UNL     1       3.435   5.276  20.112  0.00  0.00    +0.000 NA
ATOM      3  C   UNL     1       4.481   4.509  19.977  0.00  0.00    +0.000 A 
ATOM      4  C   UNL     1       4.728   4.047  18.745  0.00  0.00    +0.000 A 
ATOM      5  C   UNL     1       5.074   5.212  18.109  0.00  0.00    +0.000 A 
ATOM      6  C   UNL     1       6.325   6.014  18.006  0.00  0.00    +0.000 A 
ATOM      7  C   UNL     1       6.909   6.309  16.769  0.00  0.00    +0.000 A 
ATOM      8  C   UNL     1       6.325   5.601  15.756  0.00  0.00    +0.000 A 
ATOM      9  C   UNL     1       4.840   5.423  16.111  0.00  0.00    +0.000 A 
ATOM     10  C   UNL     1       4.004   5.752  17.587  0.00  0.00    +0.000 A 
ENDROOT
BRANCH   1  11
ATOM     11  C   UNL     1       1.634   6.432  20.153  0.00  0.00    +0.000 C 
ATOM     12  O   UNL     1       1.382   5.573  21.016  0.00  0.00    +0.000 OA
BRANCH  11  16
ATOM     13  C   UNL     1       0.374  10.978  21.608  0.00  0.00    +0.000 A 
ATOM     14  C   UNL     1       0.805  10.657  20.327  0.00  0.00    +0.000 A 
ATOM     15  C   UNL     1       1.063   9.238  19.902  0.00  0.00    +0.000 A 
ATOM     16  C   UNL     1       0.927   8.016  20.708  0.00  0.00    +0.000 A 
ATOM     17  C   UNL     1       0.274   8.416  21.911  0.00  0.00    +0.000 A 
ATOM     18  C   UNL     1       0.023   9.851  22.347  0.00  0.00    +0.000 A 
BRANCH  13  20
ATOM     19  C   UNL     1       0.052  13.290  20.917  0.00  0.00    +0.000 C 
ATOM     20  O   UNL     1       0.181  12.299  21.961  0.00  0.00    +0.000 OA
ENDBRANCH  13  20
ENDBRANCH  11  16
ENDBRANCH   1  11
BRANCH   4  21
ATOM     21  C   UNL     1       3.625   3.155  18.057  0.00  0.00    +0.000 C 
ATOM     22  O   UNL     1       3.849   2.555  17.011  0.00  0.00    +0.000 OA
BRANCH  21  23
ATOM     23  O   UNL     1       2.377   3.137  18.586  0.00  0.00    +0.000 OA
ATOM     24  H   UNL     1       1.674   3.663  18.145  0.00  0.00    +0.000 HD
ENDBRANCH  21  23
ENDBRANCH   4  21
BRANCH   7  25
ATOM     25  O   UNL     1       7.941   7.199  16.732  0.00  0.00    +0.000 OA
ATOM     26  C   UNL     1       7.996   8.320  17.636  0.00  0.00    +0.000 C 
ENDBRANCH   7  25
BRANCH   8  27
ATOM     27  O   UNL     1       7.289   5.296  14.836  0.00  0.00    +0.000 OA
ATOM     28  C   UNL     1       7.768   5.170  13.488  0.00  0.00    +0.000 C 
ENDBRANCH   8  27
TORSDOF 7
ENDMDL
MODEL 7
REMARK VINA RESULT:      -6.9      5.430      9.706
REMARK  Name = 
REMARK  10 active torsions:
REMARK  status: ('A' for Active; 'I' for Inactive)
REMARK    1  A    between atoms: C_1  and  O_2
REMARK    2  A    between atoms: O_2  and  C_3
REMARK    3  A    between atoms: C_6  and  C_7
REMARK    4  A    between atoms: C_7  and  C_9
REMARK    5  A    between atoms: C_12  and  C_13
REMARK    6  A    between atoms: C_13  and  O_15
REMARK    7  A    between atoms: C_18  and  O_19
REMARK    8  A    between atoms: O_19  and  C_20
REMARK    9  A    between atoms: C_21  and  O_22
REMARK   10  A    between atoms: O_22  and  C_23
REMARK                            x       y       z     vdW  Elec       q    Type
REMARK                         _______ _______ _______ _____ _____    ______ ____
ROOT
ATOM      1  C   UNL     1       1.575  10.118  18.489  0.00  0.00    +0.000 A 
ATOM      2  N   UNL     1       0.361   9.691  18.125  0.00  0.00    +0.000 NA
ATOM      3  C   UNL     1      -0.696  10.385  18.440  0.00  0.00    +0.000 A 
ATOM      4  C   UNL     1      -0.658  11.038  19.609  0.00  0.00    +0.000 A 
ATOM      5  C   UNL     1       0.300  11.980  19.333  0.00  0.00    +0.000 A 
ATOM      6  C   UNL     1       0.298  13.304  18.651  0.00  0.00    +0.000 A 
ATOM      7  C   UNL     1       0.731  14.466  19.298  0.00  0.00    +0.000 A 
ATOM      8  C   UNL     1       0.925  14.254  20.634  0.00  0.00    +0.000 A 
ATOM      9  C   UNL     1       1.411  12.806  20.809  0.00  0.00    +0.000 A 
ATOM     10  C   UNL     1       1.475  11.512  19.666  0.00  0.00    +0.000 A 
ENDROOT
BRANCH   1  11
ATOM     11  C   UNL     1       2.140   8.538  17.828  0.00  0.00    +0.000 C 
ATOM     12  O   UNL     1       3.129   8.593  17.076  0.00  0.00    +0.000 OA
BRANCH  11  16
ATOM     13  C   UNL     1       2.563   4.194  20.136  0.00  0.00    +0.000 A 
ATOM     14  C   UNL     1       2.295   5.398  20.774  0.00  0.00    +0.000 A 
ATOM     15  C   UNL     1       2.058   6.672  20.013  0.00  0.00    +0.000 A 
ATOM     16  C   UNL     1       2.076   6.870  18.556  0.00  0.00    +0.000 A 
ATOM     17  C   UNL     1       2.132   5.562  17.989  0.00  0.00    +0.000 A 
ATOM     18  C   UNL     1       2.383   4.274  18.757  0.00  0.00    +0.000 A 
BRANCH  13  20
ATOM     19  C   UNL     1       1.767   2.557  21.753  0.00  0.00    +0.000 C 
ATOM     20  O   UNL     1       2.805   3.055  20.879  0.00  0.00    +0.000 OA
ENDBRANCH  13  20
ENDBRANCH  11  16
ENDBRANCH   1  11
BRANCH   4  21
ATOM     21  C   UNL     1      -0.468  10.187  20.922  0.00  0.00    +0.000 C 
ATOM     22  O   UNL     1      -0.521  10.705  22.033  0.00  0.00    +0.000 OA
BRANCH  21  23
ATOM     23  O   UNL     1      -0.143   8.875  20.810  0.00  0.00    +0.000 OA
ATOM     24  H   UNL     1      -0.702   8.213  21.273  0.00  0.00    +0.000 HD
ENDBRANCH  21  23
ENDBRANCH   4  21
BRANCH   7  25
ATOM     25  O   UNL     1       0.879  15.604  18.563  0.00  0.00    +0.000 OA
ATOM     26  C   UNL     1       2.181  16.167  18.308  0.00  0.00    +0.000 C 
ENDBRANCH   7  25
BRANCH   8  27
ATOM     27  O   UNL     1       0.581  15.395  21.303  0.00  0.00    +0.000 OA
ATOM     28  C   UNL     1       0.691  16.305  22.409  0.00  0.00    +0.000 C 
ENDBRANCH   8  27
TORSDOF 7
ENDMDL
MODEL 8
REMARK VINA RESULT:      -6.7      6.198      9.887
REMARK  Name = 
REMARK  10 active torsions:
REMARK  status: ('A' for Active; 'I' for Inactive)
REMARK    1  A    between atoms: C_1  and  O_2
REMARK    2  A    between atoms: O_2  and  C_3
REMARK    3  A    between atoms: C_6  and  C_7
REMARK    4  A    between atoms: C_7  and  C_9
REMARK    5  A    between atoms: C_12  and  C_13
REMARK    6  A    between atoms: C_13  and  O_15
REMARK    7  A    between atoms: C_18  and  O_19
REMARK    8  A    between atoms: O_19  and  C_20
REMARK    9  A    between atoms: C_21  and  O_22
REMARK   10  A    between atoms: O_22  and  C_23
REMARK                            x       y       z     vdW  Elec       q    Type
REMARK                         _______ _______ _______ _____ _____    ______ ____
ROOT
ATOM      1  C   UNL     1       0.116  10.531  19.328  0.00  0.00    +0.000 A 
ATOM      2  N   UNL     1       1.243  11.007  19.868  0.00  0.00    +0.000 NA
ATOM      3  C   UNL     1       1.206  12.063  20.632  0.00  0.00    +0.000 A 
ATOM      4  C   UNL     1       0.295  12.994  20.321  0.00  0.00    +0.000 A 
ATOM      5  C   UNL     1      -0.861  12.318  20.617  0.00  0.00    +0.000 A 
ATOM      6  C   UNL     1      -1.628  12.056  21.866  0.00  0.00    +0.000 A 
ATOM      7  C   UNL     1      -2.968  12.435  21.999  0.00  0.00    +0.000 A 
ATOM      8  C   UNL     1      -3.369  13.234  20.965  0.00  0.00    +0.000 A 
ATOM      9  C   UNL     1      -2.608  12.783  19.709  0.00  0.00    +0.000 A 
ATOM     10  C   UNL     1      -1.279  11.691  19.548  0.00  0.00    +0.000 A 
ENDROOT
BRANCH   1  11
ATOM     11  C   UNL     1       1.216   9.402  18.452  0.00  0.00    +0.000 C 
ATOM     12  O   UNL     1       1.942   9.923  17.587  0.00  0.00    +0.000 OA
BRANCH  11  16
ATOM     13  C   UNL     1       3.095   4.944  19.437  0.00  0.00    +0.000 A 
ATOM     14  C   UNL     1       3.437   5.712  18.332  0.00  0.00    +0.000 A 
ATOM     15  C   UNL     1       2.926   7.113  18.140  0.00  0.00    +0.000 A 
ATOM     16  C   UNL     1       2.024   7.872  19.020  0.00  0.00    +0.000 A 
ATOM     17  C   UNL     1       1.913   7.103  20.216  0.00  0.00    +0.000 A 
ATOM     18  C   UNL     1       2.420   5.682  20.406  0.00  0.00    +0.000 A 
BRANCH  13  20
ATOM     19  C   UNL     1       3.845   2.898  18.351  0.00  0.00    +0.000 C 
ATOM     20  O   UNL     1       3.565   3.651  19.554  0.00  0.00    +0.000 OA
ENDBRANCH  13  20
ENDBRANCH  11  16
ENDBRANCH   1  11
BRANCH   4  21
ATOM     21  C   UNL     1       0.387  13.669  18.899  0.00  0.00    +0.000 C 
ATOM     22  O   UNL     1      -0.250  14.682  18.630  0.00  0.00    +0.000 OA
BRANCH  21  23
ATOM     23  O   UNL     1       1.109  13.054  17.930  0.00  0.00    +0.000 OA
ATOM     24  H   UNL     1       1.315  13.556  17.111  0.00  0.00    +0.000 HD
ENDBRANCH  21  23
ENDBRANCH   4  21
BRANCH   7  25
ATOM     25  O   UNL     1      -3.662  12.002  23.090  0.00  0.00    +0.000 OA
ATOM     26  C   UNL     1      -3.651  12.741  24.327  0.00  0.00    +0.000 C 
ENDBRANCH   7  25
BRANCH   8  27
ATOM     27  O   UNL     1      -4.265  14.145  21.451  0.00  0.00    +0.000 OA
ATOM     28  C   UNL     1      -4.650  15.475  21.829  0.00  0.00    +0.000 C 
ENDBRANCH   8  27
TORSDOF 7
ENDMDL
MODEL 9
REMARK VINA RESULT:      -6.7      5.423     10.128
REMARK  Name = 
REMARK  10 active torsions:
REMARK  status: ('A' for Active; 'I' for Inactive)
REMARK    1  A    between atoms: C_1  and  O_2
REMARK    2  A    between atoms: O_2  and  C_3
REMARK    3  A    between atoms: C_6  and  C_7
REMARK    4  A    between atoms: C_7  and  C_9
REMARK    5  A    between atoms: C_12  and  C_13
REMARK    6  A    between atoms: C_13  and  O_15
REMARK    7  A    between atoms: C_18  and  O_19
REMARK    8  A    between atoms: O_19  and  C_20
REMARK    9  A    between atoms: C_21  and  O_22
REMARK   10  A    between atoms: O_22  and  C_23
REMARK                            x       y       z     vdW  Elec       q    Type
REMARK                         _______ _______ _______ _____ _____    ______ ____
ROOT
ATOM      1  C   UNL     1       1.211  10.415  20.301  0.00  0.00    +0.000 A 
ATOM      2  N   UNL     1       0.261  10.023  19.446  0.00  0.00    +0.000 NA
ATOM      3  C   UNL     1      -0.319  10.896  18.670  0.00  0.00    +0.000 A 
ATOM      4  C   UNL     1      -0.489  12.125  19.174  0.00  0.00    +0.000 A 
ATOM      5  C   UNL     1       0.816  12.544  19.245  0.00  0.00    +0.000 A 
ATOM      6  C   UNL     1       1.780  13.129  18.273  0.00  0.00    +0.000 A 
ATOM      7  C   UNL     1       2.390  14.368  18.497  0.00  0.00    +0.000 A 
ATOM      8  C   UNL     1       1.830  15.019  19.560  0.00  0.00    +0.000 A 
ATOM      9  C   UNL     1       1.391  13.954  20.578  0.00  0.00    +0.000 A 
ATOM     10  C   UNL     1       1.304  12.236  20.418  0.00  0.00    +0.000 A 
ENDROOT
BRANCH   1  11
ATOM     11  C   UNL     1       1.138   8.713  20.893  0.00  0.00    +0.000 C 
ATOM     12  O   UNL     1       0.125   8.417  21.550  0.00  0.00    +0.000 OA
BRANCH  11  16
ATOM     13  C   UNL     1       2.535   4.718  18.351  0.00  0.00    +0.000 A 
ATOM     14  C   UNL     1       2.846   6.023  17.993  0.00  0.00    +0.000 A 
ATOM     15  C   UNL     1       2.499   7.197  18.865  0.00  0.00    +0.000 A 
ATOM     16  C   UNL     1       1.803   7.184  20.161  0.00  0.00    +0.000 A 
ATOM     17  C   UNL     1       1.729   5.813  20.546  0.00  0.00    +0.000 A 
ATOM     18  C   UNL     1       2.070   4.625  19.661  0.00  0.00    +0.000 A 
BRANCH  13  20
ATOM     19  C   UNL     1       3.204   2.394  18.071  0.00  0.00    +0.000 C 
ATOM     20  O   UNL     1       2.847   3.674  17.502  0.00  0.00    +0.000 OA
ENDBRANCH  13  20
ENDBRANCH  11  16
ENDBRANCH   1  11
BRANCH   4  21
ATOM     21  C   UNL     1      -1.361  12.273  20.478  0.00  0.00    +0.000 C 
ATOM     22  O   UNL     1      -1.918  13.330  20.759  0.00  0.00    +0.000 OA
BRANCH  21  23
ATOM     23  O   UNL     1      -1.411  11.238  21.352  0.00  0.00    +0.000 OA
ATOM     24  H   UNL     1      -0.616  11.047  21.898  0.00  0.00    +0.000 HD
ENDBRANCH  21  23
ENDBRANCH   4  21
BRANCH   7  25
ATOM     25  O   UNL     1       3.398  14.758  17.665  0.00  0.00    +0.000 OA
ATOM     26  C   UNL     1       4.761  14.836  18.125  0.00  0.00    +0.000 C 
ENDBRANCH   7  25
BRANCH   8  27
ATOM     27  O   UNL     1       1.845  16.360  19.297  0.00  0.00    +0.000 OA
ATOM     28  C   UNL     1       1.399  17.523  18.581  0.00  0.00    +0.000 C 
ENDBRANCH   8  27
TORSDOF 7
ENDMDL
