MODEL 1
REMARK VINA RESULT:      -3.5      0.000      0.000
REMARK  Name = 
REMARK  5 active torsions:
REMARK  status: ('A' for Active; 'I' for Inactive)
REMARK    1  A    between atoms: N_1  and  C_2
REMARK    2  A    between atoms: C_2  and  C_3
REMARK    3  A    between atoms: C_3  and  C_4
REMARK    4  A    between atoms: C_4  and  C_5
REMARK    5  A    between atoms: C_5  and  C_6
REMARK                            x       y       z     vdW  Elec       q    Type
REMARK                         _______ _______ _______ _____ _____    ______ ____
ROOT
ATOM      1  C   UNL     1       2.861   3.864  18.665  0.00  0.00    +0.000 C 
ENDROOT
BRANCH   1   2
ATOM      2  C   UNL     1       3.668   2.571  18.598  0.00  0.00    +0.000 C 
BRANCH   2   3
ATOM      3  N   UNL     1       4.717   2.589  19.611  0.00  0.00    +0.000 NA
ATOM      4  H   UNL     1       4.418   3.169  20.394  0.00  0.00    +0.000 HD
ATOM      5  H   UNL     1       5.552   3.032  19.231  0.00  0.00    +0.000 HD
ENDBRANCH   2   3
ENDBRANCH   1   2
BRANCH   1   6
ATOM      6  C   UNL     1       1.458   3.609  19.209  0.00  0.00    +0.000 C 
BRANCH   6   7
ATOM      7  C   UNL     1       1.370   3.958  20.691  0.00  0.00    +0.000 C 
BRANCH   7   8
ATOM      8  C   UNL     1       1.558   2.733  21.552  0.00  0.00    +0.000 C 
ATOM      9  O   UNL     1       2.581   2.481  22.185  0.00  0.00    +0.000 OA
ENDBRANCH   7   8
ENDBRANCH   6   7
ENDBRANCH   1   6
TORSDOF 5
ENDMDL
MODEL 2
REMARK VINA RESULT:      -3.5      7.449      8.131
REMARK  Name = 
REMARK  5 active torsions:
REMARK  status: ('A' for Active; 'I' for Inactive)
REMARK    1  A    between atoms: N_1  and  C_2
REMARK    2  A    between atoms: C_2  and  C_3
REMARK    3  A    between atoms: C_3  and  C_4
REMARK    4  A    between atoms: C_4  and  C_5
REMARK    5  A    between atoms: C_5  and  C_6
REMARK                            x       y       z     vdW  Elec       q    Type
REMARK                         _______ _______ _______ _____ _____    ______ ____
ROOT
ATOM      1  C   UNL     1       5.286   3.246  11.955  0.00  0.00    +0.000 C 
ENDROOT
BRANCH   1   2
ATOM      2  C   UNL     1       5.633   1.887  11.355  0.00  0.00    +0.000 C 
BRANCH   2   3
ATOM      3  N   UNL     1       7.072   1.665  11.431  0.00  0.00    +0.000 NA
ATOM      4  H   UNL     1       7.377   1.767  12.399  0.00  0.00    +0.000 HD
ATOM      5  H   UNL     1       7.559   2.387  10.902  0.00  0.00    +0.000 HD
ENDBRANCH   2   3
ENDBRANCH   1   2
BRANCH   1   6
ATOM      6  C   UNL     1       6.385   3.728  12.898  0.00  0.00    +0.000 C 
BRANCH   6   7
ATOM      7  C   UNL     1       5.802   4.214  14.220  0.00  0.00    +0.000 C 
BRANCH   7   8
ATOM      8  C   UNL     1       6.892   4.548  15.209  0.00  0.00    +0.000 C 
ATOM      9  O   UNL     1       7.577   5.568  15.167  0.00  0.00    +0.000 OA
ENDBRANCH   7   8
ENDBRANCH   6   7
ENDBRANCH   1   6
TORSDOF 5
ENDMDL
MODEL 3
REMARK VINA RESULT:      -3.4      5.861      6.184
REMARK  Name = 
REMARK  5 active torsions:
REMARK  status: ('A' for Active; 'I' for Inactive)
REMARK    1  A    between atoms: N_1  and  C_2
REMARK    2  A    between atoms: C_2  and  C_3
REMARK    3  A    between atoms: C_3  and  C_4
REMARK    4  A    between atoms: C_4  and  C_5
REMARK    5  A    between atoms: C_5  and  C_6
REMARK                            x       y       z     vdW  Elec       q    Type
REMARK                         _______ _______ _______ _____ _____    ______ ____
ROOT
ATOM      1  C   UNL     1       7.021   4.774  16.822  0.00  0.00    +0.000 C 
ENDROOT
BRANCH   1   2
ATOM      2  C   UNL     1       6.769   4.407  15.363  0.00  0.00    +0.000 C 
BRANCH   2   3
ATOM      3  N   UNL     1       7.444   5.359  14.489  0.00  0.00    +0.000 NA
ATOM      4  H   UNL     1       7.854   6.101  15.054  0.00  0.00    +0.000 HD
ATOM      5  H   UNL     1       6.762   5.808  13.879  0.00  0.00    +0.000 HD
ENDBRANCH   2   3
ENDBRANCH   1   2
BRANCH   1   6
ATOM      6  C   UNL     1       7.253   6.274  16.980  0.00  0.00    +0.000 C 
BRANCH   6   7
ATOM      7  C   UNL     1       7.723   6.613  18.391  0.00  0.00    +0.000 C 
BRANCH   7   8
ATOM      8  C   UNL     1       7.195   5.619  19.396  0.00  0.00    +0.000 C 
ATOM      9  O   UNL     1       7.809   5.250  20.395  0.00  0.00    +0.000 OA
ENDBRANCH   7   8
ENDBRANCH   6   7
ENDBRANCH   1   6
TORSDOF 5
ENDMDL
MODEL 4
REMARK VINA RESULT:      -3.3      7.719      8.521
REMARK  Name = 
REMARK  5 active torsions:
REMARK  status: ('A' for Active; 'I' for Inactive)
REMARK    1  A    between atoms: N_1  and  C_2
REMARK    2  A    between atoms: C_2  and  C_3
REMARK    3  A    between atoms: C_3  and  C_4
REMARK    4  A    between atoms: C_4  and  C_5
REMARK    5  A    between atoms: C_5  and  C_6
REMARK                            x       y       z     vdW  Elec       q    Type
REMARK                         _______ _______ _______ _____ _____    ______ ____
ROOT
ATOM      1  C   UNL     1       5.646   2.314  11.557  0.00  0.00    +0.000 C 
ENDROOT
BRANCH   1   2
ATOM      2  C   UNL     1       6.639   1.268  11.058  0.00  0.00    +0.000 C 
BRANCH   2   3
ATOM      3  N   UNL     1       6.154  -0.068  11.383  0.00  0.00    +0.000 NA
ATOM      4  H   UNL     1       6.708  -0.758  10.878  0.00  0.00    +0.000 HD
ATOM      5  H   UNL     1       5.196  -0.175  11.052  0.00  0.00    +0.000 HD
ENDBRANCH   2   3
ENDBRANCH   1   2
BRANCH   1   6
ATOM      6  C   UNL     1       6.365   3.470  12.248  0.00  0.00    +0.000 C 
BRANCH   6   7
ATOM      7  C   UNL     1       5.737   3.777  13.603  0.00  0.00    +0.000 C 
BRANCH   7   8
ATOM      8  C   UNL     1       6.720   4.466  14.518  0.00  0.00    +0.000 C 
ATOM      9  O   UNL     1       6.714   5.671  14.761  0.00  0.00    +0.000 OA
ENDBRANCH   7   8
ENDBRANCH   6   7
ENDBRANCH   1   6
TORSDOF 5
ENDMDL
MODEL 5
REMARK VINA RESULT:      -3.2      4.546      5.488
REMARK  Name = 
REMARK  5 active torsions:
REMARK  status: ('A' for Active; 'I' for Inactive)
REMARK    1  A    between atoms: N_1  and  C_2
REMARK    2  A    between atoms: C_2  and  C_3
REMARK    3  A    between atoms: C_3  and  C_4
REMARK    4  A    between atoms: C_4  and  C_5
REMARK    5  A    between atoms: C_5  and  C_6
REMARK                            x       y       z     vdW  Elec       q    Type
REMARK                         _______ _______ _______ _____ _____    ______ ____
ROOT
ATOM      1  C   UNL     1       5.588   5.576  16.414  0.00  0.00    +0.000 C 
ENDROOT
BRANCH   1   2
ATOM      2  C   UNL     1       5.005   4.174  16.560  0.00  0.00    +0.000 C 
BRANCH   2   3
ATOM      3  N   UNL     1       5.277   3.661  17.897  0.00  0.00    +0.000 NA
ATOM      4  H   UNL     1       5.264   2.642  17.875  0.00  0.00    +0.000 HD
ATOM      5  H   UNL     1       4.531   3.942  18.531  0.00  0.00    +0.000 HD
ENDBRANCH   2   3
ENDBRANCH   1   2
BRANCH   1   6
ATOM      6  C   UNL     1       7.082   5.585  16.728  0.00  0.00    +0.000 C 
BRANCH   6   7
ATOM      7  C   UNL     1       7.411   6.613  17.806  0.00  0.00    +0.000 C 
BRANCH   7   8
ATOM      8  C   UNL     1       7.809   5.942  19.098  0.00  0.00    +0.000 C 
ATOM      9  O   UNL     1       7.028   5.355  19.843  0.00  0.00    +0.000 OA
ENDBRANCH   7   8
ENDBRANCH   6   7
ENDBRANCH   1   6
TORSDOF 5
ENDMDL
MODEL 6
REMARK VINA RESULT:      -3.2      4.601      5.783
REMARK  Name = 
REMARK  5 active torsions:
REMARK  status: ('A' for Active; 'I' for Inactive)
REMARK    1  A    between atoms: N_1  and  C_2
REMARK    2  A    between atoms: C_2  and  C_3
REMARK    3  A    between atoms: C_3  and  C_4
REMARK    4  A    between atoms: C_4  and  C_5
REMARK    5  A    between atoms: C_5  and  C_6
REMARK                            x       y       z     vdW  Elec       q    Type
REMARK                         _______ _______ _______ _____ _____    ______ ____
ROOT
ATOM      1  C   UNL     1       3.865   3.752  17.097  0.00  0.00    +0.000 C 
ENDROOT
BRANCH   1   2
ATOM      2  C   UNL     1       3.938   3.020  18.433  0.00  0.00    +0.000 C 
BRANCH   2   3
ATOM      3  N   UNL     1       5.224   3.280  19.069  0.00  0.00    +0.000 NA
ATOM      4  H   UNL     1       5.690   4.047  18.586  0.00  0.00    +0.000 HD
ATOM      5  H   UNL     1       5.830   2.467  18.963  0.00  0.00    +0.000 HD
ENDBRANCH   2   3
ENDBRANCH   1   2
BRANCH   1   6
ATOM      6  C   UNL     1       5.147   4.533  16.825  0.00  0.00    +0.000 C 
BRANCH   6   7
ATOM      7  C   UNL     1       5.427   4.629  15.329  0.00  0.00    +0.000 C 
BRANCH   7   8
ATOM      8  C   UNL     1       6.906   4.533  15.042  0.00  0.00    +0.000 C 
ATOM      9  O   UNL     1       7.626   5.494  14.785  0.00  0.00    +0.000 OA
ENDBRANCH   7   8
ENDBRANCH   6   7
ENDBRANCH   1   6
TORSDOF 5
ENDMDL
MODEL 7
REMARK VINA RESULT:      -3.2      2.678      2.997
REMARK  Name = 
REMARK  5 active torsions:
REMARK  status: ('A' for Active; 'I' for Inactive)
REMARK    1  A    between atoms: N_1  and  C_2
REMARK    2  A    between atoms: C_2  and  C_3
REMARK    3  A    between atoms: C_3  and  C_4
REMARK    4  A    between atoms: C_4  and  C_5
REMARK    5  A    between atoms: C_5  and  C_6
REMARK                            x       y       z     vdW  Elec       q    Type
REMARK                         _______ _______ _______ _____ _____    ______ ____
ROOT
ATOM      1  C   UNL     1       3.758   5.239  18.965  0.00  0.00    +0.000 C 
ENDROOT
BRANCH   1   2
ATOM      2  C   UNL     1       5.261   5.073  19.167  0.00  0.00    +0.000 C 
BRANCH   2   3
ATOM      3  N   UNL     1       5.635   3.677  18.977  0.00  0.00    +0.000 NA
ATOM      4  H   UNL     1       5.887   3.526  18.002  0.00  0.00    +0.000 HD
ATOM      5  H   UNL     1       4.830   3.079  19.160  0.00  0.00    +0.000 HD
ENDBRANCH   2   3
ENDBRANCH   1   2
BRANCH   1   6
ATOM      6  C   UNL     1       3.315   4.655  17.626  0.00  0.00    +0.000 C 
BRANCH   6   7
ATOM      7  C   UNL     1       2.065   3.796  17.787  0.00  0.00    +0.000 C 
BRANCH   7   8
ATOM      8  C   UNL     1       2.401   2.326  17.721  0.00  0.00    +0.000 C 
ATOM      9  O   UNL     1       3.415   1.824  18.201  0.00  0.00    +0.000 OA
ENDBRANCH   7   8
ENDBRANCH   6   7
ENDBRANCH   1   6
TORSDOF 5
ENDMDL
MODEL 8
REMARK VINA RESULT:      -3.2      4.206      5.417
REMARK  Name = 
REMARK  5 active torsions:
REMARK  status: ('A' for Active; 'I' for Inactive)
REMARK    1  A    between atoms: N_1  and  C_2
REMARK    2  A    between atoms: C_2  and  C_3
REMARK    3  A    between atoms: C_3  and  C_4
REMARK    4  A    between atoms: C_4  and  C_5
REMARK    5  A    between atoms: C_5  and  C_6
REMARK                            x       y       z     vdW  Elec       q    Type
REMARK                         _______ _______ _______ _____ _____    ______ ____
ROOT
ATOM      1  C   UNL     1       4.067   4.757  17.512  0.00  0.00    +0.000 C 
ENDROOT
BRANCH   1   2
ATOM      2  C   UNL     1       4.705   4.731  18.897  0.00  0.00    +0.000 C 
BRANCH   2   3
ATOM      3  N   UNL     1       5.421   3.476  19.090  0.00  0.00    +0.000 NA
ATOM      4  H   UNL     1       5.973   3.273  18.258  0.00  0.00    +0.000 HD
ATOM      5  H   UNL     1       4.753   2.711  19.182  0.00  0.00    +0.000 HD
ENDBRANCH   2   3
ENDBRANCH   1   2
BRANCH   1   6
ATOM      6  C   UNL     1       4.881   3.935  16.516  0.00  0.00    +0.000 C 
BRANCH   6   7
ATOM      7  C   UNL     1       5.597   4.835  15.514  0.00  0.00    +0.000 C 
BRANCH   7   8
ATOM      8  C   UNL     1       6.959   5.242  16.021  0.00  0.00    +0.000 C 
ATOM      9  O   UNL     1       7.796   4.459  16.463  0.00  0.00    +0.000 OA
ENDBRANCH   7   8
ENDBRANCH   6   7
ENDBRANCH   1   6
TORSDOF 5
ENDMDL
MODEL 9
REMARK VINA RESULT:      -3.2      1.420      1.459
REMARK  Name = 
REMARK  5 active torsions:
REMARK  status: ('A' for Active; 'I' for Inactive)
REMARK    1  A    between atoms: N_1  and  C_2
REMARK    2  A    between atoms: C_2  and  C_3
REMARK    3  A    between atoms: C_3  and  C_4
REMARK    4  A    between atoms: C_4  and  C_5
REMARK    5  A    between atoms: C_5  and  C_6
REMARK                            x       y       z     vdW  Elec       q    Type
REMARK                         _______ _______ _______ _____ _____    ______ ____
ROOT
ATOM      1  C   UNL     1       2.762   4.017  18.584  0.00  0.00    +0.000 C 
ENDROOT
BRANCH   1   2
ATOM      2  C   UNL     1       1.881   2.913  18.007  0.00  0.00    +0.000 C 
BRANCH   2   3
ATOM      3  N   UNL     1       2.542   1.622  18.159  0.00  0.00    +0.000 NA
ATOM      4  H   UNL     1       2.842   1.289  17.244  0.00  0.00    +0.000 HD
ATOM      5  H   UNL     1       1.875   0.935  18.508  0.00  0.00    +0.000 HD
ENDBRANCH   2   3
ENDBRANCH   1   2
BRANCH   1   6
ATOM      6  C   UNL     1       1.973   4.908  19.539  0.00  0.00    +0.000 C 
BRANCH   6   7
ATOM      7  C   UNL     1       1.157   4.074  20.522  0.00  0.00    +0.000 C 
BRANCH   7   8
ATOM      8  C   UNL     1       2.029   3.512  21.618  0.00  0.00    +0.000 C 
ATOM      9  O   UNL     1       1.930   2.372  22.066  0.00  0.00    +0.000 OA
ENDBRANCH   7   8
ENDBRANCH   6   7
ENDBRANCH   1   6
TORSDOF 5
ENDMDL
