MODEL 1
REMARK VINA RESULT:      -8.4      0.000      0.000
REMARK  Name = 
REMARK  8 active torsions:
REMARK  status: ('A' for Active; 'I' for Inactive)
REMARK    1  A    between atoms: C_1  and  C_2
REMARK    2  A    between atoms: C_2  and  C_3
REMARK    3  A    between atoms: C_2  and  C_4
REMARK    4  A    between atoms: C_7  and  C_8
REMARK    5  A    between atoms: C_10  and  C_11
REMARK    6  A    between atoms: C_11  and  O_12
REMARK    7  A    between atoms: O_12  and  C_13
REMARK    8  A    between atoms: C_18  and  C_19
REMARK                            x       y       z     vdW  Elec       q    Type
REMARK                         _______ _______ _______ _____ _____    ______ ____
ROOT
ATOM      1  C   UNL     1       7.059   4.852  17.931  0.00  0.00    +0.000 C 
ENDROOT
BRANCH   1   4
ATOM      2  C   UNL     1       7.935   8.429  17.982  0.00  0.00    +0.000 A 
ATOM      3  C   UNL     1       8.095   7.161  18.599  0.00  0.00    +0.000 A 
ATOM      4  C   UNL     1       7.325   6.305  17.855  0.00  0.00    +0.000 A 
ATOM      5  O   UNL     1       6.705   7.003  16.873  0.00  0.00    +0.000 OA
ATOM      6  N   UNL     1       7.083   8.331  16.946  0.00  0.00    +0.000 NA
BRANCH   2  10
ATOM      7  C   UNL     1       9.781  12.128  19.103  0.00  0.00    +0.000 A 
ATOM      8  C   UNL     1       9.045  12.030  17.910  0.00  0.00    +0.000 A 
ATOM      9  C   UNL     1       8.461  10.820  17.536  0.00  0.00    +0.000 A 
ATOM     10  C   UNL     1       8.591   9.677  18.341  0.00  0.00    +0.000 A 
ATOM     11  C   UNL     1       9.336   9.775  19.522  0.00  0.00    +0.000 A 
ATOM     12  C   UNL     1       9.912  10.984  19.901  0.00  0.00    +0.000 A 
BRANCH   7  14
ATOM     13  C   UNL     1       9.631  14.590  18.766  0.00  0.00    +0.000 C 
ATOM     14  C   UNL     1      10.345  13.469  19.526  0.00  0.00    +0.000 C 
ATOM     15  C   UNL     1      10.275  13.716  21.036  0.00  0.00    +0.000 C 
ENDBRANCH   7  14
ENDBRANCH   2  10
ENDBRANCH   1   4
BRANCH   1  16
ATOM     16  O   UNL     1       5.845   4.652  17.214  0.00  0.00    +0.000 OA
BRANCH  16  17
ATOM     17  C   UNL     1       4.764   4.137  17.871  0.00  0.00    +0.000 A 
ATOM     18  C   UNL     1       4.191   3.044  17.214  0.00  0.00    +0.000 A 
ATOM     19  C   UNL     1       3.058   2.423  17.731  0.00  0.00    +0.000 A 
ATOM     20  C   UNL     1       2.491   2.896  18.911  0.00  0.00    +0.000 A 
ATOM     21  F   UNL     1       1.388   2.275  19.357  0.00  0.00    +0.000 F 
ATOM     22  C   UNL     1       3.043   3.984  19.594  0.00  0.00    +0.000 A 
ATOM     23  C   UNL     1       4.192   4.595  19.066  0.00  0.00    +0.000 A 
ATOM     24  F   UNL     1       4.745   5.643  19.694  0.00  0.00    +0.000 F 
BRANCH  22  25
ATOM     25  C   UNL     1       2.427   4.525  20.834  0.00  0.00    +0.000 C 
ATOM     26  N   UNL     1       1.961   5.810  20.821  0.00  0.00    +0.000 N 
ATOM     27  O   UNL     1       2.336   3.868  21.863  0.00  0.00    +0.000 OA
ATOM     28  H   UNL     1       2.001   6.416  20.010  0.00  0.00    +0.000 HD
ATOM     29  H   UNL     1       1.561   6.175  21.675  0.00  0.00    +0.000 HD
ENDBRANCH  22  25
ENDBRANCH  16  17
ENDBRANCH   1  16
TORSDOF 6
ENDMDL
MODEL 2
REMARK VINA RESULT:      -8.2      0.613      1.123
REMARK  Name = 
REMARK  8 active torsions:
REMARK  status: ('A' for Active; 'I' for Inactive)
REMARK    1  A    between atoms: C_1  and  C_2
REMARK    2  A    between atoms: C_2  and  C_3
REMARK    3  A    between atoms: C_2  and  C_4
REMARK    4  A    between atoms: C_7  and  C_8
REMARK    5  A    between atoms: C_10  and  C_11
REMARK    6  A    between atoms: C_11  and  O_12
REMARK    7  A    between atoms: O_12  and  C_13
REMARK    8  A    between atoms: C_18  and  C_19
REMARK                            x       y       z     vdW  Elec       q    Type
REMARK                         _______ _______ _______ _____ _____    ______ ____
ROOT
ATOM      1  C   UNL     1       7.189   5.030  18.073  0.00  0.00    +0.000 C 
ENDROOT
BRANCH   1   4
ATOM      2  C   UNL     1       8.082   8.602  18.077  0.00  0.00    +0.000 A 
ATOM      3  C   UNL     1       8.191   7.353  18.741  0.00  0.00    +0.000 A 
ATOM      4  C   UNL     1       7.469   6.478  17.972  0.00  0.00    +0.000 A 
ATOM      5  O   UNL     1       6.923   7.149  16.928  0.00  0.00    +0.000 OA
ATOM      6  N   UNL     1       7.304   8.476  16.987  0.00  0.00    +0.000 NA
BRANCH   2  10
ATOM      7  C   UNL     1      10.044  12.274  19.084  0.00  0.00    +0.000 A 
ATOM      8  C   UNL     1      10.161  11.150  19.918  0.00  0.00    +0.000 A 
ATOM      9  C   UNL     1       9.506   9.961  19.601  0.00  0.00    +0.000 A 
ATOM     10  C   UNL     1       8.720   9.858  18.442  0.00  0.00    +0.000 A 
ATOM     11  C   UNL     1       8.594  10.985  17.620  0.00  0.00    +0.000 A 
ATOM     12  C   UNL     1       9.254  12.170  17.931  0.00  0.00    +0.000 A 
BRANCH   7  14
ATOM     13  C   UNL     1      11.501  14.061  18.145  0.00  0.00    +0.000 C 
ATOM     14  C   UNL     1      10.822  13.533  19.411  0.00  0.00    +0.000 C 
ATOM     15  C   UNL     1       9.971  14.630  20.059  0.00  0.00    +0.000 C 
ENDBRANCH   7  14
ENDBRANCH   2  10
ENDBRANCH   1   4
BRANCH   1  16
ATOM     16  O   UNL     1       6.094   4.793  17.194  0.00  0.00    +0.000 OA
BRANCH  16  17
ATOM     17  C   UNL     1       4.892   4.414  17.720  0.00  0.00    +0.000 A 
ATOM     18  C   UNL     1       4.180   3.543  16.890  0.00  0.00    +0.000 A 
ATOM     19  C   UNL     1       2.918   3.088  17.258  0.00  0.00    +0.000 A 
ATOM     20  C   UNL     1       2.360   3.505  18.463  0.00  0.00    +0.000 A 
ATOM     21  F   UNL     1       1.133   3.053  18.764  0.00  0.00    +0.000 F 
ATOM     22  C   UNL     1       3.048   4.373  19.318  0.00  0.00    +0.000 A 
ATOM     23  C   UNL     1       4.325   4.816  18.936  0.00  0.00    +0.000 A 
ATOM     24  F   UNL     1       5.011   5.651  19.731  0.00  0.00    +0.000 F 
BRANCH  22  25
ATOM     25  C   UNL     1       2.451   4.858  20.589  0.00  0.00    +0.000 C 
ATOM     26  N   UNL     1       2.014   6.152  20.649  0.00  0.00    +0.000 N 
ATOM     27  O   UNL     1       2.349   4.148  21.581  0.00  0.00    +0.000 OA
ATOM     28  H   UNL     1       2.065   6.801  19.873  0.00  0.00    +0.000 HD
ATOM     29  H   UNL     1       1.626   6.478  21.525  0.00  0.00    +0.000 HD
ENDBRANCH  22  25
ENDBRANCH  16  17
ENDBRANCH   1  16
TORSDOF 6
ENDMDL
MODEL 3
REMARK VINA RESULT:      -8.1      1.589      1.907
REMARK  Name = 
REMARK  8 active torsions:
REMARK  status: ('A' for Active; 'I' for Inactive)
REMARK    1  A    between atoms: C_1  and  C_2
REMARK    2  A    between atoms: C_2  and  C_3
REMARK    3  A    between atoms: C_2  and  C_4
REMARK    4  A    between atoms: C_7  and  C_8
REMARK    5  A    between atoms: C_10  and  C_11
REMARK    6  A    between atoms: C_11  and  O_12
REMARK    7  A    between atoms: O_12  and  C_13
REMARK    8  A    between atoms: C_18  and  C_19
REMARK                            x       y       z     vdW  Elec       q    Type
REMARK                         _______ _______ _______ _____ _____    ______ ____
ROOT
ATOM      1  C   UNL     1       7.023   5.515  17.916  0.00  0.00    +0.000 C 
ENDROOT
BRANCH   1   4
ATOM      2  C   UNL     1       8.355   8.933  18.240  0.00  0.00    +0.000 A 
ATOM      3  C   UNL     1       8.306   7.624  18.785  0.00  0.00    +0.000 A 
ATOM      4  C   UNL     1       7.481   6.921  17.946  0.00  0.00    +0.000 A 
ATOM      5  O   UNL     1       7.026   7.748  16.974  0.00  0.00    +0.000 OA
ATOM      6  N   UNL     1       7.569   9.006  17.151  0.00  0.00    +0.000 NA
BRANCH   2  10
ATOM      7  C   UNL     1      10.585  12.310  19.644  0.00  0.00    +0.000 A 
ATOM      8  C   UNL     1      10.459  12.060  18.268  0.00  0.00    +0.000 A 
ATOM      9  C   UNL     1       9.750  10.950  17.811  0.00  0.00    +0.000 A 
ATOM     10  C   UNL     1       9.144  10.060  18.713  0.00  0.00    +0.000 A 
ATOM     11  C   UNL     1       9.283  10.305  20.085  0.00  0.00    +0.000 A 
ATOM     12  C   UNL     1       9.984  11.418  20.542  0.00  0.00    +0.000 A 
BRANCH   7  14
ATOM     13  C   UNL     1      11.750  14.383  18.905  0.00  0.00    +0.000 C 
ATOM     14  C   UNL     1      11.298  13.561  20.115  0.00  0.00    +0.000 C 
ATOM     15  C   UNL     1      10.462  14.424  21.066  0.00  0.00    +0.000 C 
ENDBRANCH   7  14
ENDBRANCH   2  10
ENDBRANCH   1   4
BRANCH   1  16
ATOM     16  O   UNL     1       5.736   5.550  17.305  0.00  0.00    +0.000 OA
BRANCH  16  17
ATOM     17  C   UNL     1       4.628   5.365  18.082  0.00  0.00    +0.000 A 
ATOM     18  C   UNL     1       3.876   6.532  18.254  0.00  0.00    +0.000 A 
ATOM     19  C   UNL     1       2.735   6.526  19.049  0.00  0.00    +0.000 A 
ATOM     20  C   UNL     1       2.340   5.350  19.679  0.00  0.00    +0.000 A 
ATOM     21  F   UNL     1       1.242   5.402  20.450  0.00  0.00    +0.000 F 
ATOM     22  C   UNL     1       3.068   4.166  19.524  0.00  0.00    +0.000 A 
ATOM     23  C   UNL     1       4.213   4.184  18.711  0.00  0.00    +0.000 A 
ATOM     24  F   UNL     1       4.935   3.067  18.544  0.00  0.00    +0.000 F 
BRANCH  22  25
ATOM     25  C   UNL     1       2.680   2.911  20.220  0.00  0.00    +0.000 C 
ATOM     26  N   UNL     1       2.100   1.914  19.486  0.00  0.00    +0.000 N 
ATOM     27  O   UNL     1       2.849   2.746  21.421  0.00  0.00    +0.000 OA
ATOM     28  H   UNL     1       1.926   1.975  18.490  0.00  0.00    +0.000 HD
ATOM     29  H   UNL     1       1.822   1.071  19.973  0.00  0.00    +0.000 HD
ENDBRANCH  22  25
ENDBRANCH  16  17
ENDBRANCH   1  16
TORSDOF 6
ENDMDL
MODEL 4
REMARK VINA RESULT:      -8.1      1.176      1.353
REMARK  Name = 
REMARK  8 active torsions:
REMARK  status: ('A' for Active; 'I' for Inactive)
REMARK    1  A    between atoms: C_1  and  C_2
REMARK    2  A    between atoms: C_2  and  C_3
REMARK    3  A    between atoms: C_2  and  C_4
REMARK    4  A    between atoms: C_7  and  C_8
REMARK    5  A    between atoms: C_10  and  C_11
REMARK    6  A    between atoms: C_11  and  O_12
REMARK    7  A    between atoms: O_12  and  C_13
REMARK    8  A    between atoms: C_18  and  C_19
REMARK                            x       y       z     vdW  Elec       q    Type
REMARK                         _______ _______ _______ _____ _____    ______ ____
ROOT
ATOM      1  C   UNL     1       6.167   6.071  16.612  0.00  0.00    +0.000 C 
ENDROOT
BRANCH   1   4
ATOM      2  C   UNL     1       8.239   8.659  18.216  0.00  0.00    +0.000 A 
ATOM      3  C   UNL     1       7.287   8.360  17.207  0.00  0.00    +0.000 A 
ATOM      4  C   UNL     1       7.054   7.015  17.327  0.00  0.00    +0.000 A 
ATOM      5  O   UNL     1       7.834   6.513  18.316  0.00  0.00    +0.000 OA
ATOM      6  N   UNL     1       8.575   7.536  18.877  0.00  0.00    +0.000 NA
BRANCH   2  10
ATOM      7  C   UNL     1       9.745  12.518  19.304  0.00  0.00    +0.000 A 
ATOM      8  C   UNL     1       9.051  12.337  18.096  0.00  0.00    +0.000 A 
ATOM      9  C   UNL     1       8.578  11.077  17.733  0.00  0.00    +0.000 A 
ATOM     10  C   UNL     1       8.781   9.964  18.564  0.00  0.00    +0.000 A 
ATOM     11  C   UNL     1       9.485  10.145  19.761  0.00  0.00    +0.000 A 
ATOM     12  C   UNL     1       9.950  11.404  20.128  0.00  0.00    +0.000 A 
BRANCH   7  14
ATOM     13  C   UNL     1      11.715  13.993  19.683  0.00  0.00    +0.000 C 
ATOM     14  C   UNL     1      10.187  13.909  19.712  0.00  0.00    +0.000 C 
ATOM     15  C   UNL     1       9.574  15.024  18.857  0.00  0.00    +0.000 C 
ENDBRANCH   7  14
ENDBRANCH   2  10
ENDBRANCH   1   4
BRANCH   1  16
ATOM     16  O   UNL     1       6.030   4.950  17.481  0.00  0.00    +0.000 OA
BRANCH  16  17
ATOM     17  C   UNL     1       4.779   4.551  17.856  0.00  0.00    +0.000 A 
ATOM     18  C   UNL     1       4.137   3.773  16.889  0.00  0.00    +0.000 A 
ATOM     19  C   UNL     1       2.840   3.314  17.096  0.00  0.00    +0.000 A 
ATOM     20  C   UNL     1       2.177   3.635  18.277  0.00  0.00    +0.000 A 
ATOM     21  F   UNL     1       0.920   3.185  18.421  0.00  0.00    +0.000 F 
ATOM     22  C   UNL     1       2.793   4.409  19.267  0.00  0.00    +0.000 A 
ATOM     23  C   UNL     1       4.106   4.856  19.047  0.00  0.00    +0.000 A 
ATOM     24  F   UNL     1       4.725   5.602  19.973  0.00  0.00    +0.000 F 
BRANCH  22  25
ATOM     25  C   UNL     1       2.085   4.791  20.516  0.00  0.00    +0.000 C 
ATOM     26  N   UNL     1       1.875   3.829  21.464  0.00  0.00    +0.000 N 
ATOM     27  O   UNL     1       1.674   5.927  20.718  0.00  0.00    +0.000 OA
ATOM     28  H   UNL     1       2.183   2.868  21.370  0.00  0.00    +0.000 HD
ATOM     29  H   UNL     1       1.375   4.095  22.303  0.00  0.00    +0.000 HD
ENDBRANCH  22  25
ENDBRANCH  16  17
ENDBRANCH   1  16
TORSDOF 6
ENDMDL
MODEL 5
REMARK VINA RESULT:      -8.1      5.625      8.100
REMARK  Name = 
REMARK  8 active torsions:
REMARK  status: ('A' for Active; 'I' for Inactive)
REMARK    1  A    between atoms: C_1  and  C_2
REMARK    2  A    between atoms: C_2  and  C_3
REMARK    3  A    between atoms: C_2  and  C_4
REMARK    4  A    between atoms: C_7  and  C_8
REMARK    5  A    between atoms: C_10  and  C_11
REMARK    6  A    between atoms: C_11  and  O_12
REMARK    7  A    between atoms: O_12  and  C_13
REMARK    8  A    between atoms: C_18  and  C_19
REMARK                            x       y       z     vdW  Elec       q    Type
REMARK                         _______ _______ _______ _____ _____    ______ ____
ROOT
ATOM      1  C   UNL     1       2.911   6.133  19.644  0.00  0.00    +0.000 C 
ENDROOT
BRANCH   1   4
ATOM      2  C   UNL     1       0.890   9.103  20.449  0.00  0.00    +0.000 A 
ATOM      3  C   UNL     1       1.396   7.857  20.900  0.00  0.00    +0.000 A 
ATOM      4  C   UNL     1       2.115   7.363  19.843  0.00  0.00    +0.000 A 
ATOM      5  O   UNL     1       2.027   8.226  18.802  0.00  0.00    +0.000 OA
ATOM      6  N   UNL     1       1.264   9.317  19.175  0.00  0.00    +0.000 NA
BRANCH   2  10
ATOM      7  C   UNL     1      -1.307  11.991  22.726  0.00  0.00    +0.000 A 
ATOM      8  C   UNL     1      -1.149  10.678  23.201  0.00  0.00    +0.000 A 
ATOM      9  C   UNL     1      -0.451   9.733  22.450  0.00  0.00    +0.000 A 
ATOM     10  C   UNL     1       0.111  10.070  21.208  0.00  0.00    +0.000 A 
ATOM     11  C   UNL     1      -0.060  11.376  20.733  0.00  0.00    +0.000 A 
ATOM     12  C   UNL     1      -0.749  12.323  21.484  0.00  0.00    +0.000 A 
BRANCH   7  14
ATOM     13  C   UNL     1      -1.354  14.390  23.390  0.00  0.00    +0.000 C 
ATOM     14  C   UNL     1      -2.007  13.020  23.591  0.00  0.00    +0.000 C 
ATOM     15  C   UNL     1      -3.517  13.104  23.345  0.00  0.00    +0.000 C 
ENDBRANCH   7  14
ENDBRANCH   2  10
ENDBRANCH   1   4
BRANCH   1  16
ATOM     16  O   UNL     1       3.375   6.196  18.299  0.00  0.00    +0.000 OA
BRANCH  16  17
ATOM     17  C   UNL     1       4.590   5.654  17.990  0.00  0.00    +0.000 A 
ATOM     18  C   UNL     1       5.355   5.341  19.118  0.00  0.00    +0.000 A 
ATOM     19  C   UNL     1       6.635   4.814  18.980  0.00  0.00    +0.000 A 
ATOM     20  C   UNL     1       7.158   4.598  17.708  0.00  0.00    +0.000 A 
ATOM     21  F   UNL     1       8.404   4.106  17.629  0.00  0.00    +0.000 F 
ATOM     22  C   UNL     1       6.417   4.897  16.561  0.00  0.00    +0.000 A 
ATOM     23  C   UNL     1       5.122   5.420  16.715  0.00  0.00    +0.000 A 
ATOM     24  F   UNL     1       4.387   5.720  15.635  0.00  0.00    +0.000 F 
BRANCH  22  25
ATOM     25  C   UNL     1       6.976   4.708  15.196  0.00  0.00    +0.000 C 
ATOM     26  N   UNL     1       6.502   3.673  14.438  0.00  0.00    +0.000 N 
ATOM     27  O   UNL     1       7.848   5.434  14.736  0.00  0.00    +0.000 OA
ATOM     28  H   UNL     1       5.783   3.030  14.748  0.00  0.00    +0.000 HD
ATOM     29  H   UNL     1       6.902   3.542  13.518  0.00  0.00    +0.000 HD
ENDBRANCH  22  25
ENDBRANCH  16  17
ENDBRANCH   1  16
TORSDOF 6
ENDMDL
MODEL 6
REMARK VINA RESULT:      -8.0      3.639      9.942
REMARK  Name = 
REMARK  8 active torsions:
REMARK  status: ('A' for Active; 'I' for Inactive)
REMARK    1  A    between atoms: C_1  and  C_2
REMARK    2  A    between atoms: C_2  and  C_3
REMARK    3  A    between atoms: C_2  and  C_4
REMARK    4  A    between atoms: C_7  and  C_8
REMARK    5  A    between atoms: C_10  and  C_11
REMARK    6  A    between atoms: C_11  and  O_12
REMARK    7  A    between atoms: O_12  and  C_13
REMARK    8  A    between atoms: C_18  and  C_19
REMARK                            x       y       z     vdW  Elec       q    Type
REMARK                         _______ _______ _______ _____ _____    ______ ____
ROOT
ATOM      1  C   UNL     1       8.546   8.490  17.809  0.00  0.00    +0.000 C 
ENDROOT
BRANCH   1   4
ATOM      2  C   UNL     1       5.748   6.097  17.711  0.00  0.00    +0.000 A 
ATOM      3  C   UNL     1       6.870   6.580  18.434  0.00  0.00    +0.000 A 
ATOM      4  C   UNL     1       7.398   7.570  17.649  0.00  0.00    +0.000 A 
ATOM      5  O   UNL     1       6.676   7.666  16.505  0.00  0.00    +0.000 OA
ATOM      6  N   UNL     1       5.642   6.749  16.539  0.00  0.00    +0.000 NA
BRANCH   2  10
ATOM      7  C   UNL     1       2.888   3.185  19.009  0.00  0.00    +0.000 A 
ATOM      8  C   UNL     1       4.144   3.278  19.631  0.00  0.00    +0.000 A 
ATOM      9  C   UNL     1       5.082   4.213  19.196  0.00  0.00    +0.000 A 
ATOM     10  C   UNL     1       4.794   5.082  18.131  0.00  0.00    +0.000 A 
ATOM     11  C   UNL     1       3.546   4.976  17.504  0.00  0.00    +0.000 A 
ATOM     12  C   UNL     1       2.605   4.050  17.943  0.00  0.00    +0.000 A 
BRANCH   7  14
ATOM     13  C   UNL     1       1.602   2.498  21.027  0.00  0.00    +0.000 C 
ATOM     14  C   UNL     1       1.858   2.211  19.545  0.00  0.00    +0.000 C 
ATOM     15  C   UNL     1       0.540   2.219  18.763  0.00  0.00    +0.000 C 
ENDBRANCH   7  14
ENDBRANCH   2  10
ENDBRANCH   1   4
BRANCH   1  16
ATOM     16  O   UNL     1       7.974   9.785  17.964  0.00  0.00    +0.000 OA
BRANCH  16  17
ATOM     17  C   UNL     1       8.770  10.817  18.369  0.00  0.00    +0.000 A 
ATOM     18  C   UNL     1       9.624  10.472  19.422  0.00  0.00    +0.000 A 
ATOM     19  C   UNL     1      10.478  11.418  19.980  0.00  0.00    +0.000 A 
ATOM     20  C   UNL     1      10.479  12.720  19.487  0.00  0.00    +0.000 A 
ATOM     21  F   UNL     1      11.306  13.600  20.072  0.00  0.00    +0.000 F 
ATOM     22  C   UNL     1       9.640  13.096  18.433  0.00  0.00    +0.000 A 
ATOM     23  C   UNL     1       8.791  12.128  17.873  0.00  0.00    +0.000 A 
ATOM     24  F   UNL     1       7.971  12.456  16.864  0.00  0.00    +0.000 F 
BRANCH  22  25
ATOM     25  C   UNL     1       9.602  14.491  17.921  0.00  0.00    +0.000 C 
ATOM     26  N   UNL     1      10.502  14.853  16.957  0.00  0.00    +0.000 N 
ATOM     27  O   UNL     1       8.809  15.324  18.339  0.00  0.00    +0.000 OA
ATOM     28  H   UNL     1      11.189  14.223  16.562  0.00  0.00    +0.000 HD
ATOM     29  H   UNL     1      10.481  15.810  16.629  0.00  0.00    +0.000 HD
ENDBRANCH  22  25
ENDBRANCH  16  17
ENDBRANCH   1  16
TORSDOF 6
ENDMDL
MODEL 7
REMARK VINA RESULT:      -8.0      1.876      2.427
REMARK  Name = 
REMARK  8 active torsions:
REMARK  status: ('A' for Active; 'I' for Inactive)
REMARK    1  A    between atoms: C_1  and  C_2
REMARK    2  A    between atoms: C_2  and  C_3
REMARK    3  A    between atoms: C_2  and  C_4
REMARK    4  A    between atoms: C_7  and  C_8
REMARK    5  A    between atoms: C_10  and  C_11
REMARK    6  A    between atoms: C_11  and  O_12
REMARK    7  A    between atoms: O_12  and  C_13
REMARK    8  A    between atoms: C_18  and  C_19
REMARK                            x       y       z     vdW  Elec       q    Type
REMARK                         _______ _______ _______ _____ _____    ______ ____
ROOT
ATOM      1  C   UNL     1       6.431   6.260  16.620  0.00  0.00    +0.000 C 
ENDROOT
BRANCH   1   4
ATOM      2  C   UNL     1       8.403   8.821  18.384  0.00  0.00    +0.000 A 
ATOM      3  C   UNL     1       7.536   8.533  17.298  0.00  0.00    +0.000 A 
ATOM      4  C   UNL     1       7.270   7.193  17.403  0.00  0.00    +0.000 A 
ATOM      5  O   UNL     1       7.953   6.684  18.458  0.00  0.00    +0.000 OA
ATOM      6  N   UNL     1       8.662   7.697  19.076  0.00  0.00    +0.000 NA
BRANCH   2  10
ATOM      7  C   UNL     1      10.069  12.613  19.476  0.00  0.00    +0.000 A 
ATOM      8  C   UNL     1      10.043  11.553  20.397  0.00  0.00    +0.000 A 
ATOM      9  C   UNL     1       9.482  10.325  20.048  0.00  0.00    +0.000 A 
ATOM     10  C   UNL     1       8.936  10.119  18.771  0.00  0.00    +0.000 A 
ATOM     11  C   UNL     1       8.953  11.181  17.860  0.00  0.00    +0.000 A 
ATOM     12  C   UNL     1       9.519  12.405  18.204  0.00  0.00    +0.000 A 
BRANCH   7  14
ATOM     13  C   UNL     1      10.470  14.969  18.777  0.00  0.00    +0.000 C 
ATOM     14  C   UNL     1      10.747  13.915  19.852  0.00  0.00    +0.000 C 
ATOM     15  C   UNL     1      10.344  14.441  21.234  0.00  0.00    +0.000 C 
ENDBRANCH   7  14
ENDBRANCH   2  10
ENDBRANCH   1   4
BRANCH   1  16
ATOM     16  O   UNL     1       5.085   6.610  16.930  0.00  0.00    +0.000 OA
BRANCH  16  17
ATOM     17  C   UNL     1       4.392   5.847  17.826  0.00  0.00    +0.000 A 
ATOM     18  C   UNL     1       3.525   6.595  18.629  0.00  0.00    +0.000 A 
ATOM     19  C   UNL     1       2.769   5.977  19.620  0.00  0.00    +0.000 A 
ATOM     20  C   UNL     1       2.879   4.603  19.814  0.00  0.00    +0.000 A 
ATOM     21  F   UNL     1       2.144   4.057  20.796  0.00  0.00    +0.000 F 
ATOM     22  C   UNL     1       3.734   3.826  19.025  0.00  0.00    +0.000 A 
ATOM     23  C   UNL     1       4.483   4.463  18.022  0.00  0.00    +0.000 A 
ATOM     24  F   UNL     1       5.315   3.748  17.250  0.00  0.00    +0.000 F 
BRANCH  22  25
ATOM     25  C   UNL     1       3.891   2.365  19.244  0.00  0.00    +0.000 C 
ATOM     26  N   UNL     1       4.962   1.929  19.975  0.00  0.00    +0.000 N 
ATOM     27  O   UNL     1       3.108   1.543  18.786  0.00  0.00    +0.000 OA
ATOM     28  H   UNL     1       5.652   2.546  20.385  0.00  0.00    +0.000 HD
ATOM     29  H   UNL     1       5.070   0.931  20.103  0.00  0.00    +0.000 HD
ENDBRANCH  22  25
ENDBRANCH  16  17
ENDBRANCH   1  16
TORSDOF 6
ENDMDL
MODEL 8
REMARK VINA RESULT:      -8.0      1.253      1.482
REMARK  Name = 
REMARK  8 active torsions:
REMARK  status: ('A' for Active; 'I' for Inactive)
REMARK    1  A    between atoms: C_1  and  C_2
REMARK    2  A    between atoms: C_2  and  C_3
REMARK    3  A    between atoms: C_2  and  C_4
REMARK    4  A    between atoms: C_7  and  C_8
REMARK    5  A    between atoms: C_10  and  C_11
REMARK    6  A    between atoms: C_11  and  O_12
REMARK    7  A    between atoms: O_12  and  C_13
REMARK    8  A    between atoms: C_18  and  C_19
REMARK                            x       y       z     vdW  Elec       q    Type
REMARK                         _______ _______ _______ _____ _____    ______ ____
ROOT
ATOM      1  C   UNL     1       6.095   5.997  17.045  0.00  0.00    +0.000 C 
ENDROOT
BRANCH   1   4
ATOM      2  C   UNL     1       8.224   8.771  18.199  0.00  0.00    +0.000 A 
ATOM      3  C   UNL     1       7.193   8.357  17.317  0.00  0.00    +0.000 A 
ATOM      4  C   UNL     1       7.014   7.024  17.582  0.00  0.00    +0.000 A 
ATOM      5  O   UNL     1       7.898   6.636  18.534  0.00  0.00    +0.000 OA
ATOM      6  N   UNL     1       8.656   7.723  18.925  0.00  0.00    +0.000 NA
BRANCH   2  10
ATOM      7  C   UNL     1       9.715  12.742  18.793  0.00  0.00    +0.000 A 
ATOM      8  C   UNL     1       8.755  12.481  17.801  0.00  0.00    +0.000 A 
ATOM      9  C   UNL     1       8.285  11.185  17.595  0.00  0.00    +0.000 A 
ATOM     10  C   UNL     1       8.755  10.114  18.373  0.00  0.00    +0.000 A 
ATOM     11  C   UNL     1       9.722  10.376  19.351  0.00  0.00    +0.000 A 
ATOM     12  C   UNL     1      10.186  11.671  19.564  0.00  0.00    +0.000 A 
BRANCH   7  14
ATOM     13  C   UNL     1      10.980  14.229  20.339  0.00  0.00    +0.000 C 
ATOM     14  C   UNL     1      10.159  14.168  19.048  0.00  0.00    +0.000 C 
ATOM     15  C   UNL     1      10.943  14.785  17.885  0.00  0.00    +0.000 C 
ENDBRANCH   7  14
ENDBRANCH   2  10
ENDBRANCH   1   4
BRANCH   1  16
ATOM     16  O   UNL     1       4.904   6.114  17.818  0.00  0.00    +0.000 OA
BRANCH  16  17
ATOM     17  C   UNL     1       4.266   4.979  18.229  0.00  0.00    +0.000 A 
ATOM     18  C   UNL     1       4.488   3.887  17.384  0.00  0.00    +0.000 A 
ATOM     19  C   UNL     1       3.881   2.661  17.638  0.00  0.00    +0.000 A 
ATOM     20  C   UNL     1       3.045   2.522  18.742  0.00  0.00    +0.000 A 
ATOM     21  F   UNL     1       2.468   1.325  18.932  0.00  0.00    +0.000 F 
ATOM     22  C   UNL     1       2.805   3.594  19.608  0.00  0.00    +0.000 A 
ATOM     23  C   UNL     1       3.433   4.822  19.345  0.00  0.00    +0.000 A 
ATOM     24  F   UNL     1       3.222   5.871  20.153  0.00  0.00    +0.000 F 
BRANCH  22  25
ATOM     25  C   UNL     1       1.885   3.472  20.769  0.00  0.00    +0.000 C 
ATOM     26  N   UNL     1       0.538   3.515  20.537  0.00  0.00    +0.000 N 
ATOM     27  O   UNL     1       2.288   3.348  21.918  0.00  0.00    +0.000 OA
ATOM     28  H   UNL     1       0.128   3.617  19.617  0.00  0.00    +0.000 HD
ATOM     29  H   UNL     1      -0.080   3.450  21.336  0.00  0.00    +0.000 HD
ENDBRANCH  22  25
ENDBRANCH  16  17
ENDBRANCH   1  16
TORSDOF 6
ENDMDL
MODEL 9
REMARK VINA RESULT:      -8.0      5.990      7.840
REMARK  Name = 
REMARK  8 active torsions:
REMARK  status: ('A' for Active; 'I' for Inactive)
REMARK    1  A    between atoms: C_1  and  C_2
REMARK    2  A    between atoms: C_2  and  C_3
REMARK    3  A    between atoms: C_2  and  C_4
REMARK    4  A    between atoms: C_7  and  C_8
REMARK    5  A    between atoms: C_10  and  C_11
REMARK    6  A    between atoms: C_11  and  O_12
REMARK    7  A    between atoms: O_12  and  C_13
REMARK    8  A    between atoms: C_18  and  C_19
REMARK                            x       y       z     vdW  Elec       q    Type
REMARK                         _______ _______ _______ _____ _____    ______ ____
ROOT
ATOM      1  C   UNL     1       2.746   7.518  18.264  0.00  0.00    +0.000 C 
ENDROOT
BRANCH   1   4
ATOM      2  C   UNL     1       0.387  10.052  19.518  0.00  0.00    +0.000 A 
ATOM      3  C   UNL     1       1.151   8.894  19.816  0.00  0.00    +0.000 A 
ATOM      4  C   UNL     1       1.790   8.580  18.645  0.00  0.00    +0.000 A 
ATOM      5  O   UNL     1       1.418   9.460  17.684  0.00  0.00    +0.000 OA
ATOM      6  N   UNL     1       0.542  10.383  18.224  0.00  0.00    +0.000 NA
BRANCH   2  10
ATOM      7  C   UNL     1      -1.954  12.440  22.195  0.00  0.00    +0.000 A 
ATOM      8  C   UNL     1      -0.953  11.587  22.689  0.00  0.00    +0.000 A 
ATOM      9  C   UNL     1      -0.205  10.794  21.819  0.00  0.00    +0.000 A 
ATOM     10  C   UNL     1      -0.431  10.833  20.434  0.00  0.00    +0.000 A 
ATOM     11  C   UNL     1      -1.437  11.676  19.946  0.00  0.00    +0.000 A 
ATOM     12  C   UNL     1      -2.179  12.473  20.812  0.00  0.00    +0.000 A 
BRANCH   7  14
ATOM     13  C   UNL     1      -3.630  12.504  24.035  0.00  0.00    +0.000 C 
ATOM     14  C   UNL     1      -2.705  13.345  23.151  0.00  0.00    +0.000 C 
ATOM     15  C   UNL     1      -1.790  14.221  24.014  0.00  0.00    +0.000 C 
ENDBRANCH   7  14
ENDBRANCH   2  10
ENDBRANCH   1   4
BRANCH   1  16
ATOM     16  O   UNL     1       3.138   6.904  19.488  0.00  0.00    +0.000 OA
BRANCH  16  17
ATOM     17  C   UNL     1       2.833   5.590  19.698  0.00  0.00    +0.000 A 
ATOM     18  C   UNL     1       1.670   5.409  20.453  0.00  0.00    +0.000 A 
ATOM     19  C   UNL     1       1.237   4.131  20.790  0.00  0.00    +0.000 A 
ATOM     20  C   UNL     1       1.969   3.023  20.373  0.00  0.00    +0.000 A 
ATOM     21  F   UNL     1       1.520   1.813  20.740  0.00  0.00    +0.000 F 
ATOM     22  C   UNL     1       3.135   3.170  19.613  0.00  0.00    +0.000 A 
ATOM     23  C   UNL     1       3.554   4.466  19.273  0.00  0.00    +0.000 A 
ATOM     24  F   UNL     1       4.669   4.642  18.549  0.00  0.00    +0.000 F 
BRANCH  22  25
ATOM     25  C   UNL     1       3.948   1.999  19.193  0.00  0.00    +0.000 C 
ATOM     26  N   UNL     1       5.060   1.685  19.925  0.00  0.00    +0.000 N 
ATOM     27  O   UNL     1       3.667   1.320  18.214  0.00  0.00    +0.000 OA
ATOM     28  H   UNL     1       5.358   2.198  20.745  0.00  0.00    +0.000 HD
ATOM     29  H   UNL     1       5.617   0.897  19.619  0.00  0.00    +0.000 HD
ENDBRANCH  22  25
ENDBRANCH  16  17
ENDBRANCH   1  16
TORSDOF 6
ENDMDL
