MODEL 1
REMARK VINA RESULT:      -6.8      0.000      0.000
REMARK  Name = 
REMARK  3 active torsions:
REMARK  status: ('A' for Active; 'I' for Inactive)
REMARK    1  A    between atoms: C_2  and  C_3
REMARK    2  A    between atoms: C_12  and  O_13
REMARK    3  A    between atoms: O_13  and  C_14
REMARK                            x       y       z     vdW  Elec       q    Type
REMARK                         _______ _______ _______ _____ _____    ______ ____
ROOT
ATOM      1  O   UNL     1       5.515   3.455  19.052  0.00  0.00    +0.000 OA
ATOM      2  C   UNL     1       5.180   4.372  18.296  0.00  0.00    +0.000 C 
ATOM      3  N   UNL     1       4.315   5.399  18.696  0.00  0.00    +0.000 N 
ATOM      4  C   UNL     1       3.711   5.355  20.024  0.00  0.00    +0.000 C 
ATOM      5  C   UNL     1       2.203   5.578  19.931  0.00  0.00    +0.000 C 
ATOM      6  C   UNL     1       1.863   6.856  19.149  0.00  0.00    +0.000 C 
ATOM      7  C   UNL     1       2.574   6.856  17.791  0.00  0.00    +0.000 C 
ATOM      8  C   UNL     1       4.071   6.648  17.972  0.00  0.00    +0.000 C 
ENDROOT
BRANCH   2   9
ATOM      9  C   UNL     1       5.758   4.378  16.926  0.00  0.00    +0.000 A 
ATOM     10  C   UNL     1       7.090   4.727  16.759  0.00  0.00    +0.000 A 
ATOM     11  N   UNL     1       7.652   4.887  15.529  0.00  0.00    +0.000 NA
ATOM     12  C   UNL     1       6.824   4.664  14.483  0.00  0.00    +0.000 A 
ATOM     13  C   UNL     1       5.510   4.261  14.648  0.00  0.00    +0.000 A 
ATOM     14  N   UNL     1       4.952   4.089  15.867  0.00  0.00    +0.000 NA
ENDBRANCH   2   9
BRANCH   6  15
ATOM     15  O   UNL     1       2.314   8.016  19.864  0.00  0.00    +0.000 OA
BRANCH  15  16
ATOM     16  C   UNL     1       1.335   8.732  20.521  0.00  0.00    +0.000 A 
ATOM     17  N   UNL     1       1.106   8.472  21.828  0.00  0.00    +0.000 NA
ATOM     18  C   UNL     1       0.127   9.177  22.435  0.00  0.00    +0.000 A 
ATOM     19  C   UNL     1      -0.630  10.146  21.795  0.00  0.00    +0.000 A 
ATOM     20  C   UNL     1      -0.370  10.409  20.450  0.00  0.00    +0.000 A 
ATOM     21  C   UNL     1       0.628   9.691  19.796  0.00  0.00    +0.000 A 
ATOM     22 CL   UNL     1       0.937  10.016  18.132  0.00  0.00    +0.000 Cl
ENDBRANCH  15  16
ENDBRANCH   6  15
TORSDOF 3
ENDMDL
MODEL 2
REMARK VINA RESULT:      -6.7      1.356      1.646
REMARK  Name = 
REMARK  3 active torsions:
REMARK  status: ('A' for Active; 'I' for Inactive)
REMARK    1  A    between atoms: C_2  and  C_3
REMARK    2  A    between atoms: C_12  and  O_13
REMARK    3  A    between atoms: O_13  and  C_14
REMARK                            x       y       z     vdW  Elec       q    Type
REMARK                         _______ _______ _______ _____ _____    ______ ____
ROOT
ATOM      1  O   UNL     1       5.655   3.764  19.041  0.00  0.00    +0.000 OA
ATOM      2  C   UNL     1       5.291   4.618  18.227  0.00  0.00    +0.000 C 
ATOM      3  N   UNL     1       4.357   5.611  18.545  0.00  0.00    +0.000 N 
ATOM      4  C   UNL     1       3.716   5.603  19.856  0.00  0.00    +0.000 C 
ATOM      5  C   UNL     1       2.201   5.731  19.710  0.00  0.00    +0.000 C 
ATOM      6  C   UNL     1       1.812   6.943  18.849  0.00  0.00    +0.000 C 
ATOM      7  C   UNL     1       2.563   6.913  17.513  0.00  0.00    +0.000 C 
ATOM      8  C   UNL     1       4.063   6.804  17.747  0.00  0.00    +0.000 C 
ENDROOT
BRANCH   2   9
ATOM      9  C   UNL     1       5.909   4.584  16.874  0.00  0.00    +0.000 A 
ATOM     10  C   UNL     1       7.045   5.345  16.634  0.00  0.00    +0.000 A 
ATOM     11  N   UNL     1       7.586   5.472  15.392  0.00  0.00    +0.000 NA
ATOM     12  C   UNL     1       6.949   4.790  14.412  0.00  0.00    +0.000 A 
ATOM     13  C   UNL     1       5.850   3.986  14.660  0.00  0.00    +0.000 A 
ATOM     14  N   UNL     1       5.316   3.847  15.894  0.00  0.00    +0.000 NA
ENDBRANCH   2   9
BRANCH   6  15
ATOM     15  O   UNL     1       2.174   8.164  19.511  0.00  0.00    +0.000 OA
BRANCH  15  16
ATOM     16  C   UNL     1       1.194   9.134  19.556  0.00  0.00    +0.000 A 
ATOM     17  N   UNL     1       0.707   9.620  18.391  0.00  0.00    +0.000 NA
ATOM     18  C   UNL     1      -0.237  10.583  18.470  0.00  0.00    +0.000 A 
ATOM     19  C   UNL     1      -0.728  11.077  19.668  0.00  0.00    +0.000 A 
ATOM     20  C   UNL     1      -0.223  10.556  20.859  0.00  0.00    +0.000 A 
ATOM     21  C   UNL     1       0.757   9.568  20.807  0.00  0.00    +0.000 A 
ATOM     22 CL   UNL     1       1.383   8.934  22.283  0.00  0.00    +0.000 Cl
ENDBRANCH  15  16
ENDBRANCH   6  15
TORSDOF 3
ENDMDL
MODEL 3
REMARK VINA RESULT:      -6.6      0.958      1.016
REMARK  Name = 
REMARK  3 active torsions:
REMARK  status: ('A' for Active; 'I' for Inactive)
REMARK    1  A    between atoms: C_2  and  C_3
REMARK    2  A    between atoms: C_12  and  O_13
REMARK    3  A    between atoms: O_13  and  C_14
REMARK                            x       y       z     vdW  Elec       q    Type
REMARK                         _______ _______ _______ _____ _____    ______ ____
ROOT
ATOM      1  O   UNL     1       6.883   3.992  18.429  0.00  0.00    +0.000 OA
ATOM      2  C   UNL     1       6.131   4.638  17.692  0.00  0.00    +0.000 C 
ATOM      3  N   UNL     1       5.107   5.453  18.191  0.00  0.00    +0.000 N 
ATOM      4  C   UNL     1       4.849   5.487  19.627  0.00  0.00    +0.000 C 
ATOM      5  C   UNL     1       3.361   5.283  19.906  0.00  0.00    +0.000 C 
ATOM      6  C   UNL     1       2.490   6.264  19.106  0.00  0.00    +0.000 C 
ATOM      7  C   UNL     1       2.855   6.212  17.618  0.00  0.00    +0.000 C 
ATOM      8  C   UNL     1       4.347   6.444  17.425  0.00  0.00    +0.000 C 
ENDROOT
BRANCH   2   9
ATOM      9  C   UNL     1       6.367   4.552  16.226  0.00  0.00    +0.000 A 
ATOM     10  C   UNL     1       7.345   5.354  15.654  0.00  0.00    +0.000 A 
ATOM     11  N   UNL     1       7.525   5.433  14.308  0.00  0.00    +0.000 NA
ATOM     12  C   UNL     1       6.697   4.660  13.568  0.00  0.00    +0.000 A 
ATOM     13  C   UNL     1       5.759   3.817  14.140  0.00  0.00    +0.000 A 
ATOM     14  N   UNL     1       5.584   3.727  15.477  0.00  0.00    +0.000 NA
ENDBRANCH   2   9
BRANCH   6  15
ATOM     15  O   UNL     1       2.717   7.610  19.551  0.00  0.00    +0.000 OA
BRANCH  15  16
ATOM     16  C   UNL     1       1.603   8.288  20.001  0.00  0.00    +0.000 A 
ATOM     17  N   UNL     1       0.991   7.855  21.127  0.00  0.00    +0.000 NA
ATOM     18  C   UNL     1      -0.109   8.528  21.529  0.00  0.00    +0.000 A 
ATOM     19  C   UNL     1      -0.621   9.628  20.860  0.00  0.00    +0.000 A 
ATOM     20  C   UNL     1       0.031  10.068  19.708  0.00  0.00    +0.000 A 
ATOM     21  C   UNL     1       1.162   9.387  19.265  0.00  0.00    +0.000 A 
ATOM     22 CL   UNL     1       1.958   9.930  17.836  0.00  0.00    +0.000 Cl
ENDBRANCH  15  16
ENDBRANCH   6  15
TORSDOF 3
ENDMDL
MODEL 4
REMARK VINA RESULT:      -6.4      1.592      2.177
REMARK  Name = 
REMARK  3 active torsions:
REMARK  status: ('A' for Active; 'I' for Inactive)
REMARK    1  A    between atoms: C_2  and  C_3
REMARK    2  A    between atoms: C_12  and  O_13
REMARK    3  A    between atoms: O_13  and  C_14
REMARK                            x       y       z     vdW  Elec       q    Type
REMARK                         _______ _______ _______ _____ _____    ______ ____
ROOT
ATOM      1  O   UNL     1       7.889   4.379  17.317  0.00  0.00    +0.000 OA
ATOM      2  C   UNL     1       6.919   4.838  16.706  0.00  0.00    +0.000 C 
ATOM      3  N   UNL     1       5.862   5.488  17.355  0.00  0.00    +0.000 N 
ATOM      4  C   UNL     1       5.847   5.561  18.812  0.00  0.00    +0.000 C 
ATOM      5  C   UNL     1       4.490   5.115  19.354  0.00  0.00    +0.000 C 
ATOM      6  C   UNL     1       3.332   5.879  18.693  0.00  0.00    +0.000 C 
ATOM      7  C   UNL     1       3.445   5.804  17.167  0.00  0.00    +0.000 C 
ATOM      8  C   UNL     1       4.815   6.283  16.708  0.00  0.00    +0.000 C 
ENDROOT
BRANCH   2   9
ATOM      9  C   UNL     1       6.917   4.709  15.225  0.00  0.00    +0.000 A 
ATOM     10  C   UNL     1       6.120   3.738  14.635  0.00  0.00    +0.000 A 
ATOM     11  N   UNL     1       6.167   3.469  13.302  0.00  0.00    +0.000 NA
ATOM     12  C   UNL     1       7.032   4.227  12.590  0.00  0.00    +0.000 A 
ATOM     13  C   UNL     1       7.787   5.234  13.168  0.00  0.00    +0.000 A 
ATOM     14  N   UNL     1       7.734   5.513  14.489  0.00  0.00    +0.000 NA
ENDBRANCH   2   9
BRANCH   6  15
ATOM     15  O   UNL     1       3.380   7.268  19.054  0.00  0.00    +0.000 OA
BRANCH  15  16
ATOM     16  C   UNL     1       2.268   7.755  19.710  0.00  0.00    +0.000 A 
ATOM     17  N   UNL     1       1.843   7.120  20.826  0.00  0.00    +0.000 NA
ATOM     18  C   UNL     1       0.740   7.610  21.433  0.00  0.00    +0.000 A 
ATOM     19  C   UNL     1       0.045   8.720  20.978  0.00  0.00    +0.000 A 
ATOM     20  C   UNL     1       0.505   9.368  19.833  0.00  0.00    +0.000 A 
ATOM     21  C   UNL     1       1.635   8.880  19.182  0.00  0.00    +0.000 A 
ATOM     22 CL   UNL     1       2.194   9.682  17.763  0.00  0.00    +0.000 Cl
ENDBRANCH  15  16
ENDBRANCH   6  15
TORSDOF 3
ENDMDL
MODEL 5
REMARK VINA RESULT:      -6.3      3.831      4.548
REMARK  Name = 
REMARK  3 active torsions:
REMARK  status: ('A' for Active; 'I' for Inactive)
REMARK    1  A    between atoms: C_2  and  C_3
REMARK    2  A    between atoms: C_12  and  O_13
REMARK    3  A    between atoms: O_13  and  C_14
REMARK                            x       y       z     vdW  Elec       q    Type
REMARK                         _______ _______ _______ _____ _____    ______ ____
ROOT
ATOM      1  O   UNL     1       7.899   6.670  16.008  0.00  0.00    +0.000 OA
ATOM      2  C   UNL     1       7.022   5.814  15.853  0.00  0.00    +0.000 C 
ATOM      3  N   UNL     1       6.129   5.461  16.872  0.00  0.00    +0.000 N 
ATOM      4  C   UNL     1       6.278   6.053  18.198  0.00  0.00    +0.000 C 
ATOM      5  C   UNL     1       6.258   4.968  19.272  0.00  0.00    +0.000 C 
ATOM      6  C   UNL     1       5.024   4.061  19.145  0.00  0.00    +0.000 C 
ATOM      7  C   UNL     1       4.903   3.521  17.716  0.00  0.00    +0.000 C 
ATOM      8  C   UNL     1       4.911   4.664  16.710  0.00  0.00    +0.000 C 
ENDROOT
BRANCH   2   9
ATOM      9  C   UNL     1       6.914   5.175  14.515  0.00  0.00    +0.000 A 
ATOM     10  C   UNL     1       5.950   4.197  14.312  0.00  0.00    +0.000 A 
ATOM     11  N   UNL     1       5.879   3.473  13.161  0.00  0.00    +0.000 NA
ATOM     12  C   UNL     1       6.803   3.787  12.224  0.00  0.00    +0.000 A 
ATOM     13  C   UNL     1       7.729   4.801  12.403  0.00  0.00    +0.000 A 
ATOM     14  N   UNL     1       7.795   5.530  13.539  0.00  0.00    +0.000 NA
ENDBRANCH   2   9
BRANCH   6  15
ATOM     15  O   UNL     1       3.827   4.805  19.419  0.00  0.00    +0.000 OA
BRANCH  15  16
ATOM     16  C   UNL     1       2.797   4.090  19.994  0.00  0.00    +0.000 A 
ATOM     17  N   UNL     1       2.955   3.619  21.252  0.00  0.00    +0.000 NA
ATOM     18  C   UNL     1       1.935   2.905  21.777  0.00  0.00    +0.000 A 
ATOM     19  C   UNL     1       0.752   2.650  21.102  0.00  0.00    +0.000 A 
ATOM     20  C   UNL     1       0.602   3.153  19.811  0.00  0.00    +0.000 A 
ATOM     21  C   UNL     1       1.641   3.885  19.241  0.00  0.00    +0.000 A 
ATOM     22 CL   UNL     1       1.452   4.498  17.641  0.00  0.00    +0.000 Cl
ENDBRANCH  15  16
ENDBRANCH   6  15
TORSDOF 3
ENDMDL
MODEL 6
REMARK VINA RESULT:      -6.3      3.814      4.504
REMARK  Name = 
REMARK  3 active torsions:
REMARK  status: ('A' for Active; 'I' for Inactive)
REMARK    1  A    between atoms: C_2  and  C_3
REMARK    2  A    between atoms: C_12  and  O_13
REMARK    3  A    between atoms: O_13  and  C_14
REMARK                            x       y       z     vdW  Elec       q    Type
REMARK                         _______ _______ _______ _____ _____    ______ ____
ROOT
ATOM      1  O   UNL     1       7.837   6.461  15.627  0.00  0.00    +0.000 OA
ATOM      2  C   UNL     1       6.978   5.576  15.577  0.00  0.00    +0.000 C 
ATOM      3  N   UNL     1       6.113   5.305  16.645  0.00  0.00    +0.000 N 
ATOM      4  C   UNL     1       6.273   6.029  17.901  0.00  0.00    +0.000 C 
ATOM      5  C   UNL     1       6.300   5.055  19.078  0.00  0.00    +0.000 C 
ATOM      6  C   UNL     1       5.086   4.113  19.067  0.00  0.00    +0.000 C 
ATOM      7  C   UNL     1       4.951   3.432  17.701  0.00  0.00    +0.000 C 
ATOM      8  C   UNL     1       4.911   4.469  16.588  0.00  0.00    +0.000 C 
ENDROOT
BRANCH   2   9
ATOM      9  C   UNL     1       6.860   4.805  14.310  0.00  0.00    +0.000 A 
ATOM     10  C   UNL     1       7.692   5.127  13.247  0.00  0.00    +0.000 A 
ATOM     11  N   UNL     1       7.552   4.562  12.017  0.00  0.00    +0.000 NA
ATOM     12  C   UNL     1       6.556   3.652  11.909  0.00  0.00    +0.000 A 
ATOM     13  C   UNL     1       5.762   3.289  12.984  0.00  0.00    +0.000 A 
ATOM     14  N   UNL     1       5.905   3.839  14.210  0.00  0.00    +0.000 NA
ENDBRANCH   2   9
BRANCH   6  15
ATOM     15  O   UNL     1       3.877   4.854  19.292  0.00  0.00    +0.000 OA
BRANCH  15  16
ATOM     16  C   UNL     1       2.860   4.164  19.920  0.00  0.00    +0.000 A 
ATOM     17  N   UNL     1       3.056   3.729  21.186  0.00  0.00    +0.000 NA
ATOM     18  C   UNL     1       2.048   3.038  21.763  0.00  0.00    +0.000 A 
ATOM     19  C   UNL     1       0.842   2.773  21.134  0.00  0.00    +0.000 A 
ATOM     20  C   UNL     1       0.654   3.240  19.834  0.00  0.00    +0.000 A 
ATOM     21  C   UNL     1       1.679   3.947  19.210  0.00  0.00    +0.000 A 
ATOM     22 CL   UNL     1       1.444   4.515  17.600  0.00  0.00    +0.000 Cl
ENDBRANCH  15  16
ENDBRANCH   6  15
TORSDOF 3
ENDMDL
MODEL 7
REMARK VINA RESULT:      -6.1      0.647      1.066
REMARK  Name = 
REMARK  3 active torsions:
REMARK  status: ('A' for Active; 'I' for Inactive)
REMARK    1  A    between atoms: C_2  and  C_3
REMARK    2  A    between atoms: C_12  and  O_13
REMARK    3  A    between atoms: O_13  and  C_14
REMARK                            x       y       z     vdW  Elec       q    Type
REMARK                         _______ _______ _______ _____ _____    ______ ____
ROOT
ATOM      1  O   UNL     1       5.299   3.449  19.015  0.00  0.00    +0.000 OA
ATOM      2  C   UNL     1       5.003   4.433  18.330  0.00  0.00    +0.000 C 
ATOM      3  N   UNL     1       4.160   5.449  18.798  0.00  0.00    +0.000 N 
ATOM      4  C   UNL     1       3.532   5.316  20.109  0.00  0.00    +0.000 C 
ATOM      5  C   UNL     1       2.033   5.590  20.012  0.00  0.00    +0.000 C 
ATOM      6  C   UNL     1       1.741   6.936  19.330  0.00  0.00    +0.000 C 
ATOM      7  C   UNL     1       2.476   7.024  17.988  0.00  0.00    +0.000 C 
ATOM      8  C   UNL     1       3.963   6.759  18.174  0.00  0.00    +0.000 C 
ENDROOT
BRANCH   2   9
ATOM      9  C   UNL     1       5.604   4.532  16.973  0.00  0.00    +0.000 A 
ATOM     10  C   UNL     1       4.843   4.165  15.872  0.00  0.00    +0.000 A 
ATOM     11  N   UNL     1       5.365   4.098  14.617  0.00  0.00    +0.000 NA
ATOM     12  C   UNL     1       6.672   4.431  14.517  0.00  0.00    +0.000 A 
ATOM     13  C   UNL     1       7.417   4.852  15.605  0.00  0.00    +0.000 A 
ATOM     14  N   UNL     1       6.900   4.931  16.851  0.00  0.00    +0.000 NA
ENDBRANCH   2   9
BRANCH   6  15
ATOM     15  O   UNL     1       2.212   8.021  20.143  0.00  0.00    +0.000 OA
BRANCH  15  16
ATOM     16  C   UNL     1       1.235   8.825  20.693  0.00  0.00    +0.000 A 
ATOM     17  N   UNL     1       0.735   8.502  21.907  0.00  0.00    +0.000 NA
ATOM     18  C   UNL     1      -0.235   9.299  22.406  0.00  0.00    +0.000 A 
ATOM     19  C   UNL     1      -0.722  10.418  21.749  0.00  0.00    +0.000 A 
ATOM     20  C   UNL     1      -0.185  10.742  20.504  0.00  0.00    +0.000 A 
ATOM     21  C   UNL     1       0.810   9.933  19.960  0.00  0.00    +0.000 A 
ATOM     22 CL   UNL     1       1.463  10.335  18.416  0.00  0.00    +0.000 Cl
ENDBRANCH  15  16
ENDBRANCH   6  15
TORSDOF 3
ENDMDL
MODEL 8
REMARK VINA RESULT:      -6.1      3.053      4.823
REMARK  Name = 
REMARK  3 active torsions:
REMARK  status: ('A' for Active; 'I' for Inactive)
REMARK    1  A    between atoms: C_2  and  C_3
REMARK    2  A    between atoms: C_12  and  O_13
REMARK    3  A    between atoms: O_13  and  C_14
REMARK                            x       y       z     vdW  Elec       q    Type
REMARK                         _______ _______ _______ _____ _____    ______ ____
ROOT
ATOM      1  O   UNL     1       7.946   5.534  13.887  0.00  0.00    +0.000 OA
ATOM      2  C   UNL     1       6.946   4.856  14.142  0.00  0.00    +0.000 C 
ATOM      3  N   UNL     1       6.310   4.893  15.389  0.00  0.00    +0.000 N 
ATOM      4  C   UNL     1       6.884   5.694  16.466  0.00  0.00    +0.000 C 
ATOM      5  C   UNL     1       6.992   4.866  17.746  0.00  0.00    +0.000 C 
ATOM      6  C   UNL     1       5.651   4.215  18.119  0.00  0.00    +0.000 C 
ATOM      7  C   UNL     1       5.083   3.439  16.924  0.00  0.00    +0.000 C 
ATOM      8  C   UNL     1       4.991   4.337  15.699  0.00  0.00    +0.000 C 
ENDROOT
BRANCH   2   9
ATOM      9  C   UNL     1       6.400   4.000  13.055  0.00  0.00    +0.000 A 
ATOM     10  C   UNL     1       5.037   4.029  12.795  0.00  0.00    +0.000 A 
ATOM     11  N   UNL     1       4.446   3.178  11.913  0.00  0.00    +0.000 NA
ATOM     12  C   UNL     1       5.284   2.316  11.293  0.00  0.00    +0.000 A 
ATOM     13  C   UNL     1       6.652   2.324  11.509  0.00  0.00    +0.000 A 
ATOM     14  N   UNL     1       7.244   3.174  12.376  0.00  0.00    +0.000 NA
ENDBRANCH   2   9
BRANCH   6  15
ATOM     15  O   UNL     1       4.687   5.220  18.467  0.00  0.00    +0.000 OA
BRANCH  15  16
ATOM     16  C   UNL     1       3.690   4.819  19.333  0.00  0.00    +0.000 A 
ATOM     17  N   UNL     1       3.761   3.582  19.876  0.00  0.00    +0.000 NA
ATOM     18  C   UNL     1       2.758   3.213  20.703  0.00  0.00    +0.000 A 
ATOM     19  C   UNL     1       1.688   4.034  21.023  0.00  0.00    +0.000 A 
ATOM     20  C   UNL     1       1.639   5.310  20.463  0.00  0.00    +0.000 A 
ATOM     21  C   UNL     1       2.654   5.714  19.600  0.00  0.00    +0.000 A 
ATOM     22 CL   UNL     1       2.582   7.289  18.905  0.00  0.00    +0.000 Cl
ENDBRANCH  15  16
ENDBRANCH   6  15
TORSDOF 3
ENDMDL
MODEL 9
REMARK VINA RESULT:      -6.0      2.999      4.652
REMARK  Name = 
REMARK  3 active torsions:
REMARK  status: ('A' for Active; 'I' for Inactive)
REMARK    1  A    between atoms: C_2  and  C_3
REMARK    2  A    between atoms: C_12  and  O_13
REMARK    3  A    between atoms: O_13  and  C_14
REMARK                            x       y       z     vdW  Elec       q    Type
REMARK                         _______ _______ _______ _____ _____    ______ ____
ROOT
ATOM      1  O   UNL     1       7.817   5.509  13.939  0.00  0.00    +0.000 OA
ATOM      2  C   UNL     1       6.835   4.834  14.264  0.00  0.00    +0.000 C 
ATOM      3  N   UNL     1       6.253   4.917  15.535  0.00  0.00    +0.000 N 
ATOM      4  C   UNL     1       6.865   5.765  16.553  0.00  0.00    +0.000 C 
ATOM      5  C   UNL     1       7.035   4.991  17.859  0.00  0.00    +0.000 C 
ATOM      6  C   UNL     1       5.717   4.345  18.315  0.00  0.00    +0.000 C 
ATOM      7  C   UNL     1       5.107   3.517  17.179  0.00  0.00    +0.000 C 
ATOM      8  C   UNL     1       4.953   4.364  15.924  0.00  0.00    +0.000 C 
ENDROOT
BRANCH   2   9
ATOM      9  C   UNL     1       6.252   3.931  13.236  0.00  0.00    +0.000 A 
ATOM     10  C   UNL     1       7.095   3.087  12.527  0.00  0.00    +0.000 A 
ATOM     11  N   UNL     1       6.657   2.333  11.481  0.00  0.00    +0.000 NA
ATOM     12  C   UNL     1       5.341   2.452  11.194  0.00  0.00    +0.000 A 
ATOM     13  C   UNL     1       4.488   3.251  11.937  0.00  0.00    +0.000 A 
ATOM     14  N   UNL     1       4.915   3.991  12.984  0.00  0.00    +0.000 NA
ENDBRANCH   2   9
BRANCH   6  15
ATOM     15  O   UNL     1       4.760   5.356  18.665  0.00  0.00    +0.000 OA
BRANCH  15  16
ATOM     16  C   UNL     1       3.702   4.934  19.445  0.00  0.00    +0.000 A 
ATOM     17  N   UNL     1       3.757   3.704  20.002  0.00  0.00    +0.000 NA
ATOM     18  C   UNL     1       2.696   3.314  20.743  0.00  0.00    +0.000 A 
ATOM     19  C   UNL     1       1.582   4.109  20.963  0.00  0.00    +0.000 A 
ATOM     20  C   UNL     1       1.550   5.380  20.390  0.00  0.00    +0.000 A 
ATOM     21  C   UNL     1       2.625   5.804  19.614  0.00  0.00    +0.000 A 
ATOM     22 CL   UNL     1       2.575   7.373  18.902  0.00  0.00    +0.000 Cl
ENDBRANCH  15  16
ENDBRANCH   6  15
TORSDOF 3
ENDMDL
