MODEL 1
REMARK VINA RESULT:      -8.5      0.000      0.000
REMARK  Name = 
REMARK  4 active torsions:
REMARK  status: ('A' for Active; 'I' for Inactive)
REMARK    1  A    between atoms: C_1  and  N_2
REMARK    2  A    between atoms: C_5  and  C_6
REMARK    3  A    between atoms: C_9  and  C_10
REMARK    4  A    between atoms: C_12  and  O_13
REMARK                            x       y       z     vdW  Elec       q    Type
REMARK                         _______ _______ _______ _____ _____    ______ ____
ROOT
ATOM      1  C   UNL     1       0.305  13.575  19.397  0.00  0.00    +0.000 C 
ATOM      2  N   UNL     1       0.399  12.490  18.449  0.00  0.00    +0.000 N 
ATOM      3  C   UNL     1       0.737  11.262  18.997  0.00  0.00    +0.000 A 
ATOM      4  N   UNL     1       0.387  10.967  20.251  0.00  0.00    +0.000 NA
ATOM      5  C   UNL     1       0.701   9.741  20.721  0.00  0.00    +0.000 A 
ATOM      6  C   UNL     1       0.260   9.457  22.127  0.00  0.00    +0.000 C 
ATOM      7  C   UNL     1       1.369   8.789  19.946  0.00  0.00    +0.000 A 
ATOM      8  C   UNL     1       1.698   7.476  20.372  0.00  0.00    +0.000 A 
ATOM      9  C   UNL     1       2.331   6.552  19.526  0.00  0.00    +0.000 A 
ATOM     10  C   UNL     1       2.661   7.005  18.242  0.00  0.00    +0.000 A 
ATOM     11  C   UNL     1       2.357   8.310  17.830  0.00  0.00    +0.000 A 
ATOM     12  C   UNL     1       1.701   9.210  18.658  0.00  0.00    +0.000 A 
ATOM     13  N   UNL     1       1.404  10.429  18.191  0.00  0.00    +0.000 NA
ATOM     14  H   UNL     1       1.017  12.636  17.660  0.00  0.00    +0.000 HD
ENDROOT
BRANCH   9  15
ATOM     15  C   UNL     1       2.609   5.165  19.968  0.00  0.00    +0.000 A 
ATOM     16  C   UNL     1       3.745   4.460  19.526  0.00  0.00    +0.000 A 
ATOM     17  C   UNL     1       3.980   3.146  19.937  0.00  0.00    +0.000 A 
ATOM     18  C   UNL     1       3.111   2.502  20.805  0.00  0.00    +0.000 A 
ATOM     19  C   UNL     1       1.995   3.185  21.254  0.00  0.00    +0.000 A 
ATOM     20  F   UNL     1       1.144   2.584  22.096  0.00  0.00    +0.000 F 
ATOM     21  C   UNL     1       1.735   4.491  20.843  0.00  0.00    +0.000 A 
BRANCH  17  22
ATOM     22  O   UNL     1       5.069   2.449  19.501  0.00  0.00    +0.000 OA
ATOM     23  H   UNL     1       5.805   3.067  19.358  0.00  0.00    +0.000 HD
ENDBRANCH  17  22
ENDBRANCH   9  15
TORSDOF 2
ENDMDL
MODEL 2
REMARK VINA RESULT:      -8.2      5.738      7.825
REMARK  Name = 
REMARK  4 active torsions:
REMARK  status: ('A' for Active; 'I' for Inactive)
REMARK    1  A    between atoms: C_1  and  N_2
REMARK    2  A    between atoms: C_5  and  C_6
REMARK    3  A    between atoms: C_9  and  C_10
REMARK    4  A    between atoms: C_12  and  O_13
REMARK                            x       y       z     vdW  Elec       q    Type
REMARK                         _______ _______ _______ _____ _____    ______ ____
ROOT
ATOM      1  C   UNL     1       1.656   2.957  22.107  0.00  0.00    +0.000 C 
ATOM      2  N   UNL     1       1.593   3.998  21.109  0.00  0.00    +0.000 N 
ATOM      3  C   UNL     1       2.425   3.813  20.017  0.00  0.00    +0.000 A 
ATOM      4  N   UNL     1       2.740   2.579  19.613  0.00  0.00    +0.000 NA
ATOM      5  C   UNL     1       3.518   2.455  18.518  0.00  0.00    +0.000 A 
ATOM      6  C   UNL     1       3.817   1.045  18.097  0.00  0.00    +0.000 C 
ATOM      7  C   UNL     1       3.995   3.558  17.806  0.00  0.00    +0.000 A 
ATOM      8  C   UNL     1       4.788   3.491  16.631  0.00  0.00    +0.000 A 
ATOM      9  C   UNL     1       5.196   4.641  15.938  0.00  0.00    +0.000 A 
ATOM     10  C   UNL     1       4.813   5.871  16.487  0.00  0.00    +0.000 A 
ATOM     11  C   UNL     1       4.049   5.937  17.661  0.00  0.00    +0.000 A 
ATOM     12  C   UNL     1       3.619   4.798  18.325  0.00  0.00    +0.000 A 
ATOM     13  N   UNL     1       2.859   4.928  19.420  0.00  0.00    +0.000 NA
ATOM     14  H   UNL     1       1.749   4.944  21.437  0.00  0.00    +0.000 HD
ENDROOT
BRANCH   9  15
ATOM     15  C   UNL     1       5.971   4.548  14.677  0.00  0.00    +0.000 A 
ATOM     16  C   UNL     1       7.118   5.334  14.453  0.00  0.00    +0.000 A 
ATOM     17  C   UNL     1       7.823   5.247  13.250  0.00  0.00    +0.000 A 
ATOM     18  C   UNL     1       7.426   4.375  12.249  0.00  0.00    +0.000 A 
ATOM     19  C   UNL     1       6.305   3.591  12.459  0.00  0.00    +0.000 A 
ATOM     20  F   UNL     1       5.905   2.738  11.506  0.00  0.00    +0.000 F 
ATOM     21  C   UNL     1       5.579   3.674  13.645  0.00  0.00    +0.000 A 
BRANCH  17  22
ATOM     22  O   UNL     1       8.926   6.017  13.017  0.00  0.00    +0.000 OA
ATOM     23  H   UNL     1       8.689   6.737  12.410  0.00  0.00    +0.000 HD
ENDBRANCH  17  22
ENDBRANCH   9  15
TORSDOF 2
ENDMDL
MODEL 3
REMARK VINA RESULT:      -7.9      5.883      7.860
REMARK  Name = 
REMARK  4 active torsions:
REMARK  status: ('A' for Active; 'I' for Inactive)
REMARK    1  A    between atoms: C_1  and  N_2
REMARK    2  A    between atoms: C_5  and  C_6
REMARK    3  A    between atoms: C_9  and  C_10
REMARK    4  A    between atoms: C_12  and  O_13
REMARK                            x       y       z     vdW  Elec       q    Type
REMARK                         _______ _______ _______ _____ _____    ______ ____
ROOT
ATOM      1  C   UNL     1       2.133   3.642  22.144  0.00  0.00    +0.000 C 
ATOM      2  N   UNL     1       2.232   4.722  21.190  0.00  0.00    +0.000 N 
ATOM      3  C   UNL     1       2.923   4.416  20.029  0.00  0.00    +0.000 A 
ATOM      4  N   UNL     1       2.927   3.166  19.559  0.00  0.00    +0.000 NA
ATOM      5  C   UNL     1       3.578   2.931  18.401  0.00  0.00    +0.000 A 
ATOM      6  C   UNL     1       3.526   1.513  17.909  0.00  0.00    +0.000 C 
ATOM      7  C   UNL     1       4.236   3.939  17.691  0.00  0.00    +0.000 A 
ATOM      8  C   UNL     1       4.909   3.760  16.454  0.00  0.00    +0.000 A 
ATOM      9  C   UNL     1       5.512   4.828  15.770  0.00  0.00    +0.000 A 
ATOM     10  C   UNL     1       5.450   6.081  16.391  0.00  0.00    +0.000 A 
ATOM     11  C   UNL     1       4.806   6.253  17.624  0.00  0.00    +0.000 A 
ATOM     12  C   UNL     1       4.182   5.202  18.281  0.00  0.00    +0.000 A 
ATOM     13  N   UNL     1       3.549   5.439  19.437  0.00  0.00    +0.000 NA
ATOM     14  H   UNL     1       2.617   5.593  21.537  0.00  0.00    +0.000 HD
ENDROOT
BRANCH   9  15
ATOM     15  C   UNL     1       6.154   4.632  14.449  0.00  0.00    +0.000 A 
ATOM     16  C   UNL     1       5.697   3.659  13.540  0.00  0.00    +0.000 A 
ATOM     17  C   UNL     1       6.329   3.475  12.307  0.00  0.00    +0.000 A 
ATOM     18  C   UNL     1       7.412   4.256  11.935  0.00  0.00    +0.000 A 
ATOM     19  C   UNL     1       7.866   5.222  12.814  0.00  0.00    +0.000 A 
ATOM     20  F   UNL     1       8.910   5.990  12.474  0.00  0.00    +0.000 F 
ATOM     21  C   UNL     1       7.260   5.410  14.055  0.00  0.00    +0.000 A 
BRANCH  17  22
ATOM     22  O   UNL     1       5.903   2.523  11.427  0.00  0.00    +0.000 OA
ATOM     23  H   UNL     1       6.546   2.450  10.702  0.00  0.00    +0.000 HD
ENDBRANCH  17  22
ENDBRANCH   9  15
TORSDOF 2
ENDMDL
MODEL 4
REMARK VINA RESULT:      -7.8      1.566      1.852
REMARK  Name = 
REMARK  4 active torsions:
REMARK  status: ('A' for Active; 'I' for Inactive)
REMARK    1  A    between atoms: C_1  and  N_2
REMARK    2  A    between atoms: C_5  and  C_6
REMARK    3  A    between atoms: C_9  and  C_10
REMARK    4  A    between atoms: C_12  and  O_13
REMARK                            x       y       z     vdW  Elec       q    Type
REMARK                         _______ _______ _______ _____ _____    ______ ____
ROOT
ATOM      1  C   UNL     1       0.049  13.902  20.300  0.00  0.00    +0.000 C 
ATOM      2  N   UNL     1       0.077  12.932  19.230  0.00  0.00    +0.000 N 
ATOM      3  C   UNL     1       0.470  11.657  19.605  0.00  0.00    +0.000 A 
ATOM      4  N   UNL     1       0.227  11.216  20.842  0.00  0.00    +0.000 NA
ATOM      5  C   UNL     1       0.591   9.952  21.142  0.00  0.00    +0.000 A 
ATOM      6  C   UNL     1       0.269   9.503  22.538  0.00  0.00    +0.000 C 
ATOM      7  C   UNL     1       1.202   9.106  20.214  0.00  0.00    +0.000 A 
ATOM      8  C   UNL     1       1.578   7.760  20.460  0.00  0.00    +0.000 A 
ATOM      9  C   UNL     1       2.149   6.949  19.466  0.00  0.00    +0.000 A 
ATOM     10  C   UNL     1       2.369   7.550  18.220  0.00  0.00    +0.000 A 
ATOM     11  C   UNL     1       2.019   8.888  17.984  0.00  0.00    +0.000 A 
ATOM     12  C   UNL     1       1.424   9.675  18.959  0.00  0.00    +0.000 A 
ATOM     13  N   UNL     1       1.078  10.934  18.660  0.00  0.00    +0.000 NA
ATOM     14  H   UNL     1       0.626  13.178  18.416  0.00  0.00    +0.000 HD
ENDROOT
BRANCH   9  15
ATOM     15  C   UNL     1       2.476   5.527  19.723  0.00  0.00    +0.000 A 
ATOM     16  C   UNL     1       2.036   4.865  20.886  0.00  0.00    +0.000 A 
ATOM     17  C   UNL     1       2.371   3.529  21.122  0.00  0.00    +0.000 A 
ATOM     18  C   UNL     1       3.131   2.811  20.212  0.00  0.00    +0.000 A 
ATOM     19  C   UNL     1       3.562   3.446  19.061  0.00  0.00    +0.000 A 
ATOM     20  F   UNL     1       4.295   2.770  18.166  0.00  0.00    +0.000 F 
ATOM     21  C   UNL     1       3.252   4.782  18.815  0.00  0.00    +0.000 A 
BRANCH  17  22
ATOM     22  O   UNL     1       1.964   2.885  22.254  0.00  0.00    +0.000 OA
ATOM     23  H   UNL     1       1.522   3.521  22.841  0.00  0.00    +0.000 HD
ENDBRANCH  17  22
ENDBRANCH   9  15
TORSDOF 2
ENDMDL
MODEL 5
REMARK VINA RESULT:      -7.6      1.075      1.075
REMARK  Name = 
REMARK  4 active torsions:
REMARK  status: ('A' for Active; 'I' for Inactive)
REMARK    1  A    between atoms: C_1  and  N_2
REMARK    2  A    between atoms: C_5  and  C_6
REMARK    3  A    between atoms: C_9  and  C_10
REMARK    4  A    between atoms: C_12  and  O_13
REMARK                            x       y       z     vdW  Elec       q    Type
REMARK                         _______ _______ _______ _____ _____    ______ ____
ROOT
ATOM      1  C   UNL     1       1.173  13.644  20.230  0.00  0.00    +0.000 C 
ATOM      2  N   UNL     1       1.084  12.712  19.131  0.00  0.00    +0.000 N 
ATOM      3  C   UNL     1       1.191  11.376  19.485  0.00  0.00    +0.000 A 
ATOM      4  N   UNL     1       0.780  10.965  20.687  0.00  0.00    +0.000 NA
ATOM      5  C   UNL     1       0.866   9.647  20.965  0.00  0.00    +0.000 A 
ATOM      6  C   UNL     1       0.364   9.240  22.320  0.00  0.00    +0.000 C 
ATOM      7  C   UNL     1       1.363   8.718  20.048  0.00  0.00    +0.000 A 
ATOM      8  C   UNL     1       1.447   7.318  20.269  0.00  0.00    +0.000 A 
ATOM      9  C   UNL     1       1.917   6.433  19.285  0.00  0.00    +0.000 A 
ATOM     10  C   UNL     1       2.337   7.006  18.078  0.00  0.00    +0.000 A 
ATOM     11  C   UNL     1       2.275   8.391  17.869  0.00  0.00    +0.000 A 
ATOM     12  C   UNL     1       1.779   9.259  18.831  0.00  0.00    +0.000 A 
ATOM     13  N   UNL     1       1.710  10.567  18.555  0.00  0.00    +0.000 NA
ATOM     14  H   UNL     1       1.727  12.862  18.363  0.00  0.00    +0.000 HD
ENDROOT
BRANCH   9  15
ATOM     15  C   UNL     1       1.938   4.968  19.512  0.00  0.00    +0.000 A 
ATOM     16  C   UNL     1       2.326   4.068  18.502  0.00  0.00    +0.000 A 
ATOM     17  C   UNL     1       2.320   2.689  18.728  0.00  0.00    +0.000 A 
ATOM     18  C   UNL     1       1.948   2.167  19.957  0.00  0.00    +0.000 A 
ATOM     19  C   UNL     1       1.573   3.041  20.962  0.00  0.00    +0.000 A 
ATOM     20  F   UNL     1       1.214   2.559  22.159  0.00  0.00    +0.000 F 
ATOM     21  C   UNL     1       1.557   4.418  20.751  0.00  0.00    +0.000 A 
BRANCH  17  22
ATOM     22  O   UNL     1       2.678   1.808  17.749  0.00  0.00    +0.000 OA
ATOM     23  H   UNL     1       3.309   1.166  18.115  0.00  0.00    +0.000 HD
ENDBRANCH  17  22
ENDBRANCH   9  15
TORSDOF 2
ENDMDL
MODEL 6
REMARK VINA RESULT:      -7.6      1.224      1.230
REMARK  Name = 
REMARK  4 active torsions:
REMARK  status: ('A' for Active; 'I' for Inactive)
REMARK    1  A    between atoms: C_1  and  N_2
REMARK    2  A    between atoms: C_5  and  C_6
REMARK    3  A    between atoms: C_9  and  C_10
REMARK    4  A    between atoms: C_12  and  O_13
REMARK                            x       y       z     vdW  Elec       q    Type
REMARK                         _______ _______ _______ _____ _____    ______ ____
ROOT
ATOM      1  C   UNL     1       0.722  13.362  19.957  0.00  0.00    +0.000 C 
ATOM      2  N   UNL     1       0.896  12.491  18.819  0.00  0.00    +0.000 N 
ATOM      3  C   UNL     1       1.118  11.159  19.129  0.00  0.00    +0.000 A 
ATOM      4  N   UNL     1       0.604  10.634  20.244  0.00  0.00    +0.000 NA
ATOM      5  C   UNL     1       0.814   9.322  20.477  0.00  0.00    +0.000 A 
ATOM      6  C   UNL     1       0.191   8.782  21.731  0.00  0.00    +0.000 C 
ATOM      7  C   UNL     1       1.539   8.510  19.600  0.00  0.00    +0.000 A 
ATOM      8  C   UNL     1       1.766   7.120  19.773  0.00  0.00    +0.000 A 
ATOM      9  C   UNL     1       2.467   6.353  18.829  0.00  0.00    +0.000 A 
ATOM     10  C   UNL     1       2.970   7.039  17.717  0.00  0.00    +0.000 A 
ATOM     11  C   UNL     1       2.766   8.418  17.558  0.00  0.00    +0.000 A 
ATOM     12  C   UNL     1       2.044   9.166  18.477  0.00  0.00    +0.000 A 
ATOM     13  N   UNL     1       1.851  10.471  18.248  0.00  0.00    +0.000 NA
ATOM     14  H   UNL     1       1.611  12.759  18.154  0.00  0.00    +0.000 HD
ENDROOT
BRANCH   9  15
ATOM     15  C   UNL     1       2.638   4.890  18.997  0.00  0.00    +0.000 A 
ATOM     16  C   UNL     1       3.861   4.331  19.414  0.00  0.00    +0.000 A 
ATOM     17  C   UNL     1       4.009   2.948  19.547  0.00  0.00    +0.000 A 
ATOM     18  C   UNL     1       2.954   2.087  19.288  0.00  0.00    +0.000 A 
ATOM     19  C   UNL     1       1.744   2.623  18.885  0.00  0.00    +0.000 A 
ATOM     20  F   UNL     1       0.710   1.810  18.634  0.00  0.00    +0.000 F 
ATOM     21  C   UNL     1       1.580   3.999  18.732  0.00  0.00    +0.000 A 
BRANCH  17  22
ATOM     22  O   UNL     1       5.195   2.396  19.935  0.00  0.00    +0.000 OA
ATOM     23  H   UNL     1       5.509   2.845  20.737  0.00  0.00    +0.000 HD
ENDBRANCH  17  22
ENDBRANCH   9  15
TORSDOF 2
ENDMDL
MODEL 7
REMARK VINA RESULT:      -7.5      4.346      7.172
REMARK  Name = 
REMARK  4 active torsions:
REMARK  status: ('A' for Active; 'I' for Inactive)
REMARK    1  A    between atoms: C_1  and  N_2
REMARK    2  A    between atoms: C_5  and  C_6
REMARK    3  A    between atoms: C_9  and  C_10
REMARK    4  A    between atoms: C_12  and  O_13
REMARK                            x       y       z     vdW  Elec       q    Type
REMARK                         _______ _______ _______ _____ _____    ______ ____
ROOT
ATOM      1  C   UNL     1       4.015   1.072  18.039  0.00  0.00    +0.000 C 
ATOM      2  N   UNL     1       4.436   2.432  17.802  0.00  0.00    +0.000 N 
ATOM      3  C   UNL     1       3.716   3.396  18.489  0.00  0.00    +0.000 A 
ATOM      4  N   UNL     1       3.169   3.110  19.673  0.00  0.00    +0.000 NA
ATOM      5  C   UNL     1       2.516   4.097  20.320  0.00  0.00    +0.000 A 
ATOM      6  C   UNL     1       1.945   3.723  21.658  0.00  0.00    +0.000 C 
ATOM      7  C   UNL     1       2.399   5.388  19.798  0.00  0.00    +0.000 A 
ATOM      8  C   UNL     1       1.754   6.474  20.445  0.00  0.00    +0.000 A 
ATOM      9  C   UNL     1       1.710   7.760  19.882  0.00  0.00    +0.000 A 
ATOM     10  C   UNL     1       2.306   7.911  18.624  0.00  0.00    +0.000 A 
ATOM     11  C   UNL     1       2.922   6.832  17.975  0.00  0.00    +0.000 A 
ATOM     12  C   UNL     1       2.992   5.571  18.549  0.00  0.00    +0.000 A 
ATOM     13  N   UNL     1       3.629   4.591  17.895  0.00  0.00    +0.000 NA
ATOM     14  H   UNL     1       4.470   2.729  16.834  0.00  0.00    +0.000 HD
ENDROOT
BRANCH   9  15
ATOM     15  C   UNL     1       1.088   8.896  20.602  0.00  0.00    +0.000 A 
ATOM     16  C   UNL     1       0.800   8.832  21.979  0.00  0.00    +0.000 A 
ATOM     17  C   UNL     1       0.194   9.905  22.637  0.00  0.00    +0.000 A 
ATOM     18  C   UNL     1      -0.127  11.071  21.959  0.00  0.00    +0.000 A 
ATOM     19  C   UNL     1       0.158  11.151  20.607  0.00  0.00    +0.000 A 
ATOM     20  F   UNL     1      -0.140  12.269  19.932  0.00  0.00    +0.000 F 
ATOM     21  C   UNL     1       0.748  10.085  19.930  0.00  0.00    +0.000 A 
BRANCH  17  22
ATOM     22  O   UNL     1      -0.104   9.846  23.967  0.00  0.00    +0.000 OA
ATOM     23  H   UNL     1       0.712   9.688  24.470  0.00  0.00    +0.000 HD
ENDBRANCH  17  22
ENDBRANCH   9  15
TORSDOF 2
ENDMDL
MODEL 8
REMARK VINA RESULT:      -7.3      4.200      7.036
REMARK  Name = 
REMARK  4 active torsions:
REMARK  status: ('A' for Active; 'I' for Inactive)
REMARK    1  A    between atoms: C_1  and  N_2
REMARK    2  A    between atoms: C_5  and  C_6
REMARK    3  A    between atoms: C_9  and  C_10
REMARK    4  A    between atoms: C_12  and  O_13
REMARK                            x       y       z     vdW  Elec       q    Type
REMARK                         _______ _______ _______ _____ _____    ______ ____
ROOT
ATOM      1  C   UNL     1       4.080   1.320  17.923  0.00  0.00    +0.000 C 
ATOM      2  N   UNL     1       4.472   2.691  17.697  0.00  0.00    +0.000 N 
ATOM      3  C   UNL     1       3.737   3.634  18.398  0.00  0.00    +0.000 A 
ATOM      4  N   UNL     1       3.204   3.324  19.583  0.00  0.00    +0.000 NA
ATOM      5  C   UNL     1       2.535   4.291  20.244  0.00  0.00    +0.000 A 
ATOM      6  C   UNL     1       1.981   3.893  21.582  0.00  0.00    +0.000 C 
ATOM      7  C   UNL     1       2.387   5.584  19.736  0.00  0.00    +0.000 A 
ATOM      8  C   UNL     1       1.724   6.651  20.398  0.00  0.00    +0.000 A 
ATOM      9  C   UNL     1       1.651   7.941  19.849  0.00  0.00    +0.000 A 
ATOM     10  C   UNL     1       2.234   8.117  18.588  0.00  0.00    +0.000 A 
ATOM     11  C   UNL     1       2.868   7.057  17.924  0.00  0.00    +0.000 A 
ATOM     12  C   UNL     1       2.968   5.792  18.485  0.00  0.00    +0.000 A 
ATOM     13  N   UNL     1       3.621   4.832  17.817  0.00  0.00    +0.000 NA
ATOM     14  H   UNL     1       4.493   2.998  16.732  0.00  0.00    +0.000 HD
ENDROOT
BRANCH   9  15
ATOM     15  C   UNL     1       1.010   9.056  20.584  0.00  0.00    +0.000 A 
ATOM     16  C   UNL     1       0.818  10.320  19.992  0.00  0.00    +0.000 A 
ATOM     17  C   UNL     1       0.230  11.366  20.707  0.00  0.00    +0.000 A 
ATOM     18  C   UNL     1      -0.196  11.188  22.014  0.00  0.00    +0.000 A 
ATOM     19  C   UNL     1      -0.022   9.950  22.606  0.00  0.00    +0.000 A 
ATOM     20  F   UNL     1      -0.430   9.754  23.866  0.00  0.00    +0.000 F 
ATOM     21  C   UNL     1       0.576   8.898  21.914  0.00  0.00    +0.000 A 
BRANCH  17  22
ATOM     22  O   UNL     1       0.056  12.598  20.148  0.00  0.00    +0.000 OA
ATOM     23  H   UNL     1       0.924  13.016  20.020  0.00  0.00    +0.000 HD
ENDBRANCH  17  22
ENDBRANCH   9  15
TORSDOF 2
ENDMDL
MODEL 9
REMARK VINA RESULT:      -7.3      1.433      1.759
REMARK  Name = 
REMARK  4 active torsions:
REMARK  status: ('A' for Active; 'I' for Inactive)
REMARK    1  A    between atoms: C_1  and  N_2
REMARK    2  A    between atoms: C_5  and  C_6
REMARK    3  A    between atoms: C_9  and  C_10
REMARK    4  A    between atoms: C_12  and  O_13
REMARK                            x       y       z     vdW  Elec       q    Type
REMARK                         _______ _______ _______ _____ _____    ______ ____
ROOT
ATOM      1  C   UNL     1      -1.511  13.740  21.278  0.00  0.00    +0.000 C 
ATOM      2  N   UNL     1      -1.406  12.913  20.098  0.00  0.00    +0.000 N 
ATOM      3  C   UNL     1      -0.672  11.749  20.263  0.00  0.00    +0.000 A 
ATOM      4  N   UNL     1      -0.626  11.147  21.454  0.00  0.00    +0.000 NA
ATOM      5  C   UNL     1       0.066   9.992  21.550  0.00  0.00    +0.000 A 
ATOM      6  C   UNL     1       0.060   9.348  22.905  0.00  0.00    +0.000 C 
ATOM      7  C   UNL     1       0.723   9.419  20.458  0.00  0.00    +0.000 A 
ATOM      8  C   UNL     1       1.438   8.193  20.488  0.00  0.00    +0.000 A 
ATOM      9  C   UNL     1       2.039   7.649  19.342  0.00  0.00    +0.000 A 
ATOM     10  C   UNL     1       1.931   8.400  18.164  0.00  0.00    +0.000 A 
ATOM     11  C   UNL     1       1.244   9.623  18.141  0.00  0.00    +0.000 A 
ATOM     12  C   UNL     1       0.623  10.140  19.268  0.00  0.00    +0.000 A 
ATOM     13  N   UNL     1      -0.050  11.293  19.171  0.00  0.00    +0.000 NA
ATOM     14  H   UNL     1      -1.052  13.365  19.264  0.00  0.00    +0.000 HD
ENDROOT
BRANCH   9  15
ATOM     15  C   UNL     1       2.726   6.337  19.379  0.00  0.00    +0.000 A 
ATOM     16  C   UNL     1       3.806   6.042  18.525  0.00  0.00    +0.000 A 
ATOM     17  C   UNL     1       4.430   4.792  18.561  0.00  0.00    +0.000 A 
ATOM     18  C   UNL     1       4.015   3.811  19.448  0.00  0.00    +0.000 A 
ATOM     19  C   UNL     1       2.960   4.090  20.300  0.00  0.00    +0.000 A 
ATOM     20  F   UNL     1       2.545   3.158  21.168  0.00  0.00    +0.000 F 
ATOM     21  C   UNL     1       2.316   5.325  20.268  0.00  0.00    +0.000 A 
BRANCH  17  22
ATOM     22  O   UNL     1       5.466   4.492  17.725  0.00  0.00    +0.000 OA
ATOM     23  H   UNL     1       5.662   5.265  17.171  0.00  0.00    +0.000 HD
ENDBRANCH  17  22
ENDBRANCH   9  15
TORSDOF 2
ENDMDL
