MODEL 1
REMARK VINA RESULT:      -7.0      0.000      0.000
REMARK  Name = 
REMARK  5 active torsions:
REMARK  status: ('A' for Active; 'I' for Inactive)
REMARK    1  A    between atoms: C_1  and  C_2
REMARK    2  A    between atoms: N_6  and  C_7
REMARK    3  A    between atoms: C_11  and  C_13
REMARK    4  A    between atoms: C_13  and  C_14
REMARK    5  A    between atoms: C_17  and  C_18
REMARK                            x       y       z     vdW  Elec       q    Type
REMARK                         _______ _______ _______ _____ _____    ______ ____
ROOT
ATOM      1  C   UNL     1       0.481  10.721  21.609  0.00  0.00    +0.000 C 
ATOM      2  C   UNL     1       0.701  10.965  20.109  0.00  0.00    +0.000 C 
ATOM      3  C   UNL     1       0.639   9.719  19.240  0.00  0.00    +0.000 C 
ATOM      4  N   UNL     1       1.470   8.651  19.783  0.00  0.00    +0.000 N 
ATOM      5  C   UNL     1       2.137   7.818  18.886  0.00  0.00    +0.000 C 
ATOM      6  O   UNL     1       2.049   7.971  17.660  0.00  0.00    +0.000 OA
ATOM      7  C   UNL     1       1.135   8.260  21.149  0.00  0.00    +0.000 C 
ATOM      8  C   UNL     1       1.154   9.438  22.117  0.00  0.00    +0.000 C 
ENDROOT
BRANCH   1  14
ATOM      9  C   UNL     1      -2.455  15.455  24.814  0.00  0.00    +0.000 C 
ATOM     10  C   UNL     1      -2.109  14.226  24.036  0.00  0.00    +0.000 A 
ATOM     11  C   UNL     1      -3.072  13.304  23.654  0.00  0.00    +0.000 A 
ATOM     12  C   UNL     1      -2.675  12.150  22.969  0.00  0.00    +0.000 A 
ATOM     13  C   UNL     1      -1.332  11.940  22.684  0.00  0.00    +0.000 A 
ATOM     14  N   UNL     1      -0.952  10.786  21.957  0.00  0.00    +0.000 N 
ATOM     15  N   UNL     1      -0.434  12.870  23.072  0.00  0.00    +0.000 NA
ATOM     16  N   UNL     1      -0.813  14.007  23.760  0.00  0.00    +0.000 NA
ATOM     17  H   UNL     1      -1.309   9.956  22.420  0.00  0.00    +0.000 HD
ENDBRANCH   1  14
BRANCH   5  18
ATOM     18  C   UNL     1       3.033   6.718  19.432  0.00  0.00    +0.000 C 
BRANCH  18  19
ATOM     19  C   UNL     1       2.767   5.408  18.769  0.00  0.00    +0.000 A 
ATOM     20  C   UNL     1       3.415   4.895  17.661  0.00  0.00    +0.000 A 
ATOM     21  S   UNL     1       2.768   3.364  17.256  0.00  0.00    +0.000 S 
ATOM     22  C   UNL     1       1.685   3.481  18.583  0.00  0.00    +0.000 A 
ATOM     23  C   UNL     1       0.712   2.392  18.870  0.00  0.00    +0.000 C 
ATOM     24  N   UNL     1       1.782   4.583  19.294  0.00  0.00    +0.000 NA
ENDBRANCH  18  19
ENDBRANCH   5  18
TORSDOF 3
ENDMDL
MODEL 2
REMARK VINA RESULT:      -6.8      0.952      1.118
REMARK  Name = 
REMARK  5 active torsions:
REMARK  status: ('A' for Active; 'I' for Inactive)
REMARK    1  A    between atoms: C_1  and  C_2
REMARK    2  A    between atoms: N_6  and  C_7
REMARK    3  A    between atoms: C_11  and  C_13
REMARK    4  A    between atoms: C_13  and  C_14
REMARK    5  A    between atoms: C_17  and  C_18
REMARK                            x       y       z     vdW  Elec       q    Type
REMARK                         _______ _______ _______ _____ _____    ______ ____
ROOT
ATOM      1  C   UNL     1       0.457  10.718  21.668  0.00  0.00    +0.000 C 
ATOM      2  C   UNL     1       0.690  10.899  20.161  0.00  0.00    +0.000 C 
ATOM      3  C   UNL     1       0.637   9.617  19.345  0.00  0.00    +0.000 C 
ATOM      4  N   UNL     1       1.463   8.573  19.940  0.00  0.00    +0.000 N 
ATOM      5  C   UNL     1       2.138   7.704  19.084  0.00  0.00    +0.000 C 
ATOM      6  O   UNL     1       2.061   7.805  17.852  0.00  0.00    +0.000 OA
ATOM      7  C   UNL     1       1.116   8.240  21.318  0.00  0.00    +0.000 C 
ATOM      8  C   UNL     1       1.126   9.458  22.235  0.00  0.00    +0.000 C 
ENDROOT
BRANCH   1  14
ATOM      9  C   UNL     1      -2.478  15.503  24.799  0.00  0.00    +0.000 C 
ATOM     10  C   UNL     1      -2.133  14.263  24.036  0.00  0.00    +0.000 A 
ATOM     11  C   UNL     1      -3.098  13.345  23.652  0.00  0.00    +0.000 A 
ATOM     12  C   UNL     1      -2.703  12.182  22.981  0.00  0.00    +0.000 A 
ATOM     13  C   UNL     1      -1.358  11.960  22.712  0.00  0.00    +0.000 A 
ATOM     14  N   UNL     1      -0.979  10.796  22.001  0.00  0.00    +0.000 N 
ATOM     15  N   UNL     1      -0.458  12.887  23.102  0.00  0.00    +0.000 NA
ATOM     16  N   UNL     1      -0.835  14.032  23.775  0.00  0.00    +0.000 NA
ATOM     17  H   UNL     1      -1.348   9.973  22.467  0.00  0.00    +0.000 HD
ENDBRANCH   1  14
BRANCH   5  18
ATOM     18  C   UNL     1       3.029   6.629  19.685  0.00  0.00    +0.000 C 
BRANCH  18  19
ATOM     19  C   UNL     1       2.418   5.273  19.564  0.00  0.00    +0.000 A 
ATOM     20  C   UNL     1       1.429   4.736  20.368  0.00  0.00    +0.000 A 
ATOM     21  S   UNL     1       1.049   3.149  19.854  0.00  0.00    +0.000 S 
ATOM     22  C   UNL     1       2.209   3.288  18.596  0.00  0.00    +0.000 A 
ATOM     23  C   UNL     1       2.449   2.161  17.654  0.00  0.00    +0.000 C 
ATOM     24  N   UNL     1       2.851   4.435  18.546  0.00  0.00    +0.000 NA
ENDBRANCH  18  19
ENDBRANCH   5  18
TORSDOF 3
ENDMDL
MODEL 3
REMARK VINA RESULT:      -6.7      4.016      5.970
REMARK  Name = 
REMARK  5 active torsions:
REMARK  status: ('A' for Active; 'I' for Inactive)
REMARK    1  A    between atoms: C_1  and  C_2
REMARK    2  A    between atoms: N_6  and  C_7
REMARK    3  A    between atoms: C_11  and  C_13
REMARK    4  A    between atoms: C_13  and  C_14
REMARK    5  A    between atoms: C_17  and  C_18
REMARK                            x       y       z     vdW  Elec       q    Type
REMARK                         _______ _______ _______ _____ _____    ______ ____
ROOT
ATOM      1  C   UNL     1       2.522   7.369  18.138  0.00  0.00    +0.000 C 
ATOM      2  C   UNL     1       2.423   5.909  18.599  0.00  0.00    +0.000 C 
ATOM      3  C   UNL     1       3.686   5.349  19.235  0.00  0.00    +0.000 C 
ATOM      4  N   UNL     1       4.860   5.622  18.414  0.00  0.00    +0.000 N 
ATOM      5  C   UNL     1       5.864   4.656  18.365  0.00  0.00    +0.000 C 
ATOM      6  O   UNL     1       5.776   3.587  18.983  0.00  0.00    +0.000 OA
ATOM      7  C   UNL     1       5.088   7.037  18.137  0.00  0.00    +0.000 C 
ATOM      8  C   UNL     1       3.877   7.712  17.503  0.00  0.00    +0.000 C 
ENDROOT
BRANCH   1  14
ATOM      9  C   UNL     1      -2.315  11.602  18.058  0.00  0.00    +0.000 C 
ATOM     10  C   UNL     1      -1.154  10.730  18.419  0.00  0.00    +0.000 A 
ATOM     11  C   UNL     1      -0.558  10.782  19.669  0.00  0.00    +0.000 A 
ATOM     12  C   UNL     1       0.555   9.974  19.927  0.00  0.00    +0.000 A 
ATOM     13  C   UNL     1       1.049   9.138  18.935  0.00  0.00    +0.000 A 
ATOM     14  N   UNL     1       2.153   8.300  19.223  0.00  0.00    +0.000 N 
ATOM     15  N   UNL     1       0.430   9.119  17.735  0.00  0.00    +0.000 NA
ATOM     16  N   UNL     1      -0.662   9.921  17.466  0.00  0.00    +0.000 NA
ATOM     17  H   UNL     1       2.923   8.858  19.578  0.00  0.00    +0.000 HD
ENDBRANCH   1  14
BRANCH   5  18
ATOM     18  C   UNL     1       7.081   4.908  17.489  0.00  0.00    +0.000 C 
BRANCH  18  19
ATOM     19  C   UNL     1       6.793   4.638  16.050  0.00  0.00    +0.000 A 
ATOM     20  C   UNL     1       5.793   3.829  15.544  0.00  0.00    +0.000 A 
ATOM     21  S   UNL     1       5.851   3.820  13.834  0.00  0.00    +0.000 S 
ATOM     22  C   UNL     1       7.187   4.898  13.883  0.00  0.00    +0.000 A 
ATOM     23  C   UNL     1       7.832   5.367  12.627  0.00  0.00    +0.000 C 
ATOM     24  N   UNL     1       7.581   5.253  15.087  0.00  0.00    +0.000 NA
ENDBRANCH  18  19
ENDBRANCH   5  18
TORSDOF 3
ENDMDL
MODEL 4
REMARK VINA RESULT:      -6.7      0.898      1.492
REMARK  Name = 
REMARK  5 active torsions:
REMARK  status: ('A' for Active; 'I' for Inactive)
REMARK    1  A    between atoms: C_1  and  C_2
REMARK    2  A    between atoms: N_6  and  C_7
REMARK    3  A    between atoms: C_11  and  C_13
REMARK    4  A    between atoms: C_13  and  C_14
REMARK    5  A    between atoms: C_17  and  C_18
REMARK                            x       y       z     vdW  Elec       q    Type
REMARK                         _______ _______ _______ _____ _____    ______ ____
ROOT
ATOM      1  C   UNL     1       0.436  10.668  21.788  0.00  0.00    +0.000 C 
ATOM      2  C   UNL     1       0.712  10.943  20.303  0.00  0.00    +0.000 C 
ATOM      3  C   UNL     1       0.650   9.720  19.401  0.00  0.00    +0.000 C 
ATOM      4  N   UNL     1       1.436   8.619  19.945  0.00  0.00    +0.000 N 
ATOM      5  C   UNL     1       2.113   7.792  19.049  0.00  0.00    +0.000 C 
ATOM      6  O   UNL     1       2.070   7.977  17.826  0.00  0.00    +0.000 OA
ATOM      7  C   UNL     1       1.046   8.203  21.288  0.00  0.00    +0.000 C 
ATOM      8  C   UNL     1       1.060   9.357  22.286  0.00  0.00    +0.000 C 
ENDROOT
BRANCH   1  14
ATOM      9  C   UNL     1      -2.535  15.523  24.773  0.00  0.00    +0.000 C 
ATOM     10  C   UNL     1      -2.182  14.268  24.040  0.00  0.00    +0.000 A 
ATOM     11  C   UNL     1      -3.144  13.348  23.653  0.00  0.00    +0.000 A 
ATOM     12  C   UNL     1      -2.742  12.171  23.011  0.00  0.00    +0.000 A 
ATOM     13  C   UNL     1      -1.394  11.938  22.774  0.00  0.00    +0.000 A 
ATOM     14  N   UNL     1      -1.006  10.760  22.091  0.00  0.00    +0.000 N 
ATOM     15  N   UNL     1      -0.496  12.867  23.164  0.00  0.00    +0.000 NA
ATOM     16  N   UNL     1      -0.880  14.026  23.809  0.00  0.00    +0.000 NA
ATOM     17  H   UNL     1      -1.388   9.947  22.565  0.00  0.00    +0.000 HD
ENDBRANCH   1  14
BRANCH   5  18
ATOM     18  C   UNL     1       2.963   6.657  19.598  0.00  0.00    +0.000 C 
BRANCH  18  19
ATOM     19  C   UNL     1       3.071   5.529  18.628  0.00  0.00    +0.000 A 
ATOM     20  C   UNL     1       2.145   4.523  18.421  0.00  0.00    +0.000 A 
ATOM     21  S   UNL     1       2.703   3.447  17.213  0.00  0.00    +0.000 S 
ATOM     22  C   UNL     1       4.125   4.394  17.040  0.00  0.00    +0.000 A 
ATOM     23  C   UNL     1       5.181   4.009  16.065  0.00  0.00    +0.000 C 
ATOM     24  N   UNL     1       4.200   5.448  17.823  0.00  0.00    +0.000 NA
ENDBRANCH  18  19
ENDBRANCH   5  18
TORSDOF 3
ENDMDL
MODEL 5
REMARK VINA RESULT:      -6.7      4.097      8.921
REMARK  Name = 
REMARK  5 active torsions:
REMARK  status: ('A' for Active; 'I' for Inactive)
REMARK    1  A    between atoms: C_1  and  C_2
REMARK    2  A    between atoms: N_6  and  C_7
REMARK    3  A    between atoms: C_11  and  C_13
REMARK    4  A    between atoms: C_13  and  C_14
REMARK    5  A    between atoms: C_17  and  C_18
REMARK                            x       y       z     vdW  Elec       q    Type
REMARK                         _______ _______ _______ _____ _____    ______ ____
ROOT
ATOM      1  C   UNL     1       2.337   8.015  18.990  0.00  0.00    +0.000 C 
ATOM      2  C   UNL     1       1.895   8.473  20.387  0.00  0.00    +0.000 C 
ATOM      3  C   UNL     1       0.454   8.954  20.479  0.00  0.00    +0.000 C 
ATOM      4  N   UNL     1       0.147   9.916  19.427  0.00  0.00    +0.000 N 
ATOM      5  C   UNL     1      -0.717  10.967  19.731  0.00  0.00    +0.000 C 
ATOM      6  O   UNL     1      -1.210  11.104  20.859  0.00  0.00    +0.000 OA
ATOM      7  C   UNL     1       0.367   9.420  18.072  0.00  0.00    +0.000 C 
ATOM      8  C   UNL     1       1.784   8.897  17.862  0.00  0.00    +0.000 C 
ENDROOT
BRANCH   1  14
ATOM      9  C   UNL     1       5.924   3.854  15.654  0.00  0.00    +0.000 C 
ATOM     10  C   UNL     1       4.896   4.525  16.508  0.00  0.00    +0.000 A 
ATOM     11  C   UNL     1       3.839   3.827  17.071  0.00  0.00    +0.000 A 
ATOM     12  C   UNL     1       2.885   4.524  17.821  0.00  0.00    +0.000 A 
ATOM     13  C   UNL     1       3.004   5.897  17.989  0.00  0.00    +0.000 A 
ATOM     14  N   UNL     1       2.051   6.582  18.782  0.00  0.00    +0.000 N 
ATOM     15  N   UNL     1       4.054   6.531  17.426  0.00  0.00    +0.000 NA
ATOM     16  N   UNL     1       4.995   5.855  16.674  0.00  0.00    +0.000 NA
ATOM     17  H   UNL     1       1.115   6.386  18.438  0.00  0.00    +0.000 HD
ENDBRANCH   1  14
BRANCH   5  18
ATOM     18  C   UNL     1      -1.024  11.997  18.657  0.00  0.00    +0.000 C 
BRANCH  18  19
ATOM     19  C   UNL     1      -2.274  11.664  17.913  0.00  0.00    +0.000 A 
ATOM     20  C   UNL     1      -3.571  11.796  18.371  0.00  0.00    +0.000 A 
ATOM     21  S   UNL     1      -4.677  11.284  17.170  0.00  0.00    +0.000 S 
ATOM     22  C   UNL     1      -3.361  10.934  16.123  0.00  0.00    +0.000 A 
ATOM     23  C   UNL     1      -3.600  10.387  14.760  0.00  0.00    +0.000 C 
ATOM     24  N   UNL     1      -2.167  11.175  16.618  0.00  0.00    +0.000 NA
ENDBRANCH  18  19
ENDBRANCH   5  18
TORSDOF 3
ENDMDL
MODEL 6
REMARK VINA RESULT:      -6.6      4.107      9.723
REMARK  Name = 
REMARK  5 active torsions:
REMARK  status: ('A' for Active; 'I' for Inactive)
REMARK    1  A    between atoms: C_1  and  C_2
REMARK    2  A    between atoms: N_6  and  C_7
REMARK    3  A    between atoms: C_11  and  C_13
REMARK    4  A    between atoms: C_13  and  C_14
REMARK    5  A    between atoms: C_17  and  C_18
REMARK                            x       y       z     vdW  Elec       q    Type
REMARK                         _______ _______ _______ _____ _____    ______ ____
ROOT
ATOM      1  C   UNL     1       4.504   6.001  18.204  0.00  0.00    +0.000 C 
ATOM      2  C   UNL     1       3.782   5.638  19.509  0.00  0.00    +0.000 C 
ATOM      3  C   UNL     1       2.366   6.181  19.632  0.00  0.00    +0.000 C 
ATOM      4  N   UNL     1       2.314   7.603  19.313  0.00  0.00    +0.000 N 
ATOM      5  C   UNL     1       1.428   8.404  20.032  0.00  0.00    +0.000 C 
ATOM      6  O   UNL     1       0.707   7.943  20.927  0.00  0.00    +0.000 OA
ATOM      7  C   UNL     1       2.809   7.943  17.983  0.00  0.00    +0.000 C 
ATOM      8  C   UNL     1       4.227   7.437  17.739  0.00  0.00    +0.000 C 
ENDROOT
BRANCH   1  14
ATOM      9  C   UNL     1       8.061   4.956  12.954  0.00  0.00    +0.000 C 
ATOM     10  C   UNL     1       7.049   4.912  14.053  0.00  0.00    +0.000 A 
ATOM     11  C   UNL     1       6.024   3.979  14.071  0.00  0.00    +0.000 A 
ATOM     12  C   UNL     1       5.081   4.022  15.104  0.00  0.00    +0.000 A 
ATOM     13  C   UNL     1       5.179   4.994  16.092  0.00  0.00    +0.000 A 
ATOM     14  N   UNL     1       4.239   5.002  17.150  0.00  0.00    +0.000 N 
ATOM     15  N   UNL     1       6.199   5.877  16.033  0.00  0.00    +0.000 NA
ATOM     16  N   UNL     1       7.128   5.851  15.012  0.00  0.00    +0.000 NA
ATOM     17  H   UNL     1       3.297   5.030  16.772  0.00  0.00    +0.000 HD
ENDBRANCH   1  14
BRANCH   5  18
ATOM     18  C   UNL     1       1.381   9.894  19.737  0.00  0.00    +0.000 C 
BRANCH  18  19
ATOM     19  C   UNL     1       0.047  10.312  19.213  0.00  0.00    +0.000 A 
ATOM     20  C   UNL     1      -0.835  11.195  19.806  0.00  0.00    +0.000 A 
ATOM     21  S   UNL     1      -2.240  11.362  18.842  0.00  0.00    +0.000 S 
ATOM     22  C   UNL     1      -1.576  10.263  17.702  0.00  0.00    +0.000 A 
ATOM     23  C   UNL     1      -2.332   9.891  16.476  0.00  0.00    +0.000 C 
ATOM     24  N   UNL     1      -0.386   9.790  18.002  0.00  0.00    +0.000 NA
ENDBRANCH  18  19
ENDBRANCH   5  18
TORSDOF 3
ENDMDL
MODEL 7
REMARK VINA RESULT:      -6.5      3.534      4.241
REMARK  Name = 
REMARK  5 active torsions:
REMARK  status: ('A' for Active; 'I' for Inactive)
REMARK    1  A    between atoms: C_1  and  C_2
REMARK    2  A    between atoms: N_6  and  C_7
REMARK    3  A    between atoms: C_11  and  C_13
REMARK    4  A    between atoms: C_13  and  C_14
REMARK    5  A    between atoms: C_17  and  C_18
REMARK                            x       y       z     vdW  Elec       q    Type
REMARK                         _______ _______ _______ _____ _____    ______ ____
ROOT
ATOM      1  C   UNL     1       1.112   9.927  18.720  0.00  0.00    +0.000 C 
ATOM      2  C   UNL     1       0.793   9.264  20.068  0.00  0.00    +0.000 C 
ATOM      3  C   UNL     1       1.760   8.169  20.490  0.00  0.00    +0.000 C 
ATOM      4  N   UNL     1       1.984   7.214  19.411  0.00  0.00    +0.000 N 
ATOM      5  C   UNL     1       2.154   5.872  19.748  0.00  0.00    +0.000 C 
ATOM      6  O   UNL     1       2.108   5.480  20.922  0.00  0.00    +0.000 OA
ATOM      7  C   UNL     1       2.490   7.805  18.176  0.00  0.00    +0.000 C 
ATOM      8  C   UNL     1       1.602   8.932  17.659  0.00  0.00    +0.000 C 
ENDROOT
BRANCH   1  14
ATOM      9  C   UNL     1      -0.518  16.143  18.806  0.00  0.00    +0.000 C 
ATOM     10  C   UNL     1       0.190  14.827  18.865  0.00  0.00    +0.000 A 
ATOM     11  C   UNL     1       1.550  14.736  19.114  0.00  0.00    +0.000 A 
ATOM     12  C   UNL     1       2.161  13.477  19.110  0.00  0.00    +0.000 A 
ATOM     13  C   UNL     1       1.404  12.341  18.855  0.00  0.00    +0.000 A 
ATOM     14  N   UNL     1       2.029  11.071  18.890  0.00  0.00    +0.000 N 
ATOM     15  N   UNL     1       0.082  12.481  18.623  0.00  0.00    +0.000 NA
ATOM     16  N   UNL     1      -0.529  13.720  18.613  0.00  0.00    +0.000 NA
ATOM     17  H   UNL     1       2.829  11.065  18.264  0.00  0.00    +0.000 HD
ENDBRANCH   1  14
BRANCH   5  18
ATOM     18  C   UNL     1       2.358   4.856  18.635  0.00  0.00    +0.000 C 
BRANCH  18  19
ATOM     19  C   UNL     1       3.792   4.753  18.236  0.00  0.00    +0.000 A 
ATOM     20  C   UNL     1       4.893   5.029  19.025  0.00  0.00    +0.000 A 
ATOM     21  S   UNL     1       6.333   4.774  18.137  0.00  0.00    +0.000 S 
ATOM     22  C   UNL     1       5.399   4.305  16.775  0.00  0.00    +0.000 A 
ATOM     23  C   UNL     1       6.058   3.912  15.500  0.00  0.00    +0.000 C 
ATOM     24  N   UNL     1       4.096   4.331  16.949  0.00  0.00    +0.000 NA
ENDBRANCH  18  19
ENDBRANCH   5  18
TORSDOF 3
ENDMDL
MODEL 8
REMARK VINA RESULT:      -6.4      2.698      3.700
REMARK  Name = 
REMARK  5 active torsions:
REMARK  status: ('A' for Active; 'I' for Inactive)
REMARK    1  A    between atoms: C_1  and  C_2
REMARK    2  A    between atoms: N_6  and  C_7
REMARK    3  A    between atoms: C_11  and  C_13
REMARK    4  A    between atoms: C_13  and  C_14
REMARK    5  A    between atoms: C_17  and  C_18
REMARK                            x       y       z     vdW  Elec       q    Type
REMARK                         _______ _______ _______ _____ _____    ______ ____
ROOT
ATOM      1  C   UNL     1       0.411   9.987  19.490  0.00  0.00    +0.000 C 
ATOM      2  C   UNL     1       0.436   8.896  20.571  0.00  0.00    +0.000 C 
ATOM      3  C   UNL     1       1.708   8.065  20.614  0.00  0.00    +0.000 C 
ATOM      4  N   UNL     1       2.070   7.578  19.288  0.00  0.00    +0.000 N 
ATOM      5  C   UNL     1       2.641   6.310  19.188  0.00  0.00    +0.000 C 
ATOM      6  O   UNL     1       2.833   5.598  20.182  0.00  0.00    +0.000 OA
ATOM      7  C   UNL     1       2.255   8.626  18.289  0.00  0.00    +0.000 C 
ATOM      8  C   UNL     1       1.039   9.538  18.164  0.00  0.00    +0.000 C 
ENDROOT
BRANCH   1  14
ATOM      9  C   UNL     1      -2.832  15.330  20.991  0.00  0.00    +0.000 C 
ATOM     10  C   UNL     1      -1.795  14.274  20.771  0.00  0.00    +0.000 A 
ATOM     11  C   UNL     1      -0.459  14.483  21.075  0.00  0.00    +0.000 A 
ATOM     12  C   UNL     1       0.468  13.471  20.801  0.00  0.00    +0.000 A 
ATOM     13  C   UNL     1       0.043  12.278  20.228  0.00  0.00    +0.000 A 
ATOM     14  N   UNL     1       0.987  11.250  19.991  0.00  0.00    +0.000 N 
ATOM     15  N   UNL     1      -1.270  12.122  19.956  0.00  0.00    +0.000 NA
ATOM     16  N   UNL     1      -2.191  13.118  20.211  0.00  0.00    +0.000 NA
ATOM     17  H   UNL     1       1.755  11.612  19.434  0.00  0.00    +0.000 HD
ENDBRANCH   1  14
BRANCH   5  18
ATOM     18  C   UNL     1       2.997   5.773  17.811  0.00  0.00    +0.000 C 
BRANCH  18  19
ATOM     19  C   UNL     1       4.472   5.630  17.637  0.00  0.00    +0.000 A 
ATOM     20  C   UNL     1       5.175   4.453  17.463  0.00  0.00    +0.000 A 
ATOM     21  S   UNL     1       6.848   4.783  17.311  0.00  0.00    +0.000 S 
ATOM     22  C   UNL     1       6.522   6.461  17.475  0.00  0.00    +0.000 A 
ATOM     23  C   UNL     1       7.627   7.456  17.442  0.00  0.00    +0.000 C 
ATOM     24  N   UNL     1       5.255   6.776  17.634  0.00  0.00    +0.000 NA
ENDBRANCH  18  19
ENDBRANCH   5  18
TORSDOF 3
ENDMDL
MODEL 9
REMARK VINA RESULT:      -6.4      3.537      4.238
REMARK  Name = 
REMARK  5 active torsions:
REMARK  status: ('A' for Active; 'I' for Inactive)
REMARK    1  A    between atoms: C_1  and  C_2
REMARK    2  A    between atoms: N_6  and  C_7
REMARK    3  A    between atoms: C_11  and  C_13
REMARK    4  A    between atoms: C_13  and  C_14
REMARK    5  A    between atoms: C_17  and  C_18
REMARK                            x       y       z     vdW  Elec       q    Type
REMARK                         _______ _______ _______ _____ _____    ______ ____
ROOT
ATOM      1  C   UNL     1       1.073  10.111  18.927  0.00  0.00    +0.000 C 
ATOM      2  C   UNL     1       0.706   9.313  20.186  0.00  0.00    +0.000 C 
ATOM      3  C   UNL     1       1.685   8.208  20.554  0.00  0.00    +0.000 C 
ATOM      4  N   UNL     1       1.996   7.369  19.402  0.00  0.00    +0.000 N 
ATOM      5  C   UNL     1       2.192   6.006  19.619  0.00  0.00    +0.000 C 
ATOM      6  O   UNL     1       2.098   5.501  20.746  0.00  0.00    +0.000 OA
ATOM      7  C   UNL     1       2.545   8.091  18.259  0.00  0.00    +0.000 C 
ATOM      8  C   UNL     1       1.648   9.237  17.804  0.00  0.00    +0.000 C 
ENDROOT
BRANCH   1  14
ATOM      9  C   UNL     1      -0.544  16.325  18.647  0.00  0.00    +0.000 C 
ATOM     10  C   UNL     1       0.140  15.011  18.850  0.00  0.00    +0.000 A 
ATOM     11  C   UNL     1       1.429  14.925  19.351  0.00  0.00    +0.000 A 
ATOM     12  C   UNL     1       2.030  13.666  19.473  0.00  0.00    +0.000 A 
ATOM     13  C   UNL     1       1.334  12.527  19.090  0.00  0.00    +0.000 A 
ATOM     14  N   UNL     1       1.942  11.258  19.254  0.00  0.00    +0.000 N 
ATOM     15  N   UNL     1       0.079  12.663  18.614  0.00  0.00    +0.000 NA
ATOM     16  N   UNL     1      -0.519  13.901  18.478  0.00  0.00    +0.000 NA
ATOM     17  H   UNL     1       2.844  11.248  18.789  0.00  0.00    +0.000 HD
ENDBRANCH   1  14
BRANCH   5  18
ATOM     18  C   UNL     1       2.485   5.109  18.428  0.00  0.00    +0.000 C 
BRANCH  18  19
ATOM     19  C   UNL     1       3.939   5.098  18.089  0.00  0.00    +0.000 A 
ATOM     20  C   UNL     1       4.500   4.806  16.859  0.00  0.00    +0.000 A 
ATOM     21  S   UNL     1       6.205   4.914  16.949  0.00  0.00    +0.000 S 
ATOM     22  C   UNL     1       6.081   5.353  18.605  0.00  0.00    +0.000 A 
ATOM     23  C   UNL     1       7.300   5.622  19.414  0.00  0.00    +0.000 C 
ATOM     24  N   UNL     1       4.856   5.418  19.080  0.00  0.00    +0.000 NA
ENDBRANCH  18  19
ENDBRANCH   5  18
TORSDOF 3
ENDMDL
