MODEL 1
REMARK VINA RESULT:      -7.5      0.000      0.000
REMARK  Name = 
REMARK  11 active torsions:
REMARK  status: ('A' for Active; 'I' for Inactive)
REMARK    1  A    between atoms: C_2  and  C_3
REMARK    2  A    between atoms: C_3  and  C_4
REMARK    3  A    between atoms: C_7  and  N_8
REMARK    4  A    between atoms: C_9  and  C_11
REMARK    5  A    between atoms: C_11  and  C_12
REMARK    6  A    between atoms: C_12  and  C_13
REMARK    7  A    between atoms: C_13  and  C_14
REMARK    8  A    between atoms: C_14  and  C_15
REMARK    9  A    between atoms: C_15  and  C_16
REMARK   10  A    between atoms: C_16  and  C_17
REMARK   11  A    between atoms: N_25  and  O_26
REMARK                            x       y       z     vdW  Elec       q    Type
REMARK                         _______ _______ _______ _____ _____    ______ ____
ROOT
ATOM      1  N   UNL     1       2.558   6.264  20.382  0.00  0.00    +0.000 N 
ATOM      2  C   UNL     1       1.841   5.110  20.639  0.00  0.00    +0.000 C 
ATOM      3  O   UNL     1       0.630   4.960  20.496  0.00  0.00    +0.000 OA
ATOM      4  H   UNL     1       3.570   6.211  20.428  0.00  0.00    +0.000 HD
ENDROOT
BRANCH   1   8
ATOM      5  C   UNL     1       0.935   9.977  19.151  0.00  0.00    +0.000 A 
ATOM      6  C   UNL     1       1.601   9.166  18.229  0.00  0.00    +0.000 A 
ATOM      7  C   UNL     1       2.133   7.937  18.620  0.00  0.00    +0.000 A 
ATOM      8  C   UNL     1       2.017   7.491  19.937  0.00  0.00    +0.000 A 
ATOM      9  C   UNL     1       1.333   8.292  20.856  0.00  0.00    +0.000 A 
ATOM     10  C   UNL     1       0.801   9.528  20.470  0.00  0.00    +0.000 A 
BRANCH   5  11
ATOM     11  C   UNL     1       0.323  11.281  18.705  0.00  0.00    +0.000 C 
BRANCH  11  13
ATOM     12  O   UNL     1      -1.757  10.075  18.411  0.00  0.00    +0.000 OA
ATOM     13  C   UNL     1      -1.095  11.093  18.208  0.00  0.00    +0.000 C 
ATOM     14  N   UNL     1      -1.593  12.155  17.486  0.00  0.00    +0.000 N 
ATOM     15  H   UNL     1      -0.984  12.812  17.008  0.00  0.00    +0.000 HD
BRANCH  14  16
ATOM     16  O   UNL     1      -2.857  11.937  16.885  0.00  0.00    +0.000 OA
ATOM     17  H   UNL     1      -3.478  12.251  17.578  0.00  0.00    +0.000 HD
ENDBRANCH  14  16
ENDBRANCH  11  13
ENDBRANCH   5  11
ENDBRANCH   1   8
BRANCH   2  18
ATOM     18  C   UNL     1       2.692   3.936  21.081  0.00  0.00    +0.000 C 
BRANCH  18  19
ATOM     19  C   UNL     1       1.837   2.672  21.048  0.00  0.00    +0.000 C 
BRANCH  19  20
ATOM     20  C   UNL     1       1.659   2.128  19.634  0.00  0.00    +0.000 C 
BRANCH  20  21
ATOM     21  C   UNL     1       3.010   2.048  18.918  0.00  0.00    +0.000 C 
BRANCH  21  22
ATOM     22  C   UNL     1       2.885   2.468  17.455  0.00  0.00    +0.000 C 
BRANCH  22  23
ATOM     23  C   UNL     1       2.980   3.986  17.298  0.00  0.00    +0.000 C 
BRANCH  23  24
ATOM     24  C   UNL     1       4.418   4.429  17.201  0.00  0.00    +0.000 A 
ATOM     25  C   UNL     1       4.929   5.387  18.086  0.00  0.00    +0.000 A 
ATOM     26  C   UNL     1       6.248   5.827  17.965  0.00  0.00    +0.000 A 
ATOM     27  C   UNL     1       7.065   5.318  16.957  0.00  0.00    +0.000 A 
ATOM     28  C   UNL     1       6.564   4.367  16.070  0.00  0.00    +0.000 A 
ATOM     29  C   UNL     1       5.248   3.925  16.190  0.00  0.00    +0.000 A 
ENDBRANCH  23  24
ENDBRANCH  22  23
ENDBRANCH  21  22
ENDBRANCH  20  21
ENDBRANCH  19  20
ENDBRANCH  18  19
ENDBRANCH   2  18
TORSDOF 11
ENDMDL
MODEL 2
REMARK VINA RESULT:      -7.4      5.500      8.918
REMARK  Name = 
REMARK  11 active torsions:
REMARK  status: ('A' for Active; 'I' for Inactive)
REMARK    1  A    between atoms: C_2  and  C_3
REMARK    2  A    between atoms: C_3  and  C_4
REMARK    3  A    between atoms: C_7  and  N_8
REMARK    4  A    between atoms: C_9  and  C_11
REMARK    5  A    between atoms: C_11  and  C_12
REMARK    6  A    between atoms: C_12  and  C_13
REMARK    7  A    between atoms: C_13  and  C_14
REMARK    8  A    between atoms: C_14  and  C_15
REMARK    9  A    between atoms: C_15  and  C_16
REMARK   10  A    between atoms: C_16  and  C_17
REMARK   11  A    between atoms: N_25  and  O_26
REMARK                            x       y       z     vdW  Elec       q    Type
REMARK                         _______ _______ _______ _____ _____    ______ ____
ROOT
ATOM      1  N   UNL     1       6.882   5.808  15.986  0.00  0.00    +0.000 N 
ATOM      2  C   UNL     1       7.585   5.350  17.085  0.00  0.00    +0.000 C 
ATOM      3  O   UNL     1       8.058   4.225  17.227  0.00  0.00    +0.000 OA
ATOM      4  H   UNL     1       6.654   6.796  15.950  0.00  0.00    +0.000 HD
ENDROOT
BRANCH   1   8
ATOM      5  C   UNL     1       6.010   3.535  12.519  0.00  0.00    +0.000 A 
ATOM      6  C   UNL     1       5.117   3.543  13.593  0.00  0.00    +0.000 A 
ATOM      7  C   UNL     1       5.388   4.294  14.736  0.00  0.00    +0.000 A 
ATOM      8  C   UNL     1       6.557   5.050  14.839  0.00  0.00    +0.000 A 
ATOM      9  C   UNL     1       7.443   5.060  13.758  0.00  0.00    +0.000 A 
ATOM     10  C   UNL     1       7.178   4.304  12.609  0.00  0.00    +0.000 A 
BRANCH   5  11
ATOM     11  C   UNL     1       5.683   2.757  11.271  0.00  0.00    +0.000 C 
BRANCH  11  13
ATOM     12  O   UNL     1       7.682   1.454  10.861  0.00  0.00    +0.000 OA
ATOM     13  C   UNL     1       6.493   1.481  11.176  0.00  0.00    +0.000 C 
ATOM     14  N   UNL     1       5.786   0.334  11.459  0.00  0.00    +0.000 N 
ATOM     15  H   UNL     1       4.777   0.287  11.362  0.00  0.00    +0.000 HD
BRANCH  14  16
ATOM     16  O   UNL     1       6.484  -0.877  11.228  0.00  0.00    +0.000 OA
ATOM     17  H   UNL     1       5.959  -1.289  10.507  0.00  0.00    +0.000 HD
ENDBRANCH  14  16
ENDBRANCH  11  13
ENDBRANCH   5  11
ENDBRANCH   1   8
BRANCH   2  18
ATOM     18  C   UNL     1       7.809   6.396  18.158  0.00  0.00    +0.000 C 
BRANCH  18  19
ATOM     19  C   UNL     1       7.296   5.850  19.488  0.00  0.00    +0.000 C 
BRANCH  19  20
ATOM     20  C   UNL     1       6.039   5.001  19.323  0.00  0.00    +0.000 C 
BRANCH  20  21
ATOM     21  C   UNL     1       4.816   5.896  19.113  0.00  0.00    +0.000 C 
BRANCH  21  22
ATOM     22  C   UNL     1       3.952   5.389  17.960  0.00  0.00    +0.000 C 
BRANCH  22  23
ATOM     23  C   UNL     1       3.757   3.874  18.031  0.00  0.00    +0.000 C 
BRANCH  23  24
ATOM     24  C   UNL     1       2.880   3.497  19.199  0.00  0.00    +0.000 A 
ATOM     25  C   UNL     1       1.557   3.952  19.272  0.00  0.00    +0.000 A 
ATOM     26  C   UNL     1       0.763   3.639  20.375  0.00  0.00    +0.000 A 
ATOM     27  C   UNL     1       1.284   2.874  21.417  0.00  0.00    +0.000 A 
ATOM     28  C   UNL     1       2.600   2.420  21.355  0.00  0.00    +0.000 A 
ATOM     29  C   UNL     1       3.395   2.730  20.253  0.00  0.00    +0.000 A 
ENDBRANCH  23  24
ENDBRANCH  22  23
ENDBRANCH  21  22
ENDBRANCH  20  21
ENDBRANCH  19  20
ENDBRANCH  18  19
ENDBRANCH   2  18
TORSDOF 11
ENDMDL
MODEL 3
REMARK VINA RESULT:      -7.3      0.891      1.346
REMARK  Name = 
REMARK  11 active torsions:
REMARK  status: ('A' for Active; 'I' for Inactive)
REMARK    1  A    between atoms: C_2  and  C_3
REMARK    2  A    between atoms: C_3  and  C_4
REMARK    3  A    between atoms: C_7  and  N_8
REMARK    4  A    between atoms: C_9  and  C_11
REMARK    5  A    between atoms: C_11  and  C_12
REMARK    6  A    between atoms: C_12  and  C_13
REMARK    7  A    between atoms: C_13  and  C_14
REMARK    8  A    between atoms: C_14  and  C_15
REMARK    9  A    between atoms: C_15  and  C_16
REMARK   10  A    between atoms: C_16  and  C_17
REMARK   11  A    between atoms: N_25  and  O_26
REMARK                            x       y       z     vdW  Elec       q    Type
REMARK                         _______ _______ _______ _____ _____    ______ ____
ROOT
ATOM      1  N   UNL     1       2.582   6.217  20.318  0.00  0.00    +0.000 N 
ATOM      2  C   UNL     1       1.814   5.089  20.539  0.00  0.00    +0.000 C 
ATOM      3  O   UNL     1       0.596   5.002  20.405  0.00  0.00    +0.000 OA
ATOM      4  H   UNL     1       3.591   6.115  20.350  0.00  0.00    +0.000 HD
ENDROOT
BRANCH   1   8
ATOM      5  C   UNL     1       1.128  10.049  19.245  0.00  0.00    +0.000 A 
ATOM      6  C   UNL     1       1.696   9.220  18.275  0.00  0.00    +0.000 A 
ATOM      7  C   UNL     1       2.171   7.953  18.613  0.00  0.00    +0.000 A 
ATOM      8  C   UNL     1       2.095   7.485  19.926  0.00  0.00    +0.000 A 
ATOM      9  C   UNL     1       1.508   8.304  20.895  0.00  0.00    +0.000 A 
ATOM     10  C   UNL     1       1.034   9.579  20.561  0.00  0.00    +0.000 A 
BRANCH   5  11
ATOM     11  C   UNL     1       0.575  11.396  18.857  0.00  0.00    +0.000 C 
BRANCH  11  13
ATOM     12  O   UNL     1      -1.697  10.593  19.101  0.00  0.00    +0.000 OA
ATOM     13  C   UNL     1      -0.897  11.319  18.510  0.00  0.00    +0.000 C 
ATOM     14  N   UNL     1      -1.279  12.121  17.458  0.00  0.00    +0.000 N 
ATOM     15  H   UNL     1      -0.619  12.428  16.750  0.00  0.00    +0.000 HD
BRANCH  14  16
ATOM     16  O   UNL     1      -2.615  11.948  17.022  0.00  0.00    +0.000 OA
ATOM     17  H   UNL     1      -2.940  11.235  17.614  0.00  0.00    +0.000 HD
ENDBRANCH  14  16
ENDBRANCH  11  13
ENDBRANCH   5  11
ENDBRANCH   1   8
BRANCH   2  18
ATOM     18  C   UNL     1       2.613   3.861  20.927  0.00  0.00    +0.000 C 
BRANCH  18  19
ATOM     19  C   UNL     1       2.068   2.660  20.159  0.00  0.00    +0.000 C 
BRANCH  19  20
ATOM     20  C   UNL     1       2.408   2.718  18.673  0.00  0.00    +0.000 C 
BRANCH  20  21
ATOM     21  C   UNL     1       3.911   2.929  18.477  0.00  0.00    +0.000 C 
BRANCH  21  22
ATOM     22  C   UNL     1       4.198   3.684  17.180  0.00  0.00    +0.000 C 
BRANCH  22  23
ATOM     23  C   UNL     1       4.124   5.198  17.386  0.00  0.00    +0.000 C 
BRANCH  23  24
ATOM     24  C   UNL     1       5.480   5.763  17.725  0.00  0.00    +0.000 A 
ATOM     25  C   UNL     1       6.244   5.206  18.760  0.00  0.00    +0.000 A 
ATOM     26  C   UNL     1       7.479   5.759  19.100  0.00  0.00    +0.000 A 
ATOM     27  C   UNL     1       7.958   6.874  18.415  0.00  0.00    +0.000 A 
ATOM     28  C   UNL     1       7.204   7.436  17.387  0.00  0.00    +0.000 A 
ATOM     29  C   UNL     1       5.971   6.885  17.043  0.00  0.00    +0.000 A 
ENDBRANCH  23  24
ENDBRANCH  22  23
ENDBRANCH  21  22
ENDBRANCH  20  21
ENDBRANCH  19  20
ENDBRANCH  18  19
ENDBRANCH   2  18
TORSDOF 11
ENDMDL
MODEL 4
REMARK VINA RESULT:      -7.3      1.245      2.067
REMARK  Name = 
REMARK  11 active torsions:
REMARK  status: ('A' for Active; 'I' for Inactive)
REMARK    1  A    between atoms: C_2  and  C_3
REMARK    2  A    between atoms: C_3  and  C_4
REMARK    3  A    between atoms: C_7  and  N_8
REMARK    4  A    between atoms: C_9  and  C_11
REMARK    5  A    between atoms: C_11  and  C_12
REMARK    6  A    between atoms: C_12  and  C_13
REMARK    7  A    between atoms: C_13  and  C_14
REMARK    8  A    between atoms: C_14  and  C_15
REMARK    9  A    between atoms: C_15  and  C_16
REMARK   10  A    between atoms: C_16  and  C_17
REMARK   11  A    between atoms: N_25  and  O_26
REMARK                            x       y       z     vdW  Elec       q    Type
REMARK                         _______ _______ _______ _____ _____    ______ ____
ROOT
ATOM      1  N   UNL     1       2.781   5.475  19.941  0.00  0.00    +0.000 N 
ATOM      2  C   UNL     1       1.975   4.426  20.342  0.00  0.00    +0.000 C 
ATOM      3  O   UNL     1       0.753   4.456  20.471  0.00  0.00    +0.000 OA
ATOM      4  H   UNL     1       3.759   5.276  19.761  0.00  0.00    +0.000 HD
ENDROOT
BRANCH   1   8
ATOM      5  C   UNL     1       1.471   9.373  18.923  0.00  0.00    +0.000 A 
ATOM      6  C   UNL     1       1.244   8.872  20.207  0.00  0.00    +0.000 A 
ATOM      7  C   UNL     1       1.677   7.593  20.558  0.00  0.00    +0.000 A 
ATOM      8  C   UNL     1       2.343   6.784  19.637  0.00  0.00    +0.000 A 
ATOM      9  C   UNL     1       2.591   7.290  18.358  0.00  0.00    +0.000 A 
ATOM     10  C   UNL     1       2.153   8.571  17.999  0.00  0.00    +0.000 A 
BRANCH   5  11
ATOM     11  C   UNL     1       1.040  10.773  18.572  0.00  0.00    +0.000 C 
BRANCH  11  13
ATOM     12  O   UNL     1      -1.136  11.452  19.391  0.00  0.00    +0.000 OA
ATOM     13  C   UNL     1      -0.468  10.898  18.518  0.00  0.00    +0.000 C 
ATOM     14  N   UNL     1      -1.049  10.322  17.410  0.00  0.00    +0.000 N 
ATOM     15  H   UNL     1      -0.596   9.576  16.892  0.00  0.00    +0.000 HD
BRANCH  14  16
ATOM     16  O   UNL     1      -2.466  10.294  17.418  0.00  0.00    +0.000 OA
ATOM     17  H   UNL     1      -2.692  10.843  16.635  0.00  0.00    +0.000 HD
ENDBRANCH  14  16
ENDBRANCH  11  13
ENDBRANCH   5  11
ENDBRANCH   1   8
BRANCH   2  18
ATOM     18  C   UNL     1       2.718   3.126  20.576  0.00  0.00    +0.000 C 
BRANCH  18  19
ATOM     19  C   UNL     1       3.947   3.095  19.670  0.00  0.00    +0.000 C 
BRANCH  19  20
ATOM     20  C   UNL     1       3.678   2.378  18.351  0.00  0.00    +0.000 C 
BRANCH  20  21
ATOM     21  C   UNL     1       3.483   3.392  17.221  0.00  0.00    +0.000 C 
BRANCH  21  22
ATOM     22  C   UNL     1       4.809   3.720  16.538  0.00  0.00    +0.000 C 
BRANCH  22  23
ATOM     23  C   UNL     1       4.914   5.209  16.207  0.00  0.00    +0.000 C 
BRANCH  23  24
ATOM     24  C   UNL     1       5.980   5.874  17.041  0.00  0.00    +0.000 A 
ATOM     25  C   UNL     1       6.281   7.230  16.862  0.00  0.00    +0.000 A 
ATOM     26  C   UNL     1       7.298   7.831  17.605  0.00  0.00    +0.000 A 
ATOM     27  C   UNL     1       8.024   7.082  18.529  0.00  0.00    +0.000 A 
ATOM     28  C   UNL     1       7.734   5.731  18.711  0.00  0.00    +0.000 A 
ATOM     29  C   UNL     1       6.717   5.129  17.972  0.00  0.00    +0.000 A 
ENDBRANCH  23  24
ENDBRANCH  22  23
ENDBRANCH  21  22
ENDBRANCH  20  21
ENDBRANCH  19  20
ENDBRANCH  18  19
ENDBRANCH   2  18
TORSDOF 11
ENDMDL
MODEL 5
REMARK VINA RESULT:      -7.2      0.931      1.442
REMARK  Name = 
REMARK  11 active torsions:
REMARK  status: ('A' for Active; 'I' for Inactive)
REMARK    1  A    between atoms: C_2  and  C_3
REMARK    2  A    between atoms: C_3  and  C_4
REMARK    3  A    between atoms: C_7  and  N_8
REMARK    4  A    between atoms: C_9  and  C_11
REMARK    5  A    between atoms: C_11  and  C_12
REMARK    6  A    between atoms: C_12  and  C_13
REMARK    7  A    between atoms: C_13  and  C_14
REMARK    8  A    between atoms: C_14  and  C_15
REMARK    9  A    between atoms: C_15  and  C_16
REMARK   10  A    between atoms: C_16  and  C_17
REMARK   11  A    between atoms: N_25  and  O_26
REMARK                            x       y       z     vdW  Elec       q    Type
REMARK                         _______ _______ _______ _____ _____    ______ ____
ROOT
ATOM      1  N   UNL     1       2.532   5.717  20.599  0.00  0.00    +0.000 N 
ATOM      2  C   UNL     1       1.765   4.572  20.718  0.00  0.00    +0.000 C 
ATOM      3  O   UNL     1       0.588   4.448  20.386  0.00  0.00    +0.000 OA
ATOM      4  H   UNL     1       3.523   5.644  20.801  0.00  0.00    +0.000 HD
ENDROOT
BRANCH   1   8
ATOM      5  C   UNL     1       1.187   9.483  19.203  0.00  0.00    +0.000 A 
ATOM      6  C   UNL     1       1.900   8.636  18.352  0.00  0.00    +0.000 A 
ATOM      7  C   UNL     1       2.341   7.390  18.796  0.00  0.00    +0.000 A 
ATOM      8  C   UNL     1       2.086   6.961  20.100  0.00  0.00    +0.000 A 
ATOM      9  C   UNL     1       1.355   7.798  20.948  0.00  0.00    +0.000 A 
ATOM     10  C   UNL     1       0.914   9.053  20.508  0.00  0.00    +0.000 A 
BRANCH   5  11
ATOM     11  C   UNL     1       0.675  10.807  18.696  0.00  0.00    +0.000 C 
BRANCH  11  13
ATOM     12  O   UNL     1      -1.312  10.063  17.529  0.00  0.00    +0.000 OA
ATOM     13  C   UNL     1      -0.811  10.760  18.411  0.00  0.00    +0.000 C 
ATOM     14  N   UNL     1      -1.573  11.581  19.213  0.00  0.00    +0.000 N 
ATOM     15  H   UNL     1      -1.182  12.400  19.668  0.00  0.00    +0.000 HD
BRANCH  14  16
ATOM     16  O   UNL     1      -2.942  11.667  18.860  0.00  0.00    +0.000 OA
ATOM     17  H   UNL     1      -3.134  10.760  18.534  0.00  0.00    +0.000 HD
ENDBRANCH  14  16
ENDBRANCH  11  13
ENDBRANCH   5  11
ENDBRANCH   1   8
BRANCH   2  18
ATOM     18  C   UNL     1       2.518   3.375  21.264  0.00  0.00    +0.000 C 
BRANCH  18  19
ATOM     19  C   UNL     1       2.522   2.276  20.206  0.00  0.00    +0.000 C 
BRANCH  19  20
ATOM     20  C   UNL     1       3.854   2.185  19.467  0.00  0.00    +0.000 C 
BRANCH  20  21
ATOM     21  C   UNL     1       3.635   2.292  17.956  0.00  0.00    +0.000 C 
BRANCH  21  22
ATOM     22  C   UNL     1       3.013   3.637  17.583  0.00  0.00    +0.000 C 
BRANCH  22  23
ATOM     23  C   UNL     1       3.915   4.425  16.631  0.00  0.00    +0.000 C 
BRANCH  23  24
ATOM     24  C   UNL     1       5.243   4.732  17.276  0.00  0.00    +0.000 A 
ATOM     25  C   UNL     1       6.440   4.338  16.663  0.00  0.00    +0.000 A 
ATOM     26  C   UNL     1       7.664   4.585  17.284  0.00  0.00    +0.000 A 
ATOM     27  C   UNL     1       7.704   5.221  18.524  0.00  0.00    +0.000 A 
ATOM     28  C   UNL     1       6.518   5.613  19.142  0.00  0.00    +0.000 A 
ATOM     29  C   UNL     1       5.293   5.369  18.523  0.00  0.00    +0.000 A 
ENDBRANCH  23  24
ENDBRANCH  22  23
ENDBRANCH  21  22
ENDBRANCH  20  21
ENDBRANCH  19  20
ENDBRANCH  18  19
ENDBRANCH   2  18
TORSDOF 11
ENDMDL
MODEL 6
REMARK VINA RESULT:      -7.2      2.039      2.936
REMARK  Name = 
REMARK  11 active torsions:
REMARK  status: ('A' for Active; 'I' for Inactive)
REMARK    1  A    between atoms: C_2  and  C_3
REMARK    2  A    between atoms: C_3  and  C_4
REMARK    3  A    between atoms: C_7  and  N_8
REMARK    4  A    between atoms: C_9  and  C_11
REMARK    5  A    between atoms: C_11  and  C_12
REMARK    6  A    between atoms: C_12  and  C_13
REMARK    7  A    between atoms: C_13  and  C_14
REMARK    8  A    between atoms: C_14  and  C_15
REMARK    9  A    between atoms: C_15  and  C_16
REMARK   10  A    between atoms: C_16  and  C_17
REMARK   11  A    between atoms: N_25  and  O_26
REMARK                            x       y       z     vdW  Elec       q    Type
REMARK                         _______ _______ _______ _____ _____    ______ ____
ROOT
ATOM      1  N   UNL     1       2.784   5.971  20.013  0.00  0.00    +0.000 N 
ATOM      2  C   UNL     1       2.313   4.753  19.559  0.00  0.00    +0.000 C 
ATOM      3  O   UNL     1       1.359   4.578  18.804  0.00  0.00    +0.000 OA
ATOM      4  H   UNL     1       3.654   5.976  20.535  0.00  0.00    +0.000 HD
ENDROOT
BRANCH   1   8
ATOM      5  C   UNL     1       1.132   9.738  19.001  0.00  0.00    +0.000 A 
ATOM      6  C   UNL     1       0.926   9.204  20.275  0.00  0.00    +0.000 A 
ATOM      7  C   UNL     1       1.472   7.969  20.624  0.00  0.00    +0.000 A 
ATOM      8  C   UNL     1       2.230   7.235  19.710  0.00  0.00    +0.000 A 
ATOM      9  C   UNL     1       2.455   7.776  18.441  0.00  0.00    +0.000 A 
ATOM     10  C   UNL     1       1.905   9.014  18.084  0.00  0.00    +0.000 A 
BRANCH   5  11
ATOM     11  C   UNL     1       0.577  11.095  18.652  0.00  0.00    +0.000 C 
BRANCH  11  13
ATOM     12  O   UNL     1       1.888  12.755  19.830  0.00  0.00    +0.000 OA
ATOM     13  C   UNL     1       1.628  12.178  18.775  0.00  0.00    +0.000 C 
ATOM     14  N   UNL     1       2.270  12.487  17.596  0.00  0.00    +0.000 N 
ATOM     15  H   UNL     1       1.846  12.309  16.691  0.00  0.00    +0.000 HD
BRANCH  14  16
ATOM     16  O   UNL     1       3.144  13.599  17.659  0.00  0.00    +0.000 OA
ATOM     17  H   UNL     1       2.876  14.124  16.873  0.00  0.00    +0.000 HD
ENDBRANCH  14  16
ENDBRANCH  11  13
ENDBRANCH   5  11
ENDBRANCH   1   8
BRANCH   2  18
ATOM     18  C   UNL     1       3.124   3.561  20.026  0.00  0.00    +0.000 C 
BRANCH  18  19
ATOM     19  C   UNL     1       4.410   3.493  19.207  0.00  0.00    +0.000 C 
BRANCH  19  20
ATOM     20  C   UNL     1       4.145   3.228  17.729  0.00  0.00    +0.000 C 
BRANCH  20  21
ATOM     21  C   UNL     1       4.481   4.466  16.895  0.00  0.00    +0.000 C 
BRANCH  21  22
ATOM     22  C   UNL     1       5.112   4.078  15.560  0.00  0.00    +0.000 C 
BRANCH  22  23
ATOM     23  C   UNL     1       6.639   4.150  15.620  0.00  0.00    +0.000 C 
BRANCH  23  24
ATOM     24  C   UNL     1       7.091   5.088  16.711  0.00  0.00    +0.000 A 
ATOM     25  C   UNL     1       6.963   6.474  16.556  0.00  0.00    +0.000 A 
ATOM     26  C   UNL     1       7.423   7.340  17.548  0.00  0.00    +0.000 A 
ATOM     27  C   UNL     1       8.020   6.830  18.700  0.00  0.00    +0.000 A 
ATOM     28  C   UNL     1       8.155   5.452  18.861  0.00  0.00    +0.000 A 
ATOM     29  C   UNL     1       7.694   4.585  17.872  0.00  0.00    +0.000 A 
ENDBRANCH  23  24
ENDBRANCH  22  23
ENDBRANCH  21  22
ENDBRANCH  20  21
ENDBRANCH  19  20
ENDBRANCH  18  19
ENDBRANCH   2  18
TORSDOF 11
ENDMDL
MODEL 7
REMARK VINA RESULT:      -7.1      3.029      5.502
REMARK  Name = 
REMARK  11 active torsions:
REMARK  status: ('A' for Active; 'I' for Inactive)
REMARK    1  A    between atoms: C_2  and  C_3
REMARK    2  A    between atoms: C_3  and  C_4
REMARK    3  A    between atoms: C_7  and  N_8
REMARK    4  A    between atoms: C_9  and  C_11
REMARK    5  A    between atoms: C_11  and  C_12
REMARK    6  A    between atoms: C_12  and  C_13
REMARK    7  A    between atoms: C_13  and  C_14
REMARK    8  A    between atoms: C_14  and  C_15
REMARK    9  A    between atoms: C_15  and  C_16
REMARK   10  A    between atoms: C_16  and  C_17
REMARK   11  A    between atoms: N_25  and  O_26
REMARK                            x       y       z     vdW  Elec       q    Type
REMARK                         _______ _______ _______ _____ _____    ______ ____
ROOT
ATOM      1  N   UNL     1      -0.355  10.386  18.065  0.00  0.00    +0.000 N 
ATOM      2  C   UNL     1       0.396   9.983  19.154  0.00  0.00    +0.000 C 
ATOM      3  O   UNL     1      -0.029   9.748  20.283  0.00  0.00    +0.000 OA
ATOM      4  H   UNL     1       0.107  10.428  17.163  0.00  0.00    +0.000 HD
ENDROOT
BRANCH   1   8
ATOM      5  C   UNL     1      -4.545  11.011  18.032  0.00  0.00    +0.000 A 
ATOM      6  C   UNL     1      -3.721  11.833  18.806  0.00  0.00    +0.000 A 
ATOM      7  C   UNL     1      -2.340  11.643  18.819  0.00  0.00    +0.000 A 
ATOM      8  C   UNL     1      -1.747  10.628  18.065  0.00  0.00    +0.000 A 
ATOM      9  C   UNL     1      -2.566   9.818  17.274  0.00  0.00    +0.000 A 
ATOM     10  C   UNL     1      -3.955  10.001  17.261  0.00  0.00    +0.000 A 
BRANCH   5  11
ATOM     11  C   UNL     1      -6.031  11.257  17.990  0.00  0.00    +0.000 C 
BRANCH  11  13
ATOM     12  O   UNL     1      -6.746  11.091  20.298  0.00  0.00    +0.000 OA
ATOM     13  C   UNL     1      -6.739  10.613  19.164  0.00  0.00    +0.000 C 
ATOM     14  N   UNL     1      -7.371   9.426  18.868  0.00  0.00    +0.000 N 
ATOM     15  H   UNL     1      -7.087   8.847  18.084  0.00  0.00    +0.000 HD
BRANCH  14  16
ATOM     16  O   UNL     1      -7.906   8.734  19.982  0.00  0.00    +0.000 OA
ATOM     17  H   UNL     1      -8.693   9.277  20.211  0.00  0.00    +0.000 HD
ENDBRANCH  14  16
ENDBRANCH  11  13
ENDBRANCH   5  11
ENDBRANCH   1   8
BRANCH   2  18
ATOM     18  C   UNL     1       1.866   9.776  18.851  0.00  0.00    +0.000 C 
BRANCH  18  19
ATOM     19  C   UNL     1       1.992   8.834  17.656  0.00  0.00    +0.000 C 
BRANCH  19  20
ATOM     20  C   UNL     1       2.417   7.428  18.067  0.00  0.00    +0.000 C 
BRANCH  20  21
ATOM     21  C   UNL     1       3.862   7.161  17.640  0.00  0.00    +0.000 C 
BRANCH  21  22
ATOM     22  C   UNL     1       4.044   5.716  17.180  0.00  0.00    +0.000 C 
BRANCH  22  23
ATOM     23  C   UNL     1       4.326   4.785  18.360  0.00  0.00    +0.000 C 
BRANCH  23  24
ATOM     24  C   UNL     1       3.046   4.207  18.909  0.00  0.00    +0.000 A 
ATOM     25  C   UNL     1       2.686   4.420  20.247  0.00  0.00    +0.000 A 
ATOM     26  C   UNL     1       1.523   3.847  20.763  0.00  0.00    +0.000 A 
ATOM     27  C   UNL     1       0.714   3.054  19.952  0.00  0.00    +0.000 A 
ATOM     28  C   UNL     1       1.067   2.834  18.621  0.00  0.00    +0.000 A 
ATOM     29  C   UNL     1       2.226   3.407  18.102  0.00  0.00    +0.000 A 
ENDBRANCH  23  24
ENDBRANCH  22  23
ENDBRANCH  21  22
ENDBRANCH  20  21
ENDBRANCH  19  20
ENDBRANCH  18  19
ENDBRANCH   2  18
TORSDOF 11
ENDMDL
MODEL 8
REMARK VINA RESULT:      -7.1      1.748      2.230
REMARK  Name = 
REMARK  11 active torsions:
REMARK  status: ('A' for Active; 'I' for Inactive)
REMARK    1  A    between atoms: C_2  and  C_3
REMARK    2  A    between atoms: C_3  and  C_4
REMARK    3  A    between atoms: C_7  and  N_8
REMARK    4  A    between atoms: C_9  and  C_11
REMARK    5  A    between atoms: C_11  and  C_12
REMARK    6  A    between atoms: C_12  and  C_13
REMARK    7  A    between atoms: C_13  and  C_14
REMARK    8  A    between atoms: C_14  and  C_15
REMARK    9  A    between atoms: C_15  and  C_16
REMARK   10  A    between atoms: C_16  and  C_17
REMARK   11  A    between atoms: N_25  and  O_26
REMARK                            x       y       z     vdW  Elec       q    Type
REMARK                         _______ _______ _______ _____ _____    ______ ____
ROOT
ATOM      1  N   UNL     1       2.658   5.647  20.362  0.00  0.00    +0.000 N 
ATOM      2  C   UNL     1       1.885   4.510  20.510  0.00  0.00    +0.000 C 
ATOM      3  O   UNL     1       0.682   4.413  20.278  0.00  0.00    +0.000 OA
ATOM      4  H   UNL     1       3.661   5.554  20.474  0.00  0.00    +0.000 HD
ENDROOT
BRANCH   1   8
ATOM      5  C   UNL     1       1.254   9.474  19.212  0.00  0.00    +0.000 A 
ATOM      6  C   UNL     1       1.941   8.677  18.294  0.00  0.00    +0.000 A 
ATOM      7  C   UNL     1       2.401   7.411  18.657  0.00  0.00    +0.000 A 
ATOM      8  C   UNL     1       2.191   6.914  19.944  0.00  0.00    +0.000 A 
ATOM      9  C   UNL     1       1.486   7.701  20.859  0.00  0.00    +0.000 A 
ATOM     10  C   UNL     1       1.026   8.975  20.500  0.00  0.00    +0.000 A 
BRANCH   5  11
ATOM     11  C   UNL     1       0.721  10.820  18.792  0.00  0.00    +0.000 C 
BRANCH  11  13
ATOM     12  O   UNL     1      -0.764  11.793  20.440  0.00  0.00    +0.000 OA
ATOM     13  C   UNL     1       0.375  11.684  19.987  0.00  0.00    +0.000 C 
ATOM     14  N   UNL     1       1.444  12.362  20.530  0.00  0.00    +0.000 N 
ATOM     15  H   UNL     1       2.275  12.577  19.987  0.00  0.00    +0.000 HD
BRANCH  14  16
ATOM     16  O   UNL     1       1.116  13.290  21.548  0.00  0.00    +0.000 OA
ATOM     17  H   UNL     1       0.192  13.535  21.320  0.00  0.00    +0.000 HD
ENDBRANCH  14  16
ENDBRANCH  11  13
ENDBRANCH   5  11
ENDBRANCH   1   8
BRANCH   2  18
ATOM     18  C   UNL     1       2.662   3.285  20.950  0.00  0.00    +0.000 C 
BRANCH  18  19
ATOM     19  C   UNL     1       3.083   2.501  19.709  0.00  0.00    +0.000 C 
BRANCH  19  20
ATOM     20  C   UNL     1       2.106   2.679  18.551  0.00  0.00    +0.000 C 
BRANCH  20  21
ATOM     21  C   UNL     1       2.862   3.005  17.261  0.00  0.00    +0.000 C 
BRANCH  21  22
ATOM     22  C   UNL     1       4.240   3.590  17.561  0.00  0.00    +0.000 C 
BRANCH  22  23
ATOM     23  C   UNL     1       4.336   5.052  17.122  0.00  0.00    +0.000 C 
BRANCH  23  24
ATOM     24  C   UNL     1       5.599   5.690  17.643  0.00  0.00    +0.000 A 
ATOM     25  C   UNL     1       6.148   6.809  17.001  0.00  0.00    +0.000 A 
ATOM     26  C   UNL     1       7.340   7.370  17.460  0.00  0.00    +0.000 A 
ATOM     27  C   UNL     1       7.997   6.816  18.557  0.00  0.00    +0.000 A 
ATOM     28  C   UNL     1       7.460   5.702  19.199  0.00  0.00    +0.000 A 
ATOM     29  C   UNL     1       6.268   5.140  18.745  0.00  0.00    +0.000 A 
ENDBRANCH  23  24
ENDBRANCH  22  23
ENDBRANCH  21  22
ENDBRANCH  20  21
ENDBRANCH  19  20
ENDBRANCH  18  19
ENDBRANCH   2  18
TORSDOF 11
ENDMDL
MODEL 9
REMARK VINA RESULT:      -7.0      2.883      8.150
REMARK  Name = 
REMARK  11 active torsions:
REMARK  status: ('A' for Active; 'I' for Inactive)
REMARK    1  A    between atoms: C_2  and  C_3
REMARK    2  A    between atoms: C_3  and  C_4
REMARK    3  A    between atoms: C_7  and  N_8
REMARK    4  A    between atoms: C_9  and  C_11
REMARK    5  A    between atoms: C_11  and  C_12
REMARK    6  A    between atoms: C_12  and  C_13
REMARK    7  A    between atoms: C_13  and  C_14
REMARK    8  A    between atoms: C_14  and  C_15
REMARK    9  A    between atoms: C_15  and  C_16
REMARK   10  A    between atoms: C_16  and  C_17
REMARK   11  A    between atoms: N_25  and  O_26
REMARK                            x       y       z     vdW  Elec       q    Type
REMARK                         _______ _______ _______ _____ _____    ______ ____
ROOT
ATOM      1  N   UNL     1       1.398   8.585  21.501  0.00  0.00    +0.000 N 
ATOM      2  C   UNL     1       0.129   8.698  22.037  0.00  0.00    +0.000 C 
ATOM      3  O   UNL     1      -0.852   8.023  21.733  0.00  0.00    +0.000 OA
ATOM      4  H   UNL     1       2.142   9.123  21.930  0.00  0.00    +0.000 HD
ENDROOT
BRANCH   1   8
ATOM      5  C   UNL     1       2.516   5.813  18.498  0.00  0.00    +0.000 A 
ATOM      6  C   UNL     1       2.432   7.174  18.197  0.00  0.00    +0.000 A 
ATOM      7  C   UNL     1       2.073   8.098  19.178  0.00  0.00    +0.000 A 
ATOM      8  C   UNL     1       1.786   7.687  20.481  0.00  0.00    +0.000 A 
ATOM      9  C   UNL     1       1.890   6.328  20.790  0.00  0.00    +0.000 A 
ATOM     10  C   UNL     1       2.245   5.396  19.807  0.00  0.00    +0.000 A 
BRANCH   5  11
ATOM     11  C   UNL     1       2.951   4.831  17.441  0.00  0.00    +0.000 C 
BRANCH  11  13
ATOM     12  O   UNL     1       1.226   3.149  17.677  0.00  0.00    +0.000 OA
ATOM     13  C   UNL     1       2.421   3.440  17.716  0.00  0.00    +0.000 C 
ATOM     14  N   UNL     1       3.388   2.513  18.035  0.00  0.00    +0.000 N 
ATOM     15  H   UNL     1       4.286   2.785  18.421  0.00  0.00    +0.000 HD
BRANCH  14  16
ATOM     16  O   UNL     1       2.899   1.248  18.444  0.00  0.00    +0.000 OA
ATOM     17  H   UNL     1       3.199   1.197  19.379  0.00  0.00    +0.000 HD
ENDBRANCH  14  16
ENDBRANCH  11  13
ENDBRANCH   5  11
ENDBRANCH   1   8
BRANCH   2  18
ATOM     18  C   UNL     1       0.012   9.732  23.140  0.00  0.00    +0.000 C 
BRANCH  18  19
ATOM     19  C   UNL     1      -1.020  10.777  22.724  0.00  0.00    +0.000 C 
BRANCH  19  20
ATOM     20  C   UNL     1      -0.391  11.953  21.983  0.00  0.00    +0.000 C 
BRANCH  20  21
ATOM     21  C   UNL     1      -1.154  12.237  20.687  0.00  0.00    +0.000 C 
BRANCH  21  22
ATOM     22  C   UNL     1      -0.490  11.552  19.495  0.00  0.00    +0.000 C 
BRANCH  22  23
ATOM     23  C   UNL     1      -1.219  10.262  19.114  0.00  0.00    +0.000 C 
BRANCH  23  24
ATOM     24  C   UNL     1      -2.141  10.489  17.943  0.00  0.00    +0.000 A 
ATOM     25  C   UNL     1      -3.283  11.289  18.081  0.00  0.00    +0.000 A 
ATOM     26  C   UNL     1      -4.158  11.461  17.008  0.00  0.00    +0.000 A 
ATOM     27  C   UNL     1      -3.902  10.833  15.790  0.00  0.00    +0.000 A 
ATOM     28  C   UNL     1      -2.771  10.033  15.645  0.00  0.00    +0.000 A 
ATOM     29  C   UNL     1      -1.894   9.860  16.715  0.00  0.00    +0.000 A 
ENDBRANCH  23  24
ENDBRANCH  22  23
ENDBRANCH  21  22
ENDBRANCH  20  21
ENDBRANCH  19  20
ENDBRANCH  18  19
ENDBRANCH   2  18
TORSDOF 11
ENDMDL
