MODEL 1
REMARK VINA RESULT:      -7.5      0.000      0.000
REMARK  Name = 
REMARK  6 active torsions:
REMARK  status: ('A' for Active; 'I' for Inactive)
REMARK    1  A    between atoms: C_1  and  N_2
REMARK    2  A    between atoms: N_2  and  C_3
REMARK    3  A    between atoms: N_2  and  C_4
REMARK    4  A    between atoms: C_4  and  C_5
REMARK    5  A    between atoms: C_8  and  C_9
REMARK    6  A    between atoms: C_16  and  C_17
REMARK                            x       y       z     vdW  Elec       q    Type
REMARK                         _______ _______ _______ _____ _____    ______ ____
ROOT
ATOM      1  C   UNL     1       2.182   7.207  19.584  0.00  0.00    +0.000 A 
ATOM      2  C   UNL     1       2.956   7.516  18.348  0.00  0.00    +0.000 A 
ATOM      3  C   UNL     1       3.590   6.507  17.744  0.00  0.00    +0.000 A 
ATOM      4  C   UNL     1       3.517   5.211  18.303  0.00  0.00    +0.000 A 
ATOM      5  C   UNL     1       4.036   3.991  17.938  0.00  0.00    +0.000 A 
ATOM      6 CL   UNL     1       5.000   3.630  16.586  0.00  0.00    +0.000 Cl
ATOM      7  C   UNL     1       3.624   3.053  18.901  0.00  0.00    +0.000 A 
ATOM      8  C   UNL     1       2.846   3.711  19.847  0.00  0.00    +0.000 A 
ATOM      9  N   UNL     1       2.794   5.043  19.470  0.00  0.00    +0.000 N 
ATOM     10  N   UNL     1       2.115   6.032  20.142  0.00  0.00    +0.000 NA
ENDROOT
BRANCH   1  14
ATOM     11  C   UNL     1       0.165  10.587  21.338  0.00  0.00    +0.000 A 
ATOM     12  C   UNL     1       0.503   9.481  22.129  0.00  0.00    +0.000 A 
ATOM     13  C   UNL     1       1.151   8.377  21.568  0.00  0.00    +0.000 A 
ATOM     14  C   UNL     1       1.453   8.355  20.200  0.00  0.00    +0.000 A 
ATOM     15  C   UNL     1       1.102   9.450  19.402  0.00  0.00    +0.000 A 
ATOM     16  C   UNL     1       0.456  10.555  19.966  0.00  0.00    +0.000 A 
BRANCH  11  17
ATOM     17  C   UNL     1      -0.456  11.820  21.970  0.00  0.00    +0.000 C 
BRANCH  17  19
ATOM     18  C   UNL     1      -2.529  12.058  23.228  0.00  0.00    +0.000 C 
ATOM     19  N   UNL     1      -1.930  11.821  21.911  0.00  0.00    +0.000 NA
ATOM     20  C   UNL     1      -2.397  12.845  20.973  0.00  0.00    +0.000 C 
ENDBRANCH  17  19
ENDBRANCH  11  17
ENDBRANCH   1  14
BRANCH   8  21
ATOM     21  C   UNL     1       2.217   3.093  20.989  0.00  0.00    +0.000 C 
ATOM     22  N   UNL     1       0.856   3.073  21.004  0.00  0.00    +0.000 N 
ATOM     23  O   UNL     1       2.837   2.592  21.923  0.00  0.00    +0.000 OA
ATOM     24  H   UNL     1       0.324   3.435  20.219  0.00  0.00    +0.000 HD
ATOM     25  H   UNL     1       0.391   2.601  21.765  0.00  0.00    +0.000 HD
ENDBRANCH   8  21
TORSDOF 4
ENDMDL
MODEL 2
REMARK VINA RESULT:      -7.5      0.727      1.454
REMARK  Name = 
REMARK  6 active torsions:
REMARK  status: ('A' for Active; 'I' for Inactive)
REMARK    1  A    between atoms: C_1  and  N_2
REMARK    2  A    between atoms: N_2  and  C_3
REMARK    3  A    between atoms: N_2  and  C_4
REMARK    4  A    between atoms: C_4  and  C_5
REMARK    5  A    between atoms: C_8  and  C_9
REMARK    6  A    between atoms: C_16  and  C_17
REMARK                            x       y       z     vdW  Elec       q    Type
REMARK                         _______ _______ _______ _____ _____    ______ ____
ROOT
ATOM      1  C   UNL     1       2.202   7.224  19.461  0.00  0.00    +0.000 A 
ATOM      2  C   UNL     1       3.029   7.526  18.258  0.00  0.00    +0.000 A 
ATOM      3  C   UNL     1       3.711   6.519  17.704  0.00  0.00    +0.000 A 
ATOM      4  C   UNL     1       3.634   5.232  18.282  0.00  0.00    +0.000 A 
ATOM      5  C   UNL     1       4.193   4.016  17.965  0.00  0.00    +0.000 A 
ATOM      6 CL   UNL     1       5.227   3.650  16.668  0.00  0.00    +0.000 Cl
ATOM      7  C   UNL     1       3.752   3.088  18.925  0.00  0.00    +0.000 A 
ATOM      8  C   UNL     1       2.918   3.747  19.820  0.00  0.00    +0.000 A 
ATOM      9  N   UNL     1       2.859   5.071  19.417  0.00  0.00    +0.000 N 
ATOM     10  N   UNL     1       2.131   6.058  20.037  0.00  0.00    +0.000 NA
ENDROOT
BRANCH   1  14
ATOM     11  C   UNL     1      -0.127  10.459  21.099  0.00  0.00    +0.000 A 
ATOM     12  C   UNL     1       0.246  10.473  19.748  0.00  0.00    +0.000 A 
ATOM     13  C   UNL     1       1.007   9.433  19.209  0.00  0.00    +0.000 A 
ATOM     14  C   UNL     1       1.424   8.369  20.020  0.00  0.00    +0.000 A 
ATOM     15  C   UNL     1       1.069   8.358  21.374  0.00  0.00    +0.000 A 
ATOM     16  C   UNL     1       0.305   9.400  21.911  0.00  0.00    +0.000 A 
BRANCH  11  17
ATOM     17  C   UNL     1      -1.030  11.545  21.655  0.00  0.00    +0.000 C 
BRANCH  17  19
ATOM     18  C   UNL     1       0.400  13.510  21.469  0.00  0.00    +0.000 C 
ATOM     19  N   UNL     1      -0.291  12.595  22.383  0.00  0.00    +0.000 NA
ATOM     20  C   UNL     1      -1.207  13.358  23.235  0.00  0.00    +0.000 C 
ENDBRANCH  17  19
ENDBRANCH  11  17
ENDBRANCH   1  14
BRANCH   8  21
ATOM     21  C   UNL     1       2.246   3.138  20.943  0.00  0.00    +0.000 C 
ATOM     22  N   UNL     1       0.885   3.128  20.911  0.00  0.00    +0.000 N 
ATOM     23  O   UNL     1       2.830   2.634  21.898  0.00  0.00    +0.000 OA
ATOM     24  H   UNL     1       0.383   3.492  20.109  0.00  0.00    +0.000 HD
ATOM     25  H   UNL     1       0.391   2.662  21.658  0.00  0.00    +0.000 HD
ENDBRANCH   8  21
TORSDOF 4
ENDMDL
MODEL 3
REMARK VINA RESULT:      -7.4      1.413      1.967
REMARK  Name = 
REMARK  6 active torsions:
REMARK  status: ('A' for Active; 'I' for Inactive)
REMARK    1  A    between atoms: C_1  and  N_2
REMARK    2  A    between atoms: N_2  and  C_3
REMARK    3  A    between atoms: N_2  and  C_4
REMARK    4  A    between atoms: C_4  and  C_5
REMARK    5  A    between atoms: C_8  and  C_9
REMARK    6  A    between atoms: C_16  and  C_17
REMARK                            x       y       z     vdW  Elec       q    Type
REMARK                         _______ _______ _______ _____ _____    ______ ____
ROOT
ATOM      1  C   UNL     1       2.713   7.025  18.409  0.00  0.00    +0.000 A 
ATOM      2  C   UNL     1       3.802   7.409  17.465  0.00  0.00    +0.000 A 
ATOM      3  C   UNL     1       4.516   6.427  16.908  0.00  0.00    +0.000 A 
ATOM      4  C   UNL     1       4.226   5.086  17.244  0.00  0.00    +0.000 A 
ATOM      5  C   UNL     1       4.755   3.877  16.857  0.00  0.00    +0.000 A 
ATOM      6 CL   UNL     1       6.019   3.595  15.757  0.00  0.00    +0.000 Cl
ATOM      7  C   UNL     1       4.052   2.871  17.543  0.00  0.00    +0.000 A 
ATOM      8  C   UNL     1       3.090   3.477  18.342  0.00  0.00    +0.000 A 
ATOM      9  N   UNL     1       3.213   4.844  18.154  0.00  0.00    +0.000 N 
ATOM     10  N   UNL     1       2.437   5.802  18.762  0.00  0.00    +0.000 NA
ENDROOT
BRANCH   1  14
ATOM     11  C   UNL     1       0.321  10.207  20.060  0.00  0.00    +0.000 A 
ATOM     12  C   UNL     1       0.713  10.245  18.715  0.00  0.00    +0.000 A 
ATOM     13  C   UNL     1       1.494   9.222  18.172  0.00  0.00    +0.000 A 
ATOM     14  C   UNL     1       1.912   8.152  18.973  0.00  0.00    +0.000 A 
ATOM     15  C   UNL     1       1.539   8.118  20.322  0.00  0.00    +0.000 A 
ATOM     16  C   UNL     1       0.755   9.142  20.862  0.00  0.00    +0.000 A 
BRANCH  11  17
ATOM     17  C   UNL     1      -0.603  11.273  20.619  0.00  0.00    +0.000 C 
BRANCH  17  19
ATOM     18  C   UNL     1       0.069  13.276  21.833  0.00  0.00    +0.000 C 
ATOM     19  N   UNL     1      -0.137  11.827  21.905  0.00  0.00    +0.000 NA
ATOM     20  C   UNL     1      -1.102  11.524  22.964  0.00  0.00    +0.000 C 
ENDBRANCH  17  19
ENDBRANCH  11  17
ENDBRANCH   1  14
BRANCH   8  21
ATOM     21  C   UNL     1       2.149   2.786  19.190  0.00  0.00    +0.000 C 
ATOM     22  N   UNL     1       1.326   1.885  18.587  0.00  0.00    +0.000 N 
ATOM     23  O   UNL     1       2.062   2.964  20.402  0.00  0.00    +0.000 OA
ATOM     24  H   UNL     1       1.415   1.685  17.596  0.00  0.00    +0.000 HD
ATOM     25  H   UNL     1       0.694   1.350  19.163  0.00  0.00    +0.000 HD
ENDBRANCH   8  21
TORSDOF 4
ENDMDL
MODEL 4
REMARK VINA RESULT:      -7.4      0.866      1.368
REMARK  Name = 
REMARK  6 active torsions:
REMARK  status: ('A' for Active; 'I' for Inactive)
REMARK    1  A    between atoms: C_1  and  N_2
REMARK    2  A    between atoms: N_2  and  C_3
REMARK    3  A    between atoms: N_2  and  C_4
REMARK    4  A    between atoms: C_4  and  C_5
REMARK    5  A    between atoms: C_8  and  C_9
REMARK    6  A    between atoms: C_16  and  C_17
REMARK                            x       y       z     vdW  Elec       q    Type
REMARK                         _______ _______ _______ _____ _____    ______ ____
ROOT
ATOM      1  C   UNL     1       1.802   7.510  19.975  0.00  0.00    +0.000 A 
ATOM      2  C   UNL     1       2.482   7.960  18.727  0.00  0.00    +0.000 A 
ATOM      3  C   UNL     1       3.124   7.039  18.003  0.00  0.00    +0.000 A 
ATOM      4  C   UNL     1       3.147   5.700  18.451  0.00  0.00    +0.000 A 
ATOM      5  C   UNL     1       3.700   4.543  17.954  0.00  0.00    +0.000 A 
ATOM      6 CL   UNL     1       4.593   4.346  16.522  0.00  0.00    +0.000 Cl
ATOM      7  C   UNL     1       3.393   3.508  18.855  0.00  0.00    +0.000 A 
ATOM      8  C   UNL     1       2.647   4.044  19.898  0.00  0.00    +0.000 A 
ATOM      9  N   UNL     1       2.508   5.398  19.640  0.00  0.00    +0.000 N 
ATOM     10  N   UNL     1       1.827   6.291  20.433  0.00  0.00    +0.000 NA
ENDROOT
BRANCH   1  14
ATOM     11  C   UNL     1      -0.408  10.474  22.189  0.00  0.00    +0.000 A 
ATOM     12  C   UNL     1      -0.324  10.555  20.792  0.00  0.00    +0.000 A 
ATOM     13  C   UNL     1       0.395   9.603  20.066  0.00  0.00    +0.000 A 
ATOM     14  C   UNL     1       1.060   8.564  20.729  0.00  0.00    +0.000 A 
ATOM     15  C   UNL     1       0.995   8.488  22.125  0.00  0.00    +0.000 A 
ATOM     16  C   UNL     1       0.272   9.440  22.850  0.00  0.00    +0.000 A 
BRANCH  11  17
ATOM     17  C   UNL     1      -1.266  11.458  22.963  0.00  0.00    +0.000 C 
BRANCH  17  19
ATOM     18  C   UNL     1      -3.021  12.915  22.106  0.00  0.00    +0.000 C 
ATOM     19  N   UNL     1      -1.577  12.681  22.200  0.00  0.00    +0.000 NA
ATOM     20  C   UNL     1      -0.935  13.842  22.823  0.00  0.00    +0.000 C 
ENDBRANCH  17  19
ENDBRANCH  11  17
ENDBRANCH   1  14
BRANCH   8  21
ATOM     21  C   UNL     1       2.120   3.302  21.018  0.00  0.00    +0.000 C 
ATOM     22  N   UNL     1       0.781   3.056  21.017  0.00  0.00    +0.000 N 
ATOM     23  O   UNL     1       2.807   2.886  21.946  0.00  0.00    +0.000 OA
ATOM     24  H   UNL     1       0.203   3.344  20.235  0.00  0.00    +0.000 HD
ATOM     25  H   UNL     1       0.395   2.494  21.761  0.00  0.00    +0.000 HD
ENDBRANCH   8  21
TORSDOF 4
ENDMDL
MODEL 5
REMARK VINA RESULT:      -7.3      0.832      1.135
REMARK  Name = 
REMARK  6 active torsions:
REMARK  status: ('A' for Active; 'I' for Inactive)
REMARK    1  A    between atoms: C_1  and  N_2
REMARK    2  A    between atoms: N_2  and  C_3
REMARK    3  A    between atoms: N_2  and  C_4
REMARK    4  A    between atoms: C_4  and  C_5
REMARK    5  A    between atoms: C_8  and  C_9
REMARK    6  A    between atoms: C_16  and  C_17
REMARK                            x       y       z     vdW  Elec       q    Type
REMARK                         _______ _______ _______ _____ _____    ______ ____
ROOT
ATOM      1  C   UNL     1       2.128   7.326  19.445  0.00  0.00    +0.000 A 
ATOM      2  C   UNL     1       3.011   7.649  18.287  0.00  0.00    +0.000 A 
ATOM      3  C   UNL     1       3.761   6.666  17.785  0.00  0.00    +0.000 A 
ATOM      4  C   UNL     1       3.703   5.382  18.372  0.00  0.00    +0.000 A 
ATOM      5  C   UNL     1       4.327   4.186  18.102  0.00  0.00    +0.000 A 
ATOM      6 CL   UNL     1       5.447   3.850  16.870  0.00  0.00    +0.000 Cl
ATOM      7  C   UNL     1       3.869   3.250  19.045  0.00  0.00    +0.000 A 
ATOM      8  C   UNL     1       2.959   3.883  19.884  0.00  0.00    +0.000 A 
ATOM      9  N   UNL     1       2.872   5.200  19.463  0.00  0.00    +0.000 N 
ATOM     10  N   UNL     1       2.070   6.163  20.029  0.00  0.00    +0.000 NA
ENDROOT
BRANCH   1  14
ATOM     11  C   UNL     1      -0.254  10.623  20.867  0.00  0.00    +0.000 A 
ATOM     12  C   UNL     1       0.120   9.595  21.743  0.00  0.00    +0.000 A 
ATOM     13  C   UNL     1       0.886   8.518  21.290  0.00  0.00    +0.000 A 
ATOM     14  C   UNL     1       1.275   8.444  19.946  0.00  0.00    +0.000 A 
ATOM     15  C   UNL     1       0.889   9.458  19.063  0.00  0.00    +0.000 A 
ATOM     16  C   UNL     1       0.124  10.537  19.519  0.00  0.00    +0.000 A 
BRANCH  11  17
ATOM     17  C   UNL     1      -1.008  11.834  21.385  0.00  0.00    +0.000 C 
BRANCH  17  19
ATOM     18  C   UNL     1       0.629  13.636  21.471  0.00  0.00    +0.000 C 
ATOM     19  N   UNL     1      -0.186  12.701  22.251  0.00  0.00    +0.000 NA
ATOM     20  C   UNL     1      -1.043  13.454  23.171  0.00  0.00    +0.000 C 
ENDBRANCH  17  19
ENDBRANCH  11  17
ENDBRANCH   1  14
BRANCH   8  21
ATOM     21  C   UNL     1       2.249   3.258  20.974  0.00  0.00    +0.000 C 
ATOM     22  N   UNL     1       0.891   3.223  20.881  0.00  0.00    +0.000 N 
ATOM     23  O   UNL     1       2.798   2.762  21.953  0.00  0.00    +0.000 OA
ATOM     24  H   UNL     1       0.419   3.581  20.058  0.00  0.00    +0.000 HD
ATOM     25  H   UNL     1       0.373   2.746  21.603  0.00  0.00    +0.000 HD
ENDBRANCH   8  21
TORSDOF 4
ENDMDL
MODEL 6
REMARK VINA RESULT:      -7.3      2.666      3.759
REMARK  Name = 
REMARK  6 active torsions:
REMARK  status: ('A' for Active; 'I' for Inactive)
REMARK    1  A    between atoms: C_1  and  N_2
REMARK    2  A    between atoms: N_2  and  C_3
REMARK    3  A    between atoms: N_2  and  C_4
REMARK    4  A    between atoms: C_4  and  C_5
REMARK    5  A    between atoms: C_8  and  C_9
REMARK    6  A    between atoms: C_16  and  C_17
REMARK                            x       y       z     vdW  Elec       q    Type
REMARK                         _______ _______ _______ _____ _____    ______ ____
ROOT
ATOM      1  C   UNL     1       2.514   6.733  18.622  0.00  0.00    +0.000 A 
ATOM      2  C   UNL     1       1.812   5.578  19.253  0.00  0.00    +0.000 A 
ATOM      3  C   UNL     1       2.264   4.352  18.978  0.00  0.00    +0.000 A 
ATOM      4  C   UNL     1       3.362   4.200  18.102  0.00  0.00    +0.000 A 
ATOM      5  C   UNL     1       4.054   3.109  17.629  0.00  0.00    +0.000 A 
ATOM      6 CL   UNL     1       3.787   1.470  17.988  0.00  0.00    +0.000 Cl
ATOM      7  C   UNL     1       5.057   3.587  16.769  0.00  0.00    +0.000 A 
ATOM      8  C   UNL     1       4.974   4.974  16.728  0.00  0.00    +0.000 A 
ATOM      9  N   UNL     1       3.920   5.339  17.549  0.00  0.00    +0.000 N 
ATOM     10  N   UNL     1       3.509   6.629  17.789  0.00  0.00    +0.000 NA
ENDROOT
BRANCH   1  14
ATOM     11  C   UNL     1       0.938  10.595  19.705  0.00  0.00    +0.000 A 
ATOM     12  C   UNL     1       1.443  10.376  18.416  0.00  0.00    +0.000 A 
ATOM     13  C   UNL     1       1.962   9.130  18.057  0.00  0.00    +0.000 A 
ATOM     14  C   UNL     1       2.002   8.087  18.991  0.00  0.00    +0.000 A 
ATOM     15  C   UNL     1       1.516   8.305  20.285  0.00  0.00    +0.000 A 
ATOM     16  C   UNL     1       0.994   9.552  20.641  0.00  0.00    +0.000 A 
BRANCH  11  17
ATOM     17  C   UNL     1       0.292  11.922  20.059  0.00  0.00    +0.000 C 
BRANCH  17  19
ATOM     18  C   UNL     1       2.113  13.395  20.731  0.00  0.00    +0.000 C 
ATOM     19  N   UNL     1       0.960  12.610  21.181  0.00  0.00    +0.000 NA
ATOM     20  C   UNL     1       0.012  13.488  21.871  0.00  0.00    +0.000 C 
ENDBRANCH  17  19
ENDBRANCH  11  17
ENDBRANCH   1  14
BRANCH   8  21
ATOM     21  C   UNL     1       5.843   5.844  15.972  0.00  0.00    +0.000 C 
ATOM     22  N   UNL     1       5.245   6.826  15.242  0.00  0.00    +0.000 N 
ATOM     23  O   UNL     1       7.066   5.746  15.961  0.00  0.00    +0.000 OA
ATOM     24  H   UNL     1       4.240   6.957  15.277  0.00  0.00    +0.000 HD
ATOM     25  H   UNL     1       5.831   7.480  14.746  0.00  0.00    +0.000 HD
ENDBRANCH   8  21
TORSDOF 4
ENDMDL
MODEL 7
REMARK VINA RESULT:      -7.3      1.572      1.881
REMARK  Name = 
REMARK  6 active torsions:
REMARK  status: ('A' for Active; 'I' for Inactive)
REMARK    1  A    between atoms: C_1  and  N_2
REMARK    2  A    between atoms: N_2  and  C_3
REMARK    3  A    between atoms: N_2  and  C_4
REMARK    4  A    between atoms: C_4  and  C_5
REMARK    5  A    between atoms: C_8  and  C_9
REMARK    6  A    between atoms: C_16  and  C_17
REMARK                            x       y       z     vdW  Elec       q    Type
REMARK                         _______ _______ _______ _____ _____    ______ ____
ROOT
ATOM      1  C   UNL     1       2.627   7.102  18.348  0.00  0.00    +0.000 A 
ATOM      2  C   UNL     1       3.754   7.512  17.462  0.00  0.00    +0.000 A 
ATOM      3  C   UNL     1       4.509   6.547  16.931  0.00  0.00    +0.000 A 
ATOM      4  C   UNL     1       4.224   5.197  17.238  0.00  0.00    +0.000 A 
ATOM      5  C   UNL     1       4.788   4.000  16.865  0.00  0.00    +0.000 A 
ATOM      6 CL   UNL     1       6.109   3.749  15.825  0.00  0.00    +0.000 Cl
ATOM      7  C   UNL     1       4.068   2.977  17.505  0.00  0.00    +0.000 A 
ATOM      8  C   UNL     1       3.059   3.561  18.263  0.00  0.00    +0.000 A 
ATOM      9  N   UNL     1       3.171   4.931  18.095  0.00  0.00    +0.000 N 
ATOM     10  N   UNL     1       2.352   5.871  18.675  0.00  0.00    +0.000 NA
ENDROOT
BRANCH   1  14
ATOM     11  C   UNL     1       0.271  10.375  19.868  0.00  0.00    +0.000 A 
ATOM     12  C   UNL     1       0.701   9.356  20.729  0.00  0.00    +0.000 A 
ATOM     13  C   UNL     1       1.459   8.288  20.245  0.00  0.00    +0.000 A 
ATOM     14  C   UNL     1       1.783   8.211  18.884  0.00  0.00    +0.000 A 
ATOM     15  C   UNL     1       1.342   9.216  18.016  0.00  0.00    +0.000 A 
ATOM     16  C   UNL     1       0.585  10.286  18.504  0.00  0.00    +0.000 A 
BRANCH  11  17
ATOM     17  C   UNL     1      -0.473  11.578  20.416  0.00  0.00    +0.000 C 
BRANCH  17  19
ATOM     18  C   UNL     1       0.961  13.385  21.200  0.00  0.00    +0.000 C 
ATOM     19  N   UNL     1       0.196  12.193  21.579  0.00  0.00    +0.000 NA
ATOM     20  C   UNL     1      -0.792  12.554  22.598  0.00  0.00    +0.000 C 
ENDBRANCH  17  19
ENDBRANCH  11  17
ENDBRANCH   1  14
BRANCH   8  21
ATOM     21  C   UNL     1       2.088   2.847  19.057  0.00  0.00    +0.000 C 
ATOM     22  N   UNL     1       2.134   3.041  20.404  0.00  0.00    +0.000 N 
ATOM     23  O   UNL     1       1.239   2.097  18.586  0.00  0.00    +0.000 OA
ATOM     24  H   UNL     1       2.794   3.696  20.810  0.00  0.00    +0.000 HD
ATOM     25  H   UNL     1       1.434   2.595  20.977  0.00  0.00    +0.000 HD
ENDBRANCH   8  21
TORSDOF 4
ENDMDL
MODEL 8
REMARK VINA RESULT:      -7.3      1.744      2.154
REMARK  Name = 
REMARK  6 active torsions:
REMARK  status: ('A' for Active; 'I' for Inactive)
REMARK    1  A    between atoms: C_1  and  N_2
REMARK    2  A    between atoms: N_2  and  C_3
REMARK    3  A    between atoms: N_2  and  C_4
REMARK    4  A    between atoms: C_4  and  C_5
REMARK    5  A    between atoms: C_8  and  C_9
REMARK    6  A    between atoms: C_16  and  C_17
REMARK                            x       y       z     vdW  Elec       q    Type
REMARK                         _______ _______ _______ _____ _____    ______ ____
ROOT
ATOM      1  C   UNL     1       2.670   7.072  18.331  0.00  0.00    +0.000 A 
ATOM      2  C   UNL     1       3.852   7.427  17.494  0.00  0.00    +0.000 A 
ATOM      3  C   UNL     1       4.547   6.427  16.944  0.00  0.00    +0.000 A 
ATOM      4  C   UNL     1       4.150   5.093  17.188  0.00  0.00    +0.000 A 
ATOM      5  C   UNL     1       4.633   3.871  16.783  0.00  0.00    +0.000 A 
ATOM      6 CL   UNL     1       5.961   3.559  15.770  0.00  0.00    +0.000 Cl
ATOM      7  C   UNL     1       3.817   2.883  17.361  0.00  0.00    +0.000 A 
ATOM      8  C   UNL     1       2.834   3.514  18.115  0.00  0.00    +0.000 A 
ATOM      9  N   UNL     1       3.055   4.877  18.005  0.00  0.00    +0.000 N 
ATOM     10  N   UNL     1       2.293   5.854  18.600  0.00  0.00    +0.000 NA
ENDROOT
BRANCH   1  14
ATOM     11  C   UNL     1       0.360  10.320  19.969  0.00  0.00    +0.000 A 
ATOM     12  C   UNL     1       0.688  10.305  18.607  0.00  0.00    +0.000 A 
ATOM     13  C   UNL     1       1.441   9.261  18.067  0.00  0.00    +0.000 A 
ATOM     14  C   UNL     1       1.898   8.222  18.889  0.00  0.00    +0.000 A 
ATOM     15  C   UNL     1       1.589   8.240  20.254  0.00  0.00    +0.000 A 
ATOM     16  C   UNL     1       0.832   9.286  20.791  0.00  0.00    +0.000 A 
BRANCH  11  17
ATOM     17  C   UNL     1      -0.535  11.409  20.530  0.00  0.00    +0.000 C 
BRANCH  17  19
ATOM     18  C   UNL     1      -2.596  12.178  19.482  0.00  0.00    +0.000 C 
ATOM     19  N   UNL     1      -1.132  12.263  19.486  0.00  0.00    +0.000 NA
ATOM     20  C   UNL     1      -0.727  13.657  19.681  0.00  0.00    +0.000 C 
ENDBRANCH  17  19
ENDBRANCH  11  17
ENDBRANCH   1  14
BRANCH   8  21
ATOM     21  C   UNL     1       1.788   2.847  18.852  0.00  0.00    +0.000 C 
ATOM     22  N   UNL     1       1.875   2.883  20.210  0.00  0.00    +0.000 N 
ATOM     23  O   UNL     1       0.842   2.269  18.325  0.00  0.00    +0.000 OA
ATOM     24  H   UNL     1       2.620   3.399  20.667  0.00  0.00    +0.000 HD
ATOM     25  H   UNL     1       1.130   2.470  20.751  0.00  0.00    +0.000 HD
ENDBRANCH   8  21
TORSDOF 4
ENDMDL
MODEL 9
REMARK VINA RESULT:      -7.2      0.899      1.034
REMARK  Name = 
REMARK  6 active torsions:
REMARK  status: ('A' for Active; 'I' for Inactive)
REMARK    1  A    between atoms: C_1  and  N_2
REMARK    2  A    between atoms: N_2  and  C_3
REMARK    3  A    between atoms: N_2  and  C_4
REMARK    4  A    between atoms: C_4  and  C_5
REMARK    5  A    between atoms: C_8  and  C_9
REMARK    6  A    between atoms: C_16  and  C_17
REMARK                            x       y       z     vdW  Elec       q    Type
REMARK                         _______ _______ _______ _____ _____    ______ ____
ROOT
ATOM      1  C   UNL     1       1.562   7.843  20.017  0.00  0.00    +0.000 A 
ATOM      2  C   UNL     1       2.289   8.308  18.801  0.00  0.00    +0.000 A 
ATOM      3  C   UNL     1       2.963   7.396  18.095  0.00  0.00    +0.000 A 
ATOM      4  C   UNL     1       2.975   6.052  18.532  0.00  0.00    +0.000 A 
ATOM      5  C   UNL     1       3.552   4.903  18.046  0.00  0.00    +0.000 A 
ATOM      6 CL   UNL     1       4.501   4.722  16.649  0.00  0.00    +0.000 Cl
ATOM      7  C   UNL     1       3.214   3.859  18.926  0.00  0.00    +0.000 A 
ATOM      8  C   UNL     1       2.425   4.382  19.943  0.00  0.00    +0.000 A 
ATOM      9  N   UNL     1       2.290   5.737  19.692  0.00  0.00    +0.000 N 
ATOM     10  N   UNL     1       1.574   6.620  20.465  0.00  0.00    +0.000 NA
ENDROOT
BRANCH   1  14
ATOM     11  C   UNL     1      -0.585  10.917  22.142  0.00  0.00    +0.000 A 
ATOM     12  C   UNL     1      -0.480   9.628  22.683  0.00  0.00    +0.000 A 
ATOM     13  C   UNL     1       0.207   8.623  21.999  0.00  0.00    +0.000 A 
ATOM     14  C   UNL     1       0.786   8.887  20.751  0.00  0.00    +0.000 A 
ATOM     15  C   UNL     1       0.670  10.168  20.197  0.00  0.00    +0.000 A 
ATOM     16  C   UNL     1      -0.017  11.173  20.885  0.00  0.00    +0.000 A 
BRANCH  11  17
ATOM     17  C   UNL     1      -1.254  12.027  22.932  0.00  0.00    +0.000 C 
BRANCH  17  19
ATOM     18  C   UNL     1      -3.442  12.475  23.908  0.00  0.00    +0.000 C 
ATOM     19  N   UNL     1      -2.707  12.114  22.691  0.00  0.00    +0.000 NA
ATOM     20  C   UNL     1      -2.988  13.098  21.644  0.00  0.00    +0.000 C 
ENDBRANCH  17  19
ENDBRANCH  11  17
ENDBRANCH   1  14
BRANCH   8  21
ATOM     21  C   UNL     1       1.858   3.628  21.035  0.00  0.00    +0.000 C 
ATOM     22  N   UNL     1       0.685   2.981  20.791  0.00  0.00    +0.000 N 
ATOM     23  O   UNL     1       2.374   3.539  22.145  0.00  0.00    +0.000 OA
ATOM     24  H   UNL     1       0.267   2.998  19.867  0.00  0.00    +0.000 HD
ATOM     25  H   UNL     1       0.294   2.404  21.520  0.00  0.00    +0.000 HD
ENDBRANCH   8  21
TORSDOF 4
ENDMDL
