MODEL 1
REMARK VINA RESULT:      -7.2      0.000      0.000
REMARK  Name = 
REMARK  4 active torsions:
REMARK  status: ('A' for Active; 'I' for Inactive)
REMARK    1  A    between atoms: C_1  and  C_2
REMARK    2  A    between atoms: C_5  and  C_6
REMARK    3  A    between atoms: C_7  and  C_8
REMARK    4  A    between atoms: C_13  and  C_15
REMARK                            x       y       z     vdW  Elec       q    Type
REMARK                         _______ _______ _______ _____ _____    ______ ____
ROOT
ATOM      1  C   UNL     1       3.943   6.226  16.920  0.00  0.00    +0.000 C 
ATOM      2  C   UNL     1       3.991   7.759  16.964  0.00  0.00    +0.000 C 
ATOM      3  C   UNL     1       2.901   8.095  17.971  0.00  0.00    +0.000 C 
ATOM      4  C   UNL     1       2.960   6.950  18.979  0.00  0.00    +0.000 C 
ATOM      5  N   UNL     1       3.673   5.863  18.328  0.00  0.00    +0.000 N 
ATOM      6  C   UNL     1       3.838   4.586  18.825  0.00  0.00    +0.000 C 
ATOM      7  O   UNL     1       4.518   3.743  18.230  0.00  0.00    +0.000 OA
ENDROOT
BRANCH   1  14
ATOM      8  C   UNL     1       5.783   3.616  13.036  0.00  0.00    +0.000 C 
ATOM      9  C   UNL     1       6.035   4.349  14.319  0.00  0.00    +0.000 A 
ATOM     10  C   UNL     1       7.332   4.597  14.763  0.00  0.00    +0.000 A 
ATOM     11  C   UNL     1       7.547   5.346  15.917  0.00  0.00    +0.000 A 
ATOM     12  C   UNL     1       6.468   5.882  16.641  0.00  0.00    +0.000 A 
ATOM     13  C   UNL     1       6.785   6.725  17.848  0.00  0.00    +0.000 C 
ATOM     14  C   UNL     1       5.142   5.623  16.212  0.00  0.00    +0.000 A 
ATOM     15  C   UNL     1       4.949   4.820  15.073  0.00  0.00    +0.000 A 
ENDBRANCH   1  14
BRANCH   6  16
ATOM     16  C   UNL     1       3.028   4.104  20.028  0.00  0.00    +0.000 C 
ATOM     17  C   UNL     1       3.108   2.720  20.674  0.00  0.00    +0.000 C 
ATOM     18  C   UNL     1       1.631   2.392  20.954  0.00  0.00    +0.000 C 
ATOM     19  C   UNL     1       0.975   1.852  19.693  0.00  0.00    +0.000 C 
ATOM     20  C   UNL     1       1.033   3.084  18.787  0.00  0.00    +0.000 C 
ATOM     21  C   UNL     1       1.518   4.186  19.748  0.00  0.00    +0.000 C 
ATOM     22  O   UNL     1       1.018   3.697  21.020  0.00  0.00    +0.000 OA
ENDBRANCH   6  16
TORSDOF 2
ENDMDL
MODEL 2
REMARK VINA RESULT:      -6.9      0.821      1.304
REMARK  Name = 
REMARK  4 active torsions:
REMARK  status: ('A' for Active; 'I' for Inactive)
REMARK    1  A    between atoms: C_1  and  C_2
REMARK    2  A    between atoms: C_5  and  C_6
REMARK    3  A    between atoms: C_7  and  C_8
REMARK    4  A    between atoms: C_13  and  C_15
REMARK                            x       y       z     vdW  Elec       q    Type
REMARK                         _______ _______ _______ _____ _____    ______ ____
ROOT
ATOM      1  C   UNL     1       3.868   6.239  16.789  0.00  0.00    +0.000 C 
ATOM      2  C   UNL     1       4.147   7.691  17.201  0.00  0.00    +0.000 C 
ATOM      3  C   UNL     1       2.902   8.052  18.000  0.00  0.00    +0.000 C 
ATOM      4  C   UNL     1       2.519   6.750  18.700  0.00  0.00    +0.000 C 
ATOM      5  N   UNL     1       3.193   5.681  17.981  0.00  0.00    +0.000 N 
ATOM      6  C   UNL     1       3.021   4.327  18.188  0.00  0.00    +0.000 C 
ATOM      7  O   UNL     1       3.687   3.489  17.572  0.00  0.00    +0.000 OA
ENDROOT
BRANCH   1  14
ATOM      8  C   UNL     1       6.122   3.892  12.956  0.00  0.00    +0.000 C 
ATOM      9  C   UNL     1       6.191   4.397  14.365  0.00  0.00    +0.000 A 
ATOM     10  C   UNL     1       7.386   4.365  15.083  0.00  0.00    +0.000 A 
ATOM     11  C   UNL     1       7.448   4.909  16.363  0.00  0.00    +0.000 A 
ATOM     12  C   UNL     1       6.324   5.518  16.946  0.00  0.00    +0.000 A 
ATOM     13  C   UNL     1       6.487   6.131  18.311  0.00  0.00    +0.000 C 
ATOM     14  C   UNL     1       5.097   5.543  16.235  0.00  0.00    +0.000 A 
ATOM     15  C   UNL     1       5.045   4.940  14.965  0.00  0.00    +0.000 A 
ENDBRANCH   1  14
BRANCH   6  16
ATOM     16  C   UNL     1       1.864   3.808  19.041  0.00  0.00    +0.000 C 
ATOM     17  C   UNL     1       1.349   4.433  20.339  0.00  0.00    +0.000 C 
ATOM     18  C   UNL     1       1.094   3.203  21.228  0.00  0.00    +0.000 C 
ATOM     19  C   UNL     1       2.397   2.752  21.869  0.00  0.00    +0.000 C 
ATOM     20  C   UNL     1       3.185   2.303  20.637  0.00  0.00    +0.000 C 
ATOM     21  C   UNL     1       2.128   2.370  19.518  0.00  0.00    +0.000 C 
ATOM     22  O   UNL     1       0.904   2.144  20.266  0.00  0.00    +0.000 OA
ENDBRANCH   6  16
TORSDOF 2
ENDMDL
MODEL 3
REMARK VINA RESULT:      -6.8      1.151      2.409
REMARK  Name = 
REMARK  4 active torsions:
REMARK  status: ('A' for Active; 'I' for Inactive)
REMARK    1  A    between atoms: C_1  and  C_2
REMARK    2  A    between atoms: C_5  and  C_6
REMARK    3  A    between atoms: C_7  and  C_8
REMARK    4  A    between atoms: C_13  and  C_15
REMARK                            x       y       z     vdW  Elec       q    Type
REMARK                         _______ _______ _______ _____ _____    ______ ____
ROOT
ATOM      1  C   UNL     1       3.625   6.895  17.578  0.00  0.00    +0.000 C 
ATOM      2  C   UNL     1       3.170   8.360  17.559  0.00  0.00    +0.000 C 
ATOM      3  C   UNL     1       1.813   8.293  18.244  0.00  0.00    +0.000 C 
ATOM      4  C   UNL     1       1.978   7.192  19.289  0.00  0.00    +0.000 C 
ATOM      5  N   UNL     1       3.140   6.414  18.889  0.00  0.00    +0.000 N 
ATOM      6  C   UNL     1       3.572   5.240  19.472  0.00  0.00    +0.000 C 
ATOM      7  O   UNL     1       4.611   4.681  19.107  0.00  0.00    +0.000 OA
ENDROOT
BRANCH   1  14
ATOM      8  C   UNL     1       8.389   8.388  18.178  0.00  0.00    +0.000 C 
ATOM      9  C   UNL     1       7.411   7.466  17.515  0.00  0.00    +0.000 A 
ATOM     10  C   UNL     1       7.847   6.405  16.722  0.00  0.00    +0.000 A 
ATOM     11  C   UNL     1       6.926   5.514  16.177  0.00  0.00    +0.000 A 
ATOM     12  C   UNL     1       5.551   5.650  16.432  0.00  0.00    +0.000 A 
ATOM     13  C   UNL     1       4.625   4.614  15.850  0.00  0.00    +0.000 C 
ATOM     14  C   UNL     1       5.090   6.733  17.222  0.00  0.00    +0.000 A 
ATOM     15  C   UNL     1       6.035   7.651  17.718  0.00  0.00    +0.000 A 
ENDBRANCH   1  14
BRANCH   6  16
ATOM     16  C   UNL     1       2.681   4.482  20.457  0.00  0.00    +0.000 C 
ATOM     17  C   UNL     1       2.981   3.116  21.077  0.00  0.00    +0.000 C 
ATOM     18  C   UNL     1       1.615   2.410  21.016  0.00  0.00    +0.000 C 
ATOM     19  C   UNL     1       1.401   1.822  19.631  0.00  0.00    +0.000 C 
ATOM     20  C   UNL     1       1.325   3.095  18.784  0.00  0.00    +0.000 C 
ATOM     21  C   UNL     1       1.294   4.206  19.851  0.00  0.00    +0.000 C 
ATOM     22  O   UNL     1       0.684   3.513  20.971  0.00  0.00    +0.000 OA
ENDBRANCH   6  16
TORSDOF 2
ENDMDL
MODEL 4
REMARK VINA RESULT:      -6.7      1.444      6.120
REMARK  Name = 
REMARK  4 active torsions:
REMARK  status: ('A' for Active; 'I' for Inactive)
REMARK    1  A    between atoms: C_1  and  C_2
REMARK    2  A    between atoms: C_5  and  C_6
REMARK    3  A    between atoms: C_7  and  C_8
REMARK    4  A    between atoms: C_13  and  C_15
REMARK                            x       y       z     vdW  Elec       q    Type
REMARK                         _______ _______ _______ _____ _____    ______ ____
ROOT
ATOM      1  C   UNL     1       2.864   6.032  19.028  0.00  0.00    +0.000 C 
ATOM      2  C   UNL     1       1.831   7.147  18.815  0.00  0.00    +0.000 C 
ATOM      3  C   UNL     1       2.664   8.253  18.183  0.00  0.00    +0.000 C 
ATOM      4  C   UNL     1       3.688   7.506  17.331  0.00  0.00    +0.000 C 
ATOM      5  N   UNL     1       3.718   6.139  17.826  0.00  0.00    +0.000 N 
ATOM      6  C   UNL     1       4.601   5.152  17.434  0.00  0.00    +0.000 C 
ATOM      7  O   UNL     1       4.510   3.997  17.862  0.00  0.00    +0.000 OA
ENDROOT
BRANCH   1  14
ATOM      8  C   UNL     1       1.849   2.503  22.462  0.00  0.00    +0.000 C 
ATOM      9  C   UNL     1       1.734   2.981  21.047  0.00  0.00    +0.000 A 
ATOM     10  C   UNL     1       0.941   2.304  20.122  0.00  0.00    +0.000 A 
ATOM     11  C   UNL     1       0.785   2.806  18.833  0.00  0.00    +0.000 A 
ATOM     12  C   UNL     1       1.400   4.009  18.446  0.00  0.00    +0.000 A 
ATOM     13  C   UNL     1       1.139   4.514  17.052  0.00  0.00    +0.000 C 
ATOM     14  C   UNL     1       2.224   4.700  19.370  0.00  0.00    +0.000 A 
ATOM     15  C   UNL     1       2.408   4.145  20.651  0.00  0.00    +0.000 A 
ENDBRANCH   1  14
BRANCH   6  16
ATOM     16  C   UNL     1       5.842   5.495  16.610  0.00  0.00    +0.000 C 
ATOM     17  C   UNL     1       5.854   6.163  15.234  0.00  0.00    +0.000 C 
ATOM     18  C   UNL     1       6.939   5.370  14.484  0.00  0.00    +0.000 C 
ATOM     19  C   UNL     1       6.349   4.079  13.939  0.00  0.00    +0.000 C 
ATOM     20  C   UNL     1       6.022   3.339  15.239  0.00  0.00    +0.000 C 
ATOM     21  C   UNL     1       6.673   4.237  16.309  0.00  0.00    +0.000 C 
ATOM     22  O   UNL     1       7.753   4.846  15.554  0.00  0.00    +0.000 OA
ENDBRANCH   6  16
TORSDOF 2
ENDMDL
MODEL 5
REMARK VINA RESULT:      -6.7      7.702     10.965
REMARK  Name = 
REMARK  4 active torsions:
REMARK  status: ('A' for Active; 'I' for Inactive)
REMARK    1  A    between atoms: C_1  and  C_2
REMARK    2  A    between atoms: C_5  and  C_6
REMARK    3  A    between atoms: C_7  and  C_8
REMARK    4  A    between atoms: C_13  and  C_15
REMARK                            x       y       z     vdW  Elec       q    Type
REMARK                         _______ _______ _______ _____ _____    ______ ____
ROOT
ATOM      1  C   UNL     1      -0.892  11.946  20.444  0.00  0.00    +0.000 C 
ATOM      2  C   UNL     1      -1.714  11.839  21.735  0.00  0.00    +0.000 C 
ATOM      3  C   UNL     1      -0.949  12.744  22.690  0.00  0.00    +0.000 C 
ATOM      4  C   UNL     1      -0.420  13.864  21.797  0.00  0.00    +0.000 C 
ATOM      5  N   UNL     1      -0.479  13.366  20.431  0.00  0.00    +0.000 N 
ATOM      6  C   UNL     1       0.028  13.997  19.313  0.00  0.00    +0.000 C 
ATOM      7  O   UNL     1      -0.127  13.528  18.181  0.00  0.00    +0.000 OA
ENDROOT
BRANCH   1  14
ATOM      8  C   UNL     1      -4.942  11.924  17.463  0.00  0.00    +0.000 C 
ATOM      9  C   UNL     1      -3.592  11.361  17.792  0.00  0.00    +0.000 A 
ATOM     10  C   UNL     1      -2.964  10.455  16.940  0.00  0.00    +0.000 A 
ATOM     11  C   UNL     1      -1.678  10.003  17.223  0.00  0.00    +0.000 A 
ATOM     12  C   UNL     1      -0.983  10.463  18.355  0.00  0.00    +0.000 A 
ATOM     13  C   UNL     1       0.423   9.966  18.563  0.00  0.00    +0.000 C 
ATOM     14  C   UNL     1      -1.615  11.371  19.241  0.00  0.00    +0.000 A 
ATOM     15  C   UNL     1      -2.935  11.774  18.961  0.00  0.00    +0.000 A 
ENDBRANCH   1  14
BRANCH   6  16
ATOM     16  C   UNL     1       0.967  15.195  19.450  0.00  0.00    +0.000 C 
ATOM     17  C   UNL     1       1.148  16.321  18.430  0.00  0.00    +0.000 C 
ATOM     18  C   UNL     1       2.671  16.538  18.432  0.00  0.00    +0.000 C 
ATOM     19  C   UNL     1       3.340  15.510  17.534  0.00  0.00    +0.000 C 
ATOM     20  C   UNL     1       3.035  14.218  18.295  0.00  0.00    +0.000 C 
ATOM     21  C   UNL     1       2.427  14.739  19.612  0.00  0.00    +0.000 C 
ATOM     22  O   UNL     1       3.066  16.038  19.728  0.00  0.00    +0.000 OA
ENDBRANCH   6  16
TORSDOF 2
ENDMDL
MODEL 6
REMARK VINA RESULT:      -6.6      1.175      2.587
REMARK  Name = 
REMARK  4 active torsions:
REMARK  status: ('A' for Active; 'I' for Inactive)
REMARK    1  A    between atoms: C_1  and  C_2
REMARK    2  A    between atoms: C_5  and  C_6
REMARK    3  A    between atoms: C_7  and  C_8
REMARK    4  A    between atoms: C_13  and  C_15
REMARK                            x       y       z     vdW  Elec       q    Type
REMARK                         _______ _______ _______ _____ _____    ______ ____
ROOT
ATOM      1  C   UNL     1       4.124   6.452  17.089  0.00  0.00    +0.000 C 
ATOM      2  C   UNL     1       4.123   7.967  17.338  0.00  0.00    +0.000 C 
ATOM      3  C   UNL     1       2.649   8.260  17.581  0.00  0.00    +0.000 C 
ATOM      4  C   UNL     1       2.135   7.014  18.297  0.00  0.00    +0.000 C 
ATOM      5  N   UNL     1       3.103   5.960  18.038  0.00  0.00    +0.000 N 
ATOM      6  C   UNL     1       2.968   4.630  18.382  0.00  0.00    +0.000 C 
ATOM      7  O   UNL     1       3.874   3.815  18.180  0.00  0.00    +0.000 OA
ENDROOT
BRANCH   1  14
ATOM      8  C   UNL     1       8.360   5.541  19.639  0.00  0.00    +0.000 C 
ATOM      9  C   UNL     1       7.583   5.416  18.364  0.00  0.00    +0.000 A 
ATOM     10  C   UNL     1       8.061   4.651  17.302  0.00  0.00    +0.000 A 
ATOM     11  C   UNL     1       7.289   4.484  16.155  0.00  0.00    +0.000 A 
ATOM     12  C   UNL     1       6.012   5.060  16.054  0.00  0.00    +0.000 A 
ATOM     13  C   UNL     1       5.218   4.789  14.803  0.00  0.00    +0.000 C 
ATOM     14  C   UNL     1       5.518   5.856  17.118  0.00  0.00    +0.000 A 
ATOM     15  C   UNL     1       6.338   6.053  18.245  0.00  0.00    +0.000 A 
ENDBRANCH   1  14
BRANCH   6  16
ATOM     16  C   UNL     1       1.621   4.075  18.845  0.00  0.00    +0.000 C 
ATOM     17  C   UNL     1       0.876   4.464  20.123  0.00  0.00    +0.000 C 
ATOM     18  C   UNL     1       0.354   3.110  20.635  0.00  0.00    +0.000 C 
ATOM     19  C   UNL     1       1.453   2.391  21.401  0.00  0.00    +0.000 C 
ATOM     20  C   UNL     1       2.461   2.127  20.281  0.00  0.00    +0.000 C 
ATOM     21  C   UNL     1       1.681   2.548  19.020  0.00  0.00    +0.000 C 
ATOM     22  O   UNL     1       0.312   2.306  19.437  0.00  0.00    +0.000 OA
ENDBRANCH   6  16
TORSDOF 2
ENDMDL
MODEL 7
REMARK VINA RESULT:      -6.5      2.028      6.154
REMARK  Name = 
REMARK  4 active torsions:
REMARK  status: ('A' for Active; 'I' for Inactive)
REMARK    1  A    between atoms: C_1  and  C_2
REMARK    2  A    between atoms: C_5  and  C_6
REMARK    3  A    between atoms: C_7  and  C_8
REMARK    4  A    between atoms: C_13  and  C_15
REMARK                            x       y       z     vdW  Elec       q    Type
REMARK                         _______ _______ _______ _____ _____    ______ ____
ROOT
ATOM      1  C   UNL     1       2.107   4.881  18.144  0.00  0.00    +0.000 C 
ATOM      2  C   UNL     1       1.246   3.753  18.728  0.00  0.00    +0.000 C 
ATOM      3  C   UNL     1       1.797   2.520  18.027  0.00  0.00    +0.000 C 
ATOM      4  C   UNL     1       3.287   2.817  17.868  0.00  0.00    +0.000 C 
ATOM      5  N   UNL     1       3.441   4.254  18.028  0.00  0.00    +0.000 N 
ATOM      6  C   UNL     1       4.601   4.974  17.827  0.00  0.00    +0.000 C 
ATOM      7  O   UNL     1       4.655   6.188  18.050  0.00  0.00    +0.000 OA
ENDROOT
BRANCH   1  14
ATOM      8  C   UNL     1       1.351   9.852  18.069  0.00  0.00    +0.000 C 
ATOM      9  C   UNL     1       1.594   8.607  18.866  0.00  0.00    +0.000 A 
ATOM     10  C   UNL     1       1.536   8.622  20.259  0.00  0.00    +0.000 A 
ATOM     11  C   UNL     1       1.689   7.441  20.979  0.00  0.00    +0.000 A 
ATOM     12  C   UNL     1       1.881   6.213  20.323  0.00  0.00    +0.000 A 
ATOM     13  C   UNL     1       1.985   4.973  21.171  0.00  0.00    +0.000 C 
ATOM     14  C   UNL     1       1.961   6.183  18.907  0.00  0.00    +0.000 A 
ATOM     15  C   UNL     1       1.855   7.398  18.204  0.00  0.00    +0.000 A 
ENDBRANCH   1  14
BRANCH   6  16
ATOM     16  C   UNL     1       5.807   4.338  17.135  0.00  0.00    +0.000 C 
ATOM     17  C   UNL     1       7.199   4.957  17.000  0.00  0.00    +0.000 C 
ATOM     18  C   UNL     1       7.586   4.605  15.553  0.00  0.00    +0.000 C 
ATOM     19  C   UNL     1       6.962   5.606  14.594  0.00  0.00    +0.000 C 
ATOM     20  C   UNL     1       5.474   5.300  14.785  0.00  0.00    +0.000 C 
ATOM     21  C   UNL     1       5.501   4.032  15.659  0.00  0.00    +0.000 C 
ATOM     22  O   UNL     1       6.772   3.445  15.275  0.00  0.00    +0.000 OA
ENDBRANCH   6  16
TORSDOF 2
ENDMDL
MODEL 8
REMARK VINA RESULT:      -6.4      5.956      8.911
REMARK  Name = 
REMARK  4 active torsions:
REMARK  status: ('A' for Active; 'I' for Inactive)
REMARK    1  A    between atoms: C_1  and  C_2
REMARK    2  A    between atoms: C_5  and  C_6
REMARK    3  A    between atoms: C_7  and  C_8
REMARK    4  A    between atoms: C_13  and  C_15
REMARK                            x       y       z     vdW  Elec       q    Type
REMARK                         _______ _______ _______ _____ _____    ______ ____
ROOT
ATOM      1  C   UNL     1       0.922  11.451  18.943  0.00  0.00    +0.000 C 
ATOM      2  C   UNL     1       1.640  12.705  19.461  0.00  0.00    +0.000 C 
ATOM      3  C   UNL     1       1.090  13.798  18.556  0.00  0.00    +0.000 C 
ATOM      4  C   UNL     1      -0.352  13.371  18.291  0.00  0.00    +0.000 C 
ATOM      5  N   UNL     1      -0.429  11.955  18.617  0.00  0.00    +0.000 N 
ATOM      6  C   UNL     1      -1.513  11.129  18.397  0.00  0.00    +0.000 C 
ATOM      7  O   UNL     1      -1.512   9.951  18.767  0.00  0.00    +0.000 OA
ENDROOT
BRANCH   1  14
ATOM      8  C   UNL     1       0.107   9.411  23.466  0.00  0.00    +0.000 C 
ATOM      9  C   UNL     1       0.672   9.275  22.084  0.00  0.00    +0.000 A 
ATOM     10  C   UNL     1       1.175   8.058  21.629  0.00  0.00    +0.000 A 
ATOM     11  C   UNL     1       1.625   7.933  20.317  0.00  0.00    +0.000 A 
ATOM     12  C   UNL     1       1.562   9.016  19.425  0.00  0.00    +0.000 A 
ATOM     13  C   UNL     1       2.018   8.785  18.008  0.00  0.00    +0.000 C 
ATOM     14  C   UNL     1       1.069  10.266  19.878  0.00  0.00    +0.000 A 
ATOM     15  C   UNL     1       0.669  10.382  21.222  0.00  0.00    +0.000 A 
ENDBRANCH   1  14
BRANCH   6  16
ATOM     16  C   UNL     1      -2.675  11.582  17.514  0.00  0.00    +0.000 C 
ATOM     17  C   UNL     1      -4.124  11.100  17.613  0.00  0.00    +0.000 C 
ATOM     18  C   UNL     1      -4.525  10.929  16.137  0.00  0.00    +0.000 C 
ATOM     19  C   UNL     1      -4.031   9.588  15.621  0.00  0.00    +0.000 C 
ATOM     20  C   UNL     1      -2.516   9.791  15.690  0.00  0.00    +0.000 C 
ATOM     21  C   UNL     1      -2.393  11.288  16.031  0.00  0.00    +0.000 C 
ATOM     22  O   UNL     1      -3.615  11.816  15.452  0.00  0.00    +0.000 OA
ENDBRANCH   6  16
TORSDOF 2
ENDMDL
MODEL 9
REMARK VINA RESULT:      -6.3      9.130     11.717
REMARK  Name = 
REMARK  4 active torsions:
REMARK  status: ('A' for Active; 'I' for Inactive)
REMARK    1  A    between atoms: C_1  and  C_2
REMARK    2  A    between atoms: C_5  and  C_6
REMARK    3  A    between atoms: C_7  and  C_8
REMARK    4  A    between atoms: C_13  and  C_15
REMARK                            x       y       z     vdW  Elec       q    Type
REMARK                         _______ _______ _______ _____ _____    ______ ____
ROOT
ATOM      1  C   UNL     1       9.799  14.190  17.652  0.00  0.00    +0.000 C 
ATOM      2  C   UNL     1      11.224  14.543  17.206  0.00  0.00    +0.000 C 
ATOM      3  C   UNL     1      11.069  15.972  16.704  0.00  0.00    +0.000 C 
ATOM      4  C   UNL     1      10.008  16.575  17.622  0.00  0.00    +0.000 C 
ATOM      5  N   UNL     1       9.313  15.457  18.241  0.00  0.00    +0.000 N 
ATOM      6  C   UNL     1       8.190  15.539  19.038  0.00  0.00    +0.000 C 
ATOM      7  O   UNL     1       7.705  14.539  19.576  0.00  0.00    +0.000 OA
ENDROOT
BRANCH   1  14
ATOM      8  C   UNL     1       8.373   9.385  18.053  0.00  0.00    +0.000 C 
ATOM      9  C   UNL     1       9.044  10.576  18.668  0.00  0.00    +0.000 A 
ATOM     10  C   UNL     1       9.721  10.473  19.881  0.00  0.00    +0.000 A 
ATOM     11  C   UNL     1      10.403  11.571  20.399  0.00  0.00    +0.000 A 
ATOM     12  C   UNL     1      10.441  12.791  19.702  0.00  0.00    +0.000 A 
ATOM     13  C   UNL     1      11.244  13.915  20.302  0.00  0.00    +0.000 C 
ATOM     14  C   UNL     1       9.743  12.917  18.475  0.00  0.00    +0.000 A 
ATOM     15  C   UNL     1       9.018  11.809  17.999  0.00  0.00    +0.000 A 
ENDBRANCH   1  14
BRANCH   6  16
ATOM     16  C   UNL     1       7.389  16.837  19.129  0.00  0.00    +0.000 C 
ATOM     17  C   UNL     1       7.702  18.030  20.036  0.00  0.00    +0.000 C 
ATOM     18  C   UNL     1       6.311  18.437  20.551  0.00  0.00    +0.000 C 
ATOM     19  C   UNL     1       5.914  17.551  21.720  0.00  0.00    +0.000 C 
ATOM     20  C   UNL     1       5.793  16.193  21.027  0.00  0.00    +0.000 C 
ATOM     21  C   UNL     1       5.931  16.563  19.537  0.00  0.00    +0.000 C 
ATOM     22  O   UNL     1       5.427  17.924  19.531  0.00  0.00    +0.000 OA
ENDBRANCH   6  16
TORSDOF 2
ENDMDL
