MODEL 1
REMARK VINA RESULT:      -8.4      0.000      0.000
REMARK  Name = 
REMARK  6 active torsions:
REMARK  status: ('A' for Active; 'I' for Inactive)
REMARK    1  A    between atoms: C_1  and  O_2
REMARK    2  A    between atoms: O_2  and  C_3
REMARK    3  A    between atoms: C_7  and  C_8
REMARK    4  A    between atoms: C_8  and  N_9
REMARK    5  A    between atoms: C_15  and  C_16
REMARK    6  A    between atoms: C_19  and  C_20
REMARK                            x       y       z     vdW  Elec       q    Type
REMARK                         _______ _______ _______ _____ _____    ______ ____
ROOT
ATOM      1  N   UNL     1       3.408   5.316  18.444  0.00  0.00    +0.000 N 
ATOM      2  C   UNL     1       2.450   4.368  18.130  0.00  0.00    +0.000 A 
ATOM      3  O   UNL     1       1.414   4.147  18.745  0.00  0.00    +0.000 OA
ATOM      4  C   UNL     1       2.725   3.523  16.921  0.00  0.00    +0.000 A 
ATOM      5  N   UNL     1       3.744   3.685  16.143  0.00  0.00    +0.000 NA
ATOM      6  C   UNL     1       4.633   4.742  16.444  0.00  0.00    +0.000 A 
ATOM      7  C   UNL     1       5.709   5.073  15.628  0.00  0.00    +0.000 A 
ATOM      8  N   UNL     1       6.592   6.062  15.912  0.00  0.00    +0.000 NA
ATOM      9  C   UNL     1       6.357   6.775  17.009  0.00  0.00    +0.000 A 
ATOM     10  N   UNL     1       7.166   7.857  17.245  0.00  0.00    +0.000 N 
ATOM     11  N   UNL     1       5.372   6.538  17.876  0.00  0.00    +0.000 NA
ATOM     12  C   UNL     1       4.515   5.536  17.581  0.00  0.00    +0.000 A 
ATOM     13  H   UNL     1       8.040   7.822  16.741  0.00  0.00    +0.000 HD
ATOM     14  H   UNL     1       7.149   8.189  18.195  0.00  0.00    +0.000 HD
ENDROOT
BRANCH   7  15
ATOM     15  C   UNL     1       5.964   4.426  14.344  0.00  0.00    +0.000 A 
ATOM     16  C   UNL     1       7.105   4.084  13.644  0.00  0.00    +0.000 A 
ATOM     17  C   UNL     1       6.679   3.521  12.414  0.00  0.00    +0.000 A 
ATOM     18  C   UNL     1       5.302   3.573  12.424  0.00  0.00    +0.000 A 
ATOM     19  C   UNL     1       4.255   3.177  11.463  0.00  0.00    +0.000 C 
ATOM     20  O   UNL     1       4.864   4.126  13.588  0.00  0.00    +0.000 OA
ENDBRANCH   7  15
BRANCH   1  21
ATOM     21  C   UNL     1       3.281   6.060  19.687  0.00  0.00    +0.000 C 
BRANCH  21  26
ATOM     22  C   UNL     1       0.865   8.940  20.374  0.00  0.00    +0.000 A 
ATOM     23  C   UNL     1       0.801   9.541  19.115  0.00  0.00    +0.000 A 
ATOM     24  C   UNL     1       1.557   9.049  18.052  0.00  0.00    +0.000 A 
ATOM     25  C   UNL     1       2.378   7.939  18.240  0.00  0.00    +0.000 A 
ATOM     26  C   UNL     1       2.458   7.319  19.496  0.00  0.00    +0.000 A 
ATOM     27  C   UNL     1       1.707   7.839  20.562  0.00  0.00    +0.000 A 
BRANCH  22  29
ATOM     28  C   UNL     1       0.472   9.379  22.675  0.00  0.00    +0.000 C 
ATOM     29  O   UNL     1       0.056   9.500  21.321  0.00  0.00    +0.000 OA
ENDBRANCH  22  29
ENDBRANCH  21  26
ENDBRANCH   1  21
TORSDOF 4
ENDMDL
MODEL 2
REMARK VINA RESULT:      -8.3      0.985      1.642
REMARK  Name = 
REMARK  6 active torsions:
REMARK  status: ('A' for Active; 'I' for Inactive)
REMARK    1  A    between atoms: C_1  and  O_2
REMARK    2  A    between atoms: O_2  and  C_3
REMARK    3  A    between atoms: C_7  and  C_8
REMARK    4  A    between atoms: C_8  and  N_9
REMARK    5  A    between atoms: C_15  and  C_16
REMARK    6  A    between atoms: C_19  and  C_20
REMARK                            x       y       z     vdW  Elec       q    Type
REMARK                         _______ _______ _______ _____ _____    ______ ____
ROOT
ATOM      1  N   UNL     1       3.653   5.039  18.437  0.00  0.00    +0.000 N 
ATOM      2  C   UNL     1       2.670   4.121  18.112  0.00  0.00    +0.000 A 
ATOM      3  O   UNL     1       1.656   3.881  18.756  0.00  0.00    +0.000 OA
ATOM      4  C   UNL     1       2.885   3.339  16.850  0.00  0.00    +0.000 A 
ATOM      5  N   UNL     1       3.875   3.530  16.041  0.00  0.00    +0.000 NA
ATOM      6  C   UNL     1       4.791   4.558  16.362  0.00  0.00    +0.000 A 
ATOM      7  C   UNL     1       5.839   4.918  15.522  0.00  0.00    +0.000 A 
ATOM      8  N   UNL     1       6.746   5.880  15.823  0.00  0.00    +0.000 NA
ATOM      9  C   UNL     1       6.565   6.536  16.964  0.00  0.00    +0.000 A 
ATOM     10  N   UNL     1       7.398   7.594  17.224  0.00  0.00    +0.000 N 
ATOM     11  N   UNL     1       5.611   6.266  17.856  0.00  0.00    +0.000 NA
ATOM     12  C   UNL     1       4.729   5.292  17.543  0.00  0.00    +0.000 A 
ATOM     13  H   UNL     1       8.251   7.575  16.685  0.00  0.00    +0.000 HD
ATOM     14  H   UNL     1       7.423   7.874  18.191  0.00  0.00    +0.000 HD
ENDROOT
BRANCH   7  15
ATOM     15  C   UNL     1       6.033   4.338  14.197  0.00  0.00    +0.000 A 
ATOM     16  C   UNL     1       7.140   4.061  13.416  0.00  0.00    +0.000 A 
ATOM     17  C   UNL     1       6.656   3.542  12.189  0.00  0.00    +0.000 A 
ATOM     18  C   UNL     1       5.281   3.554  12.281  0.00  0.00    +0.000 A 
ATOM     19  C   UNL     1       4.189   3.170  11.365  0.00  0.00    +0.000 C 
ATOM     20  O   UNL     1       4.899   4.040  13.493  0.00  0.00    +0.000 OA
ENDBRANCH   7  15
BRANCH   1  21
ATOM     21  C   UNL     1       3.587   5.717  19.722  0.00  0.00    +0.000 C 
BRANCH  21  26
ATOM     22  C   UNL     1       1.831   8.906  18.555  0.00  0.00    +0.000 A 
ATOM     23  C   UNL     1       1.004   9.171  19.650  0.00  0.00    +0.000 A 
ATOM     24  C   UNL     1       0.979   8.312  20.748  0.00  0.00    +0.000 A 
ATOM     25  C   UNL     1       1.795   7.182  20.764  0.00  0.00    +0.000 A 
ATOM     26  C   UNL     1       2.633   6.896  19.676  0.00  0.00    +0.000 A 
ATOM     27  C   UNL     1       2.631   7.759  18.568  0.00  0.00    +0.000 A 
BRANCH  22  29
ATOM     28  C   UNL     1       2.156  11.166  17.904  0.00  0.00    +0.000 C 
ATOM     29  O   UNL     1       1.783   9.838  17.559  0.00  0.00    +0.000 OA
ENDBRANCH  22  29
ENDBRANCH  21  26
ENDBRANCH   1  21
TORSDOF 4
ENDMDL
MODEL 3
REMARK VINA RESULT:      -7.7      3.327      8.065
REMARK  Name = 
REMARK  6 active torsions:
REMARK  status: ('A' for Active; 'I' for Inactive)
REMARK    1  A    between atoms: C_1  and  O_2
REMARK    2  A    between atoms: O_2  and  C_3
REMARK    3  A    between atoms: C_7  and  C_8
REMARK    4  A    between atoms: C_8  and  N_9
REMARK    5  A    between atoms: C_15  and  C_16
REMARK    6  A    between atoms: C_19  and  C_20
REMARK                            x       y       z     vdW  Elec       q    Type
REMARK                         _______ _______ _______ _____ _____    ______ ____
ROOT
ATOM      1  N   UNL     1       2.684   6.315  18.810  0.00  0.00    +0.000 N 
ATOM      2  C   UNL     1       2.506   5.351  19.787  0.00  0.00    +0.000 A 
ATOM      3  O   UNL     1       2.979   4.221  19.789  0.00  0.00    +0.000 OA
ATOM      4  C   UNL     1       1.635   5.734  20.946  0.00  0.00    +0.000 A 
ATOM      5  N   UNL     1       1.121   6.909  21.107  0.00  0.00    +0.000 NA
ATOM      6  C   UNL     1       1.427   7.893  20.138  0.00  0.00    +0.000 A 
ATOM      7  C   UNL     1       1.010   9.214  20.254  0.00  0.00    +0.000 A 
ATOM      8  N   UNL     1       1.265  10.166  19.323  0.00  0.00    +0.000 NA
ATOM      9  C   UNL     1       2.004   9.801  18.281  0.00  0.00    +0.000 A 
ATOM     10  N   UNL     1       2.377  10.779  17.394  0.00  0.00    +0.000 N 
ATOM     11  N   UNL     1       2.441   8.561  18.053  0.00  0.00    +0.000 NA
ATOM     12  C   UNL     1       2.160   7.625  18.986  0.00  0.00    +0.000 A 
ATOM     13  H   UNL     1       1.803  11.607  17.447  0.00  0.00    +0.000 HD
ATOM     14  H   UNL     1       2.677  10.434  16.497  0.00  0.00    +0.000 HD
ENDROOT
BRANCH   7  15
ATOM     15  C   UNL     1       0.306   9.729  21.425  0.00  0.00    +0.000 A 
ATOM     16  C   UNL     1      -0.190   9.157  22.581  0.00  0.00    +0.000 A 
ATOM     17  C   UNL     1      -0.825  10.195  23.310  0.00  0.00    +0.000 A 
ATOM     18  C   UNL     1      -0.700  11.334  22.546  0.00  0.00    +0.000 A 
ATOM     19  C   UNL     1      -1.145  12.732  22.710  0.00  0.00    +0.000 C 
ATOM     20  O   UNL     1      -0.021  11.056  21.401  0.00  0.00    +0.000 OA
ENDBRANCH   7  15
BRANCH   1  21
ATOM     21  C   UNL     1       3.385   5.959  17.588  0.00  0.00    +0.000 C 
BRANCH  21  26
ATOM     22  C   UNL     1       7.010   7.165  17.462  0.00  0.00    +0.000 A 
ATOM     23  C   UNL     1       7.681   6.048  17.966  0.00  0.00    +0.000 A 
ATOM     24  C   UNL     1       6.974   4.921  18.380  0.00  0.00    +0.000 A 
ATOM     25  C   UNL     1       5.584   4.898  18.281  0.00  0.00    +0.000 A 
ATOM     26  C   UNL     1       4.889   6.008  17.779  0.00  0.00    +0.000 A 
ATOM     27  C   UNL     1       5.613   7.144  17.385  0.00  0.00    +0.000 A 
BRANCH  22  29
ATOM     28  C   UNL     1       8.239   9.104  18.071  0.00  0.00    +0.000 C 
ATOM     29  O   UNL     1       7.818   8.192  17.065  0.00  0.00    +0.000 OA
ENDBRANCH  22  29
ENDBRANCH  21  26
ENDBRANCH   1  21
TORSDOF 4
ENDMDL
MODEL 4
REMARK VINA RESULT:      -7.4      1.565      7.945
REMARK  Name = 
REMARK  6 active torsions:
REMARK  status: ('A' for Active; 'I' for Inactive)
REMARK    1  A    between atoms: C_1  and  O_2
REMARK    2  A    between atoms: O_2  and  C_3
REMARK    3  A    between atoms: C_7  and  C_8
REMARK    4  A    between atoms: C_8  and  N_9
REMARK    5  A    between atoms: C_15  and  C_16
REMARK    6  A    between atoms: C_19  and  C_20
REMARK                            x       y       z     vdW  Elec       q    Type
REMARK                         _______ _______ _______ _____ _____    ______ ____
ROOT
ATOM      1  N   UNL     1       6.107   5.346  16.666  0.00  0.00    +0.000 N 
ATOM      2  C   UNL     1       6.864   6.504  16.719  0.00  0.00    +0.000 A 
ATOM      3  O   UNL     1       7.977   6.669  16.236  0.00  0.00    +0.000 OA
ATOM      4  C   UNL     1       6.255   7.660  17.457  0.00  0.00    +0.000 A 
ATOM      5  N   UNL     1       5.066   7.649  17.964  0.00  0.00    +0.000 NA
ATOM      6  C   UNL     1       4.291   6.481  17.783  0.00  0.00    +0.000 A 
ATOM      7  C   UNL     1       2.968   6.387  18.199  0.00  0.00    +0.000 A 
ATOM      8  N   UNL     1       2.215   5.267  18.064  0.00  0.00    +0.000 NA
ATOM      9  C   UNL     1       2.782   4.237  17.444  0.00  0.00    +0.000 A 
ATOM     10  N   UNL     1       1.996   3.143  17.186  0.00  0.00    +0.000 N 
ATOM     11  N   UNL     1       4.047   4.204  17.021  0.00  0.00    +0.000 NA
ATOM     12  C   UNL     1       4.783   5.325  17.182  0.00  0.00    +0.000 A 
ATOM     13  H   UNL     1       1.168   3.100  17.761  0.00  0.00    +0.000 HD
ATOM     14  H   UNL     1       2.511   2.300  16.987  0.00  0.00    +0.000 HD
ENDROOT
BRANCH   7  15
ATOM     15  C   UNL     1       2.230   7.510  18.771  0.00  0.00    +0.000 A 
ATOM     16  C   UNL     1       1.711   8.684  18.261  0.00  0.00    +0.000 A 
ATOM     17  C   UNL     1       1.147   9.391  19.353  0.00  0.00    +0.000 A 
ATOM     18  C   UNL     1       1.374   8.618  20.470  0.00  0.00    +0.000 A 
ATOM     19  C   UNL     1       1.067   8.775  21.905  0.00  0.00    +0.000 C 
ATOM     20  O   UNL     1       2.036   7.481  20.124  0.00  0.00    +0.000 OA
ENDBRANCH   7  15
BRANCH   1  21
ATOM     21  C   UNL     1       6.699   4.143  16.104  0.00  0.00    +0.000 C 
BRANCH  21  26
ATOM     22  C   UNL     1       5.903   3.333  12.455  0.00  0.00    +0.000 A 
ATOM     23  C   UNL     1       6.837   4.133  11.793  0.00  0.00    +0.000 A 
ATOM     24  C   UNL     1       7.700   4.961  12.511  0.00  0.00    +0.000 A 
ATOM     25  C   UNL     1       7.641   4.984  13.903  0.00  0.00    +0.000 A 
ATOM     26  C   UNL     1       6.711   4.189  14.588  0.00  0.00    +0.000 A 
ATOM     27  C   UNL     1       5.835   3.376  13.851  0.00  0.00    +0.000 A 
BRANCH  22  29
ATOM     28  C   UNL     1       3.947   3.128  11.124  0.00  0.00    +0.000 C 
ATOM     29  O   UNL     1       5.138   2.548  11.640  0.00  0.00    +0.000 OA
ENDBRANCH  22  29
ENDBRANCH  21  26
ENDBRANCH   1  21
TORSDOF 4
ENDMDL
MODEL 5
REMARK VINA RESULT:      -7.3      2.263      8.112
REMARK  Name = 
REMARK  6 active torsions:
REMARK  status: ('A' for Active; 'I' for Inactive)
REMARK    1  A    between atoms: C_1  and  O_2
REMARK    2  A    between atoms: O_2  and  C_3
REMARK    3  A    between atoms: C_7  and  C_8
REMARK    4  A    between atoms: C_8  and  N_9
REMARK    5  A    between atoms: C_15  and  C_16
REMARK    6  A    between atoms: C_19  and  C_20
REMARK                            x       y       z     vdW  Elec       q    Type
REMARK                         _______ _______ _______ _____ _____    ______ ____
ROOT
ATOM      1  N   UNL     1       2.635   5.713  18.841  0.00  0.00    +0.000 N 
ATOM      2  C   UNL     1       2.512   4.793  19.868  0.00  0.00    +0.000 A 
ATOM      3  O   UNL     1       2.956   3.652  19.879  0.00  0.00    +0.000 OA
ATOM      4  C   UNL     1       1.747   5.246  21.076  0.00  0.00    +0.000 A 
ATOM      5  N   UNL     1       1.277   6.441  21.228  0.00  0.00    +0.000 NA
ATOM      6  C   UNL     1       1.528   7.376  20.198  0.00  0.00    +0.000 A 
ATOM      7  C   UNL     1       1.155   8.713  20.291  0.00  0.00    +0.000 A 
ATOM      8  N   UNL     1       1.358   9.620  19.305  0.00  0.00    +0.000 NA
ATOM      9  C   UNL     1       2.002   9.193  18.223  0.00  0.00    +0.000 A 
ATOM     10  N   UNL     1       2.326  10.124  17.270  0.00  0.00    +0.000 N 
ATOM     11  N   UNL     1       2.388   7.933  18.013  0.00  0.00    +0.000 NA
ATOM     12  C   UNL     1       2.159   7.043  19.003  0.00  0.00    +0.000 A 
ATOM     13  H   UNL     1       1.779  10.970  17.334  0.00  0.00    +0.000 HD
ATOM     14  H   UNL     1       2.544   9.736  16.367  0.00  0.00    +0.000 HD
ENDROOT
BRANCH   7  15
ATOM     15  C   UNL     1       0.561   9.292  21.492  0.00  0.00    +0.000 A 
ATOM     16  C   UNL     1       0.629   8.999  22.841  0.00  0.00    +0.000 A 
ATOM     17  C   UNL     1      -0.233   9.911  23.502  0.00  0.00    +0.000 A 
ATOM     18  C   UNL     1      -0.795  10.693  22.517  0.00  0.00    +0.000 A 
ATOM     19  C   UNL     1      -1.771  11.799  22.519  0.00  0.00    +0.000 C 
ATOM     20  O   UNL     1      -0.322  10.318  21.297  0.00  0.00    +0.000 OA
ENDBRANCH   7  15
BRANCH   1  21
ATOM     21  C   UNL     1       3.227   5.289  17.583  0.00  0.00    +0.000 C 
BRANCH  21  26
ATOM     22  C   UNL     1       6.832   5.610  16.356  0.00  0.00    +0.000 A 
ATOM     23  C   UNL     1       7.520   5.700  17.569  0.00  0.00    +0.000 A 
ATOM     24  C   UNL     1       6.830   5.695  18.780  0.00  0.00    +0.000 A 
ATOM     25  C   UNL     1       5.440   5.586  18.787  0.00  0.00    +0.000 A 
ATOM     26  C   UNL     1       4.729   5.495  17.582  0.00  0.00    +0.000 A 
ATOM     27  C   UNL     1       5.436   5.523  16.369  0.00  0.00    +0.000 A 
BRANCH  22  29
ATOM     28  C   UNL     1       7.130   4.898  14.111  0.00  0.00    +0.000 C 
ATOM     29  O   UNL     1       7.625   5.598  15.245  0.00  0.00    +0.000 OA
ENDBRANCH  22  29
ENDBRANCH  21  26
ENDBRANCH   1  21
TORSDOF 4
ENDMDL
MODEL 6
REMARK VINA RESULT:      -7.2      1.589      7.820
REMARK  Name = 
REMARK  6 active torsions:
REMARK  status: ('A' for Active; 'I' for Inactive)
REMARK    1  A    between atoms: C_1  and  O_2
REMARK    2  A    between atoms: O_2  and  C_3
REMARK    3  A    between atoms: C_7  and  C_8
REMARK    4  A    between atoms: C_8  and  N_9
REMARK    5  A    between atoms: C_15  and  C_16
REMARK    6  A    between atoms: C_19  and  C_20
REMARK                            x       y       z     vdW  Elec       q    Type
REMARK                         _______ _______ _______ _____ _____    ______ ____
ROOT
ATOM      1  N   UNL     1       6.088   5.140  16.574  0.00  0.00    +0.000 N 
ATOM      2  C   UNL     1       6.821   6.314  16.599  0.00  0.00    +0.000 A 
ATOM      3  O   UNL     1       7.883   6.522  16.025  0.00  0.00    +0.000 OA
ATOM      4  C   UNL     1       6.255   7.431  17.424  0.00  0.00    +0.000 A 
ATOM      5  N   UNL     1       5.115   7.375  18.032  0.00  0.00    +0.000 NA
ATOM      6  C   UNL     1       4.353   6.195  17.881  0.00  0.00    +0.000 A 
ATOM      7  C   UNL     1       3.074   6.055  18.408  0.00  0.00    +0.000 A 
ATOM      8  N   UNL     1       2.337   4.922  18.302  0.00  0.00    +0.000 NA
ATOM      9  C   UNL     1       2.869   3.926  17.602  0.00  0.00    +0.000 A 
ATOM     10  N   UNL     1       2.088   2.821  17.378  0.00  0.00    +0.000 N 
ATOM     11  N   UNL     1       4.092   3.938  17.069  0.00  0.00    +0.000 NA
ATOM     12  C   UNL     1       4.815   5.071  17.202  0.00  0.00    +0.000 A 
ATOM     13  H   UNL     1       1.315   2.741  18.021  0.00  0.00    +0.000 HD
ATOM     14  H   UNL     1       2.602   1.998  17.107  0.00  0.00    +0.000 HD
ENDROOT
BRANCH   7  15
ATOM     15  C   UNL     1       2.365   7.142  19.079  0.00  0.00    +0.000 A 
ATOM     16  C   UNL     1       1.896   7.341  20.363  0.00  0.00    +0.000 A 
ATOM     17  C   UNL     1       1.238   8.596  20.368  0.00  0.00    +0.000 A 
ATOM     18  C   UNL     1       1.322   9.081  19.082  0.00  0.00    +0.000 A 
ATOM     19  C   UNL     1       0.838  10.305  18.414  0.00  0.00    +0.000 C 
ATOM     20  O   UNL     1       1.999   8.201  18.295  0.00  0.00    +0.000 OA
ENDBRANCH   7  15
BRANCH   1  21
ATOM     21  C   UNL     1       6.655   3.970  15.923  0.00  0.00    +0.000 C 
BRANCH  21  26
ATOM     22  C   UNL     1       5.599   3.399  12.294  0.00  0.00    +0.000 A 
ATOM     23  C   UNL     1       6.552   4.164  11.615  0.00  0.00    +0.000 A 
ATOM     24  C   UNL     1       7.511   4.892  12.317  0.00  0.00    +0.000 A 
ATOM     25  C   UNL     1       7.532   4.850  13.710  0.00  0.00    +0.000 A 
ATOM     26  C   UNL     1       6.585   4.090  14.412  0.00  0.00    +0.000 A 
ATOM     27  C   UNL     1       5.613   3.379  13.692  0.00  0.00    +0.000 A 
BRANCH  22  29
ATOM     28  C   UNL     1       3.716   3.468  10.848  0.00  0.00    +0.000 C 
ATOM     29  O   UNL     1       4.734   2.712  11.491  0.00  0.00    +0.000 OA
ENDBRANCH  22  29
ENDBRANCH  21  26
ENDBRANCH   1  21
TORSDOF 4
ENDMDL
MODEL 7
REMARK VINA RESULT:      -7.2      6.008     10.655
REMARK  Name = 
REMARK  6 active torsions:
REMARK  status: ('A' for Active; 'I' for Inactive)
REMARK    1  A    between atoms: C_1  and  O_2
REMARK    2  A    between atoms: O_2  and  C_3
REMARK    3  A    between atoms: C_7  and  C_8
REMARK    4  A    between atoms: C_8  and  N_9
REMARK    5  A    between atoms: C_15  and  C_16
REMARK    6  A    between atoms: C_19  and  C_20
REMARK                            x       y       z     vdW  Elec       q    Type
REMARK                         _______ _______ _______ _____ _____    ______ ____
ROOT
ATOM      1  N   UNL     1      -0.413  12.253  19.756  0.00  0.00    +0.000 N 
ATOM      2  C   UNL     1      -0.478  12.685  21.069  0.00  0.00    +0.000 A 
ATOM      3  O   UNL     1       0.465  13.038  21.766  0.00  0.00    +0.000 OA
ATOM      4  C   UNL     1      -1.841  12.706  21.693  0.00  0.00    +0.000 A 
ATOM      5  N   UNL     1      -2.931  12.420  21.060  0.00  0.00    +0.000 NA
ATOM      6  C   UNL     1      -2.822  12.094  19.689  0.00  0.00    +0.000 A 
ATOM      7  C   UNL     1      -3.931  11.862  18.883  0.00  0.00    +0.000 A 
ATOM      8  N   UNL     1      -3.850  11.518  17.574  0.00  0.00    +0.000 NA
ATOM      9  C   UNL     1      -2.631  11.464  17.045  0.00  0.00    +0.000 A 
ATOM     10  N   UNL     1      -2.537  11.242  15.694  0.00  0.00    +0.000 N 
ATOM     11  N   UNL     1      -1.497  11.647  17.722  0.00  0.00    +0.000 NA
ATOM     12  C   UNL     1      -1.602  11.971  19.029  0.00  0.00    +0.000 A 
ATOM     13  H   UNL     1      -3.370  10.836  15.296  0.00  0.00    +0.000 HD
ATOM     14  H   UNL     1      -1.631  10.928  15.388  0.00  0.00    +0.000 HD
ENDROOT
BRANCH   7  15
ATOM     15  C   UNL     1      -5.304  12.025  19.350  0.00  0.00    +0.000 A 
ATOM     16  C   UNL     1      -6.335  11.152  19.644  0.00  0.00    +0.000 A 
ATOM     17  C   UNL     1      -7.454  11.946  20.003  0.00  0.00    +0.000 A 
ATOM     18  C   UNL     1      -7.049  13.257  19.885  0.00  0.00    +0.000 A 
ATOM     19  C   UNL     1      -7.717  14.558  20.087  0.00  0.00    +0.000 C 
ATOM     20  O   UNL     1      -5.750  13.311  19.484  0.00  0.00    +0.000 OA
ENDBRANCH   7  15
BRANCH   1  21
ATOM     21  C   UNL     1       0.890  12.060  19.140  0.00  0.00    +0.000 C 
BRANCH  21  26
ATOM     22  C   UNL     1       1.445   8.397  20.078  0.00  0.00    +0.000 A 
ATOM     23  C   UNL     1       2.033   7.908  18.909  0.00  0.00    +0.000 A 
ATOM     24  C   UNL     1       2.221   8.739  17.806  0.00  0.00    +0.000 A 
ATOM     25  C   UNL     1       1.831  10.075  17.869  0.00  0.00    +0.000 A 
ATOM     26  C   UNL     1       1.238  10.588  19.032  0.00  0.00    +0.000 A 
ATOM     27  C   UNL     1       1.037   9.733  20.128  0.00  0.00    +0.000 A 
BRANCH  22  29
ATOM     28  C   UNL     1       1.564   6.125  20.762  0.00  0.00    +0.000 C 
ATOM     29  O   UNL     1       1.344   7.490  21.094  0.00  0.00    +0.000 OA
ENDBRANCH  22  29
ENDBRANCH  21  26
ENDBRANCH   1  21
TORSDOF 4
ENDMDL
MODEL 8
REMARK VINA RESULT:      -7.2      0.743      1.058
REMARK  Name = 
REMARK  6 active torsions:
REMARK  status: ('A' for Active; 'I' for Inactive)
REMARK    1  A    between atoms: C_1  and  O_2
REMARK    2  A    between atoms: O_2  and  C_3
REMARK    3  A    between atoms: C_7  and  C_8
REMARK    4  A    between atoms: C_8  and  N_9
REMARK    5  A    between atoms: C_15  and  C_16
REMARK    6  A    between atoms: C_19  and  C_20
REMARK                            x       y       z     vdW  Elec       q    Type
REMARK                         _______ _______ _______ _____ _____    ______ ____
ROOT
ATOM      1  N   UNL     1       3.393   5.417  18.601  0.00  0.00    +0.000 N 
ATOM      2  C   UNL     1       2.438   4.477  18.254  0.00  0.00    +0.000 A 
ATOM      3  O   UNL     1       1.394   4.245  18.851  0.00  0.00    +0.000 OA
ATOM      4  C   UNL     1       2.728   3.659  17.031  0.00  0.00    +0.000 A 
ATOM      5  N   UNL     1       3.758   3.836  16.270  0.00  0.00    +0.000 NA
ATOM      6  C   UNL     1       4.644   4.885  16.605  0.00  0.00    +0.000 A 
ATOM      7  C   UNL     1       5.731   5.231  15.811  0.00  0.00    +0.000 A 
ATOM      8  N   UNL     1       6.611   6.212  16.128  0.00  0.00    +0.000 NA
ATOM      9  C   UNL     1       6.363   6.902  17.236  0.00  0.00    +0.000 A 
ATOM     10  N   UNL     1       7.170   7.978  17.506  0.00  0.00    +0.000 N 
ATOM     11  N   UNL     1       5.366   6.648  18.085  0.00  0.00    +0.000 NA
ATOM     12  C   UNL     1       4.512   5.654  17.757  0.00  0.00    +0.000 A 
ATOM     13  H   UNL     1       8.050   7.952  17.013  0.00  0.00    +0.000 HD
ATOM     14  H   UNL     1       7.141   8.289  18.463  0.00  0.00    +0.000 HD
ENDROOT
BRANCH   7  15
ATOM     15  C   UNL     1       6.002   4.611  14.516  0.00  0.00    +0.000 A 
ATOM     16  C   UNL     1       5.654   3.410  13.929  0.00  0.00    +0.000 A 
ATOM     17  C   UNL     1       6.283   3.378  12.659  0.00  0.00    +0.000 A 
ATOM     18  C   UNL     1       6.997   4.551  12.553  0.00  0.00    +0.000 A 
ATOM     19  C   UNL     1       7.872   5.129  11.514  0.00  0.00    +0.000 C 
ATOM     20  O   UNL     1       6.835   5.299  13.678  0.00  0.00    +0.000 OA
ENDBRANCH   7  15
BRANCH   1  21
ATOM     21  C   UNL     1       3.251   6.134  19.858  0.00  0.00    +0.000 C 
BRANCH  21  26
ATOM     22  C   UNL     1       0.661   8.851  20.578  0.00  0.00    +0.000 A 
ATOM     23  C   UNL     1       0.638   9.529  19.356  0.00  0.00    +0.000 A 
ATOM     24  C   UNL     1       1.476   9.141  18.312  0.00  0.00    +0.000 A 
ATOM     25  C   UNL     1       2.338   8.059  18.479  0.00  0.00    +0.000 A 
ATOM     26  C   UNL     1       2.379   7.365  19.697  0.00  0.00    +0.000 A 
ATOM     27  C   UNL     1       1.545   7.780  20.746  0.00  0.00    +0.000 A 
BRANCH  22  29
ATOM     28  C   UNL     1       0.264   9.490  22.830  0.00  0.00    +0.000 C 
ATOM     29  O   UNL     1      -0.226   9.311  21.508  0.00  0.00    +0.000 OA
ENDBRANCH  22  29
ENDBRANCH  21  26
ENDBRANCH   1  21
TORSDOF 4
ENDMDL
MODEL 9
REMARK VINA RESULT:      -7.2      5.821     10.470
REMARK  Name = 
REMARK  6 active torsions:
REMARK  status: ('A' for Active; 'I' for Inactive)
REMARK    1  A    between atoms: C_1  and  O_2
REMARK    2  A    between atoms: O_2  and  C_3
REMARK    3  A    between atoms: C_7  and  C_8
REMARK    4  A    between atoms: C_8  and  N_9
REMARK    5  A    between atoms: C_15  and  C_16
REMARK    6  A    between atoms: C_19  and  C_20
REMARK                            x       y       z     vdW  Elec       q    Type
REMARK                         _______ _______ _______ _____ _____    ______ ____
ROOT
ATOM      1  N   UNL     1      -0.060  12.142  19.706  0.00  0.00    +0.000 N 
ATOM      2  C   UNL     1       0.021  12.571  21.019  0.00  0.00    +0.000 A 
ATOM      3  O   UNL     1       1.044  12.854  21.630  0.00  0.00    +0.000 OA
ATOM      4  C   UNL     1      -1.278  12.684  21.761  0.00  0.00    +0.000 A 
ATOM      5  N   UNL     1      -2.436  12.477  21.226  0.00  0.00    +0.000 NA
ATOM      6  C   UNL     1      -2.471  12.152  19.850  0.00  0.00    +0.000 A 
ATOM      7  C   UNL     1      -3.659  12.001  19.145  0.00  0.00    +0.000 A 
ATOM      8  N   UNL     1      -3.717  11.660  17.834  0.00  0.00    +0.000 NA
ATOM      9  C   UNL     1      -2.557  11.523  17.201  0.00  0.00    +0.000 A 
ATOM     10  N   UNL     1      -2.597  11.302  15.848  0.00  0.00    +0.000 N 
ATOM     11  N   UNL     1      -1.357  11.623  17.776  0.00  0.00    +0.000 NA
ATOM     12  C   UNL     1      -1.325  11.947  19.087  0.00  0.00    +0.000 A 
ATOM     13  H   UNL     1      -3.488  10.957  15.524  0.00  0.00    +0.000 HD
ATOM     14  H   UNL     1      -1.745  10.927  15.463  0.00  0.00    +0.000 HD
ENDROOT
BRANCH   7  15
ATOM     15  C   UNL     1      -4.972  12.258  19.731  0.00  0.00    +0.000 A 
ATOM     16  C   UNL     1      -5.612  13.385  20.209  0.00  0.00    +0.000 A 
ATOM     17  C   UNL     1      -6.871  12.961  20.705  0.00  0.00    +0.000 A 
ATOM     18  C   UNL     1      -6.917  11.596  20.523  0.00  0.00    +0.000 A 
ATOM     19  C   UNL     1      -7.916  10.555  20.831  0.00  0.00    +0.000 C 
ATOM     20  O   UNL     1      -5.767  11.165  19.939  0.00  0.00    +0.000 OA
ENDBRANCH   7  15
BRANCH   1  21
ATOM     21  C   UNL     1       1.168  11.861  18.979  0.00  0.00    +0.000 C 
BRANCH  21  26
ATOM     22  C   UNL     1       1.508   8.188  19.978  0.00  0.00    +0.000 A 
ATOM     23  C   UNL     1       2.078   7.649  18.823  0.00  0.00    +0.000 A 
ATOM     24  C   UNL     1       2.322   8.450  17.709  0.00  0.00    +0.000 A 
ATOM     25  C   UNL     1       2.007   9.807  17.748  0.00  0.00    +0.000 A 
ATOM     26  C   UNL     1       1.433  10.370  18.897  0.00  0.00    +0.000 A 
ATOM     27  C   UNL     1       1.174   9.546  20.003  0.00  0.00    +0.000 A 
BRANCH  22  29
ATOM     28  C   UNL     1       1.764   5.965  20.774  0.00  0.00    +0.000 C 
ATOM     29  O   UNL     1       1.347   7.305  21.007  0.00  0.00    +0.000 OA
ENDBRANCH  22  29
ENDBRANCH  21  26
ENDBRANCH   1  21
TORSDOF 4
ENDMDL
