MODEL 1
REMARK VINA RESULT:      -7.2      0.000      0.000
REMARK  Name = 
REMARK  5 active torsions:
REMARK  status: ('A' for Active; 'I' for Inactive)
REMARK    1  A    between atoms: C_1  and  C_2
REMARK    2  A    between atoms: C_4  and  C_5
REMARK    3  A    between atoms: C_6  and  C_7
REMARK    4  A    between atoms: N_9  and  C_10
REMARK    5  A    between atoms: C_10  and  C_11
REMARK                            x       y       z     vdW  Elec       q    Type
REMARK                         _______ _______ _______ _____ _____    ______ ____
ROOT
ATOM      1  C   UNL     1       4.941   5.131  18.247  0.00  0.00    +0.000 C 
ATOM      2  O   UNL     1       5.179   4.420  19.219  0.00  0.00    +0.000 OA
ATOM      3  N   UNL     1       3.886   6.017  18.231  0.00  0.00    +0.000 N 
ATOM      4  H   UNL     1       3.704   6.528  17.377  0.00  0.00    +0.000 HD
ENDROOT
BRANCH   1  10
ATOM      5  C   UNL     1       6.311   3.884  13.763  0.00  0.00    +0.000 C 
ATOM      6  C   UNL     1       6.389   4.605  15.049  0.00  0.00    +0.000 A 
ATOM      7  N   UNL     1       7.262   5.515  15.426  0.00  0.00    +0.000 NA
ATOM      8  C   UNL     1       6.862   5.854  16.698  0.00  0.00    +0.000 A 
ATOM      9  C   UNL     1       7.583   6.870  17.494  0.00  0.00    +0.000 C 
ATOM     10  C   UNL     1       5.742   5.123  17.048  0.00  0.00    +0.000 A 
ATOM     11  O   UNL     1       5.433   4.308  15.985  0.00  0.00    +0.000 OA
ENDBRANCH   1  10
BRANCH   3  12
ATOM     12  C   UNL     1       3.007   6.171  19.362  0.00  0.00    +0.000 C 
BRANCH  12  13
ATOM     13  C   UNL     1       2.242   7.470  19.311  0.00  0.00    +0.000 A 
ATOM     14  C   UNL     1       2.152   8.198  18.115  0.00  0.00    +0.000 A 
ATOM     15  C   UNL     1       1.427   9.392  18.062  0.00  0.00    +0.000 A 
ATOM     16  C   UNL     1       0.796   9.868  19.207  0.00  0.00    +0.000 A 
ATOM     17 CL   UNL     1      -0.108  11.331  19.143  0.00  0.00    +0.000 Cl
ATOM     18  C   UNL     1       0.891   9.166  20.407  0.00  0.00    +0.000 A 
ATOM     19  C   UNL     1       1.614   7.973  20.459  0.00  0.00    +0.000 A 
ENDBRANCH  12  13
ENDBRANCH   3  12
TORSDOF 3
ENDMDL
MODEL 2
REMARK VINA RESULT:      -7.1      0.739      1.356
REMARK  Name = 
REMARK  5 active torsions:
REMARK  status: ('A' for Active; 'I' for Inactive)
REMARK    1  A    between atoms: C_1  and  C_2
REMARK    2  A    between atoms: C_4  and  C_5
REMARK    3  A    between atoms: C_6  and  C_7
REMARK    4  A    between atoms: N_9  and  C_10
REMARK    5  A    between atoms: C_10  and  C_11
REMARK                            x       y       z     vdW  Elec       q    Type
REMARK                         _______ _______ _______ _____ _____    ______ ____
ROOT
ATOM      1  C   UNL     1       4.501   4.539  18.182  0.00  0.00    +0.000 C 
ATOM      2  O   UNL     1       4.119   3.540  18.786  0.00  0.00    +0.000 OA
ATOM      3  N   UNL     1       4.027   5.798  18.480  0.00  0.00    +0.000 N 
ATOM      4  H   UNL     1       4.331   6.572  17.904  0.00  0.00    +0.000 HD
ENDROOT
BRANCH   1  10
ATOM      5  C   UNL     1       6.264   3.959  13.700  0.00  0.00    +0.000 C 
ATOM      6  C   UNL     1       6.317   4.257  15.145  0.00  0.00    +0.000 A 
ATOM      7  N   UNL     1       7.354   4.620  15.869  0.00  0.00    +0.000 NA
ATOM      8  C   UNL     1       6.838   4.776  17.135  0.00  0.00    +0.000 A 
ATOM      9  C   UNL     1       7.685   5.194  18.273  0.00  0.00    +0.000 C 
ATOM     10  C   UNL     1       5.484   4.496  17.128  0.00  0.00    +0.000 A 
ATOM     11  O   UNL     1       5.141   4.155  15.842  0.00  0.00    +0.000 OA
ENDBRANCH   1  10
BRANCH   3  12
ATOM     12  C   UNL     1       3.064   6.018  19.528  0.00  0.00    +0.000 C 
BRANCH  12  13
ATOM     13  C   UNL     1       2.316   7.316  19.347  0.00  0.00    +0.000 A 
ATOM     14  C   UNL     1       1.651   7.911  20.430  0.00  0.00    +0.000 A 
ATOM     15  C   UNL     1       0.974   9.124  20.268  0.00  0.00    +0.000 A 
ATOM     16  C   UNL     1       0.951   9.741  19.021  0.00  0.00    +0.000 A 
ATOM     17 CL   UNL     1       0.130  11.240  18.820  0.00  0.00    +0.000 Cl
ATOM     18  C   UNL     1       1.592   9.153  17.932  0.00  0.00    +0.000 A 
ATOM     19  C   UNL     1       2.269   7.942  18.094  0.00  0.00    +0.000 A 
ENDBRANCH  12  13
ENDBRANCH   3  12
TORSDOF 3
ENDMDL
MODEL 3
REMARK VINA RESULT:      -7.1      2.818      3.989
REMARK  Name = 
REMARK  5 active torsions:
REMARK  status: ('A' for Active; 'I' for Inactive)
REMARK    1  A    between atoms: C_1  and  C_2
REMARK    2  A    between atoms: C_4  and  C_5
REMARK    3  A    between atoms: C_6  and  C_7
REMARK    4  A    between atoms: N_9  and  C_10
REMARK    5  A    between atoms: C_10  and  C_11
REMARK                            x       y       z     vdW  Elec       q    Type
REMARK                         _______ _______ _______ _____ _____    ______ ____
ROOT
ATOM      1  C   UNL     1       6.911   5.103  15.454  0.00  0.00    +0.000 C 
ATOM      2  O   UNL     1       7.685   4.665  16.301  0.00  0.00    +0.000 OA
ATOM      3  N   UNL     1       6.041   6.135  15.725  0.00  0.00    +0.000 N 
ATOM      4  H   UNL     1       5.383   6.408  15.005  0.00  0.00    +0.000 HD
ENDROOT
BRANCH   1  10
ATOM      5  C   UNL     1       5.315   2.466  11.708  0.00  0.00    +0.000 C 
ATOM      6  C   UNL     1       6.170   3.450  12.401  0.00  0.00    +0.000 A 
ATOM      7  N   UNL     1       7.138   4.190  11.903  0.00  0.00    +0.000 NA
ATOM      8  C   UNL     1       7.580   4.927  12.978  0.00  0.00    +0.000 A 
ATOM      9  C   UNL     1       8.678   5.909  12.846  0.00  0.00    +0.000 C 
ATOM     10  C   UNL     1       6.850   4.598  14.104  0.00  0.00    +0.000 A 
ATOM     11  O   UNL     1       5.937   3.639  13.738  0.00  0.00    +0.000 OA
ENDBRANCH   1  10
BRANCH   3  12
ATOM     12  C   UNL     1       5.997   6.773  17.017  0.00  0.00    +0.000 C 
BRANCH  12  13
ATOM     13  C   UNL     1       4.853   6.266  17.860  0.00  0.00    +0.000 A 
ATOM     14  C   UNL     1       3.587   6.866  17.777  0.00  0.00    +0.000 A 
ATOM     15  C   UNL     1       2.522   6.385  18.544  0.00  0.00    +0.000 A 
ATOM     16  C   UNL     1       2.719   5.308  19.403  0.00  0.00    +0.000 A 
ATOM     17 CL   UNL     1       1.407   4.705  20.338  0.00  0.00    +0.000 Cl
ATOM     18  C   UNL     1       3.975   4.713  19.509  0.00  0.00    +0.000 A 
ATOM     19  C   UNL     1       5.039   5.193  18.742  0.00  0.00    +0.000 A 
ENDBRANCH  12  13
ENDBRANCH   3  12
TORSDOF 3
ENDMDL
MODEL 4
REMARK VINA RESULT:      -7.0      3.085      4.169
REMARK  Name = 
REMARK  5 active torsions:
REMARK  status: ('A' for Active; 'I' for Inactive)
REMARK    1  A    between atoms: C_1  and  C_2
REMARK    2  A    between atoms: C_4  and  C_5
REMARK    3  A    between atoms: C_6  and  C_7
REMARK    4  A    between atoms: N_9  and  C_10
REMARK    5  A    between atoms: C_10  and  C_11
REMARK                            x       y       z     vdW  Elec       q    Type
REMARK                         _______ _______ _______ _____ _____    ______ ____
ROOT
ATOM      1  C   UNL     1       6.584   5.030  15.340  0.00  0.00    +0.000 C 
ATOM      2  O   UNL     1       7.477   4.900  16.173  0.00  0.00    +0.000 OA
ATOM      3  N   UNL     1       5.422   5.717  15.617  0.00  0.00    +0.000 N 
ATOM      4  H   UNL     1       4.697   5.734  14.911  0.00  0.00    +0.000 HD
ENDROOT
BRANCH   1  10
ATOM      5  C   UNL     1       5.456   2.257  11.523  0.00  0.00    +0.000 C 
ATOM      6  C   UNL     1       6.199   3.291  12.269  0.00  0.00    +0.000 A 
ATOM      7  N   UNL     1       7.175   4.066  11.845  0.00  0.00    +0.000 NA
ATOM      8  C   UNL     1       7.484   4.841  12.939  0.00  0.00    +0.000 A 
ATOM      9  C   UNL     1       8.544   5.871  12.885  0.00  0.00    +0.000 C 
ATOM     10  C   UNL     1       6.669   4.500  14.001  0.00  0.00    +0.000 A 
ATOM     11  O   UNL     1       5.837   3.492  13.575  0.00  0.00    +0.000 OA
ENDBRANCH   1  10
BRANCH   3  12
ATOM     12  C   UNL     1       5.192   6.336  16.897  0.00  0.00    +0.000 C 
BRANCH  12  13
ATOM     13  C   UNL     1       4.082   5.659  17.662  0.00  0.00    +0.000 A 
ATOM     14  C   UNL     1       3.681   4.355  17.333  0.00  0.00    +0.000 A 
ATOM     15  C   UNL     1       2.666   3.720  18.053  0.00  0.00    +0.000 A 
ATOM     16  C   UNL     1       2.040   4.390  19.101  0.00  0.00    +0.000 A 
ATOM     17 CL   UNL     1       0.798   3.606  19.998  0.00  0.00    +0.000 Cl
ATOM     18  C   UNL     1       2.414   5.691  19.428  0.00  0.00    +0.000 A 
ATOM     19  C   UNL     1       3.429   6.325  18.708  0.00  0.00    +0.000 A 
ENDBRANCH  12  13
ENDBRANCH   3  12
TORSDOF 3
ENDMDL
MODEL 5
REMARK VINA RESULT:      -7.0      3.495      4.500
REMARK  Name = 
REMARK  5 active torsions:
REMARK  status: ('A' for Active; 'I' for Inactive)
REMARK    1  A    between atoms: C_1  and  C_2
REMARK    2  A    between atoms: C_4  and  C_5
REMARK    3  A    between atoms: C_6  and  C_7
REMARK    4  A    between atoms: N_9  and  C_10
REMARK    5  A    between atoms: C_10  and  C_11
REMARK                            x       y       z     vdW  Elec       q    Type
REMARK                         _______ _______ _______ _____ _____    ______ ____
ROOT
ATOM      1  C   UNL     1       6.901   5.008  15.479  0.00  0.00    +0.000 C 
ATOM      2  O   UNL     1       7.348   6.107  15.795  0.00  0.00    +0.000 OA
ATOM      3  N   UNL     1       6.397   4.129  16.412  0.00  0.00    +0.000 N 
ATOM      4  H   UNL     1       6.103   3.213  16.096  0.00  0.00    +0.000 HD
ENDROOT
BRANCH   1  10
ATOM      5  C   UNL     1       5.326   2.467  11.658  0.00  0.00    +0.000 C 
ATOM      6  C   UNL     1       6.172   3.438  12.380  0.00  0.00    +0.000 A 
ATOM      7  N   UNL     1       7.133   4.201  11.903  0.00  0.00    +0.000 NA
ATOM      8  C   UNL     1       7.570   4.910  12.998  0.00  0.00    +0.000 A 
ATOM      9  C   UNL     1       8.658   5.905  12.894  0.00  0.00    +0.000 C 
ATOM     10  C   UNL     1       6.844   4.543  14.115  0.00  0.00    +0.000 A 
ATOM     11  O   UNL     1       5.938   3.586  13.722  0.00  0.00    +0.000 OA
ENDBRANCH   1  10
BRANCH   3  12
ATOM     12  C   UNL     1       6.351   4.453  17.814  0.00  0.00    +0.000 C 
BRANCH  12  13
ATOM     13  C   UNL     1       4.961   4.314  18.383  0.00  0.00    +0.000 A 
ATOM     14  C   UNL     1       3.918   5.132  17.923  0.00  0.00    +0.000 A 
ATOM     15  C   UNL     1       2.625   4.991  18.436  0.00  0.00    +0.000 A 
ATOM     16  C   UNL     1       2.371   4.036  19.416  0.00  0.00    +0.000 A 
ATOM     17 CL   UNL     1       0.779   3.851  20.040  0.00  0.00    +0.000 Cl
ATOM     18  C   UNL     1       3.400   3.228  19.896  0.00  0.00    +0.000 A 
ATOM     19  C   UNL     1       4.692   3.370  19.383  0.00  0.00    +0.000 A 
ENDBRANCH  12  13
ENDBRANCH   3  12
TORSDOF 3
ENDMDL
MODEL 6
REMARK VINA RESULT:      -7.0      3.356      4.289
REMARK  Name = 
REMARK  5 active torsions:
REMARK  status: ('A' for Active; 'I' for Inactive)
REMARK    1  A    between atoms: C_1  and  C_2
REMARK    2  A    between atoms: C_4  and  C_5
REMARK    3  A    between atoms: C_6  and  C_7
REMARK    4  A    between atoms: N_9  and  C_10
REMARK    5  A    between atoms: C_10  and  C_11
REMARK                            x       y       z     vdW  Elec       q    Type
REMARK                         _______ _______ _______ _____ _____    ______ ____
ROOT
ATOM      1  C   UNL     1       6.700   4.926  15.446  0.00  0.00    +0.000 C 
ATOM      2  O   UNL     1       7.640   4.761  16.220  0.00  0.00    +0.000 OA
ATOM      3  N   UNL     1       5.551   5.585  15.824  0.00  0.00    +0.000 N 
ATOM      4  H   UNL     1       4.787   5.632  15.161  0.00  0.00    +0.000 HD
ENDROOT
BRANCH   1  10
ATOM      5  C   UNL     1       5.356   2.377  11.544  0.00  0.00    +0.000 C 
ATOM      6  C   UNL     1       6.147   3.361  12.308  0.00  0.00    +0.000 A 
ATOM      7  N   UNL     1       7.110   4.149  11.879  0.00  0.00    +0.000 NA
ATOM      8  C   UNL     1       7.481   4.860  12.997  0.00  0.00    +0.000 A 
ATOM      9  C   UNL     1       8.549   5.881  12.948  0.00  0.00    +0.000 C 
ATOM     10  C   UNL     1       6.715   4.469  14.078  0.00  0.00    +0.000 A 
ATOM     11  O   UNL     1       5.850   3.494  13.640  0.00  0.00    +0.000 OA
ENDBRANCH   1  10
BRANCH   3  12
ATOM     12  C   UNL     1       5.389   6.132  17.147  0.00  0.00    +0.000 C 
BRANCH  12  13
ATOM     13  C   UNL     1       4.255   5.477  17.895  0.00  0.00    +0.000 A 
ATOM     14  C   UNL     1       4.043   5.757  19.254  0.00  0.00    +0.000 A 
ATOM     15  C   UNL     1       2.980   5.166  19.944  0.00  0.00    +0.000 A 
ATOM     16  C   UNL     1       2.131   4.286  19.281  0.00  0.00    +0.000 A 
ATOM     17 CL   UNL     1       0.814   3.567  20.124  0.00  0.00    +0.000 Cl
ATOM     18  C   UNL     1       2.339   3.984  17.937  0.00  0.00    +0.000 A 
ATOM     19  C   UNL     1       3.400   4.575  17.247  0.00  0.00    +0.000 A 
ENDBRANCH  12  13
ENDBRANCH   3  12
TORSDOF 3
ENDMDL
MODEL 7
REMARK VINA RESULT:      -6.9      1.389      2.077
REMARK  Name = 
REMARK  5 active torsions:
REMARK  status: ('A' for Active; 'I' for Inactive)
REMARK    1  A    between atoms: C_1  and  C_2
REMARK    2  A    between atoms: C_4  and  C_5
REMARK    3  A    between atoms: C_6  and  C_7
REMARK    4  A    between atoms: N_9  and  C_10
REMARK    5  A    between atoms: C_10  and  C_11
REMARK                            x       y       z     vdW  Elec       q    Type
REMARK                         _______ _______ _______ _____ _____    ______ ____
ROOT
ATOM      1  C   UNL     1       5.075   4.235  17.619  0.00  0.00    +0.000 C 
ATOM      2  O   UNL     1       5.565   3.971  18.713  0.00  0.00    +0.000 OA
ATOM      3  N   UNL     1       3.713   4.302  17.425  0.00  0.00    +0.000 N 
ATOM      4  H   UNL     1       3.370   4.461  16.486  0.00  0.00    +0.000 HD
ENDROOT
BRANCH   1  10
ATOM      5  C   UNL     1       6.609   3.856  13.032  0.00  0.00    +0.000 C 
ATOM      6  C   UNL     1       6.581   4.390  14.408  0.00  0.00    +0.000 A 
ATOM      7  N   UNL     1       7.310   5.356  14.927  0.00  0.00    +0.000 NA
ATOM      8  C   UNL     1       6.865   5.447  16.226  0.00  0.00    +0.000 A 
ATOM      9  C   UNL     1       7.428   6.434  17.171  0.00  0.00    +0.000 C 
ATOM     10  C   UNL     1       5.867   4.516  16.447  0.00  0.00    +0.000 A 
ATOM     11  O   UNL     1       5.681   3.825  15.273  0.00  0.00    +0.000 OA
ENDBRANCH   1  10
BRANCH   3  12
ATOM     12  C   UNL     1       2.781   4.079  18.501  0.00  0.00    +0.000 C 
BRANCH  12  13
ATOM     13  C   UNL     1       2.360   5.368  19.162  0.00  0.00    +0.000 A 
ATOM     14  C   UNL     1       1.751   5.355  20.427  0.00  0.00    +0.000 A 
ATOM     15  C   UNL     1       1.378   6.550  21.048  0.00  0.00    +0.000 A 
ATOM     16  C   UNL     1       1.603   7.763  20.404  0.00  0.00    +0.000 A 
ATOM     17 CL   UNL     1       1.157   9.237  21.172  0.00  0.00    +0.000 Cl
ATOM     18  C   UNL     1       2.190   7.792  19.141  0.00  0.00    +0.000 A 
ATOM     19  C   UNL     1       2.563   6.597  18.520  0.00  0.00    +0.000 A 
ENDBRANCH  12  13
ENDBRANCH   3  12
TORSDOF 3
ENDMDL
MODEL 8
REMARK VINA RESULT:      -6.9      1.647      2.102
REMARK  Name = 
REMARK  5 active torsions:
REMARK  status: ('A' for Active; 'I' for Inactive)
REMARK    1  A    between atoms: C_1  and  C_2
REMARK    2  A    between atoms: C_4  and  C_5
REMARK    3  A    between atoms: C_6  and  C_7
REMARK    4  A    between atoms: N_9  and  C_10
REMARK    5  A    between atoms: C_10  and  C_11
REMARK                            x       y       z     vdW  Elec       q    Type
REMARK                         _______ _______ _______ _____ _____    ______ ____
ROOT
ATOM      1  C   UNL     1       4.913   4.095  17.210  0.00  0.00    +0.000 C 
ATOM      2  O   UNL     1       5.314   3.757  18.320  0.00  0.00    +0.000 OA
ATOM      3  N   UNL     1       3.570   4.194  16.919  0.00  0.00    +0.000 N 
ATOM      4  H   UNL     1       3.302   4.414  15.968  0.00  0.00    +0.000 HD
ENDROOT
BRANCH   1  10
ATOM      5  C   UNL     1       6.800   3.956  12.743  0.00  0.00    +0.000 C 
ATOM      6  C   UNL     1       6.667   4.414  14.140  0.00  0.00    +0.000 A 
ATOM      7  N   UNL     1       7.355   5.345  14.767  0.00  0.00    +0.000 NA
ATOM      8  C   UNL     1       6.810   5.367  16.031  0.00  0.00    +0.000 A 
ATOM      9  C   UNL     1       7.300   6.297  17.070  0.00  0.00    +0.000 C 
ATOM     10  C   UNL     1       5.795   4.434  16.121  0.00  0.00    +0.000 A 
ATOM     11  O   UNL     1       5.700   3.810  14.900  0.00  0.00    +0.000 OA
ENDBRANCH   1  10
BRANCH   3  12
ATOM     12  C   UNL     1       2.557   3.921  17.905  0.00  0.00    +0.000 C 
BRANCH  12  13
ATOM     13  C   UNL     1       2.281   5.118  18.781  0.00  0.00    +0.000 A 
ATOM     14  C   UNL     1       2.517   6.417  18.306  0.00  0.00    +0.000 A 
ATOM     15  C   UNL     1       2.244   7.528  19.110  0.00  0.00    +0.000 A 
ATOM     16  C   UNL     1       1.743   7.344  20.395  0.00  0.00    +0.000 A 
ATOM     17 CL   UNL     1       1.394   8.710  21.382  0.00  0.00    +0.000 Cl
ATOM     18  C   UNL     1       1.521   6.060  20.888  0.00  0.00    +0.000 A 
ATOM     19  C   UNL     1       1.793   4.950  20.084  0.00  0.00    +0.000 A 
ENDBRANCH  12  13
ENDBRANCH   3  12
TORSDOF 3
ENDMDL
MODEL 9
REMARK VINA RESULT:      -6.7      1.025      1.549
REMARK  Name = 
REMARK  5 active torsions:
REMARK  status: ('A' for Active; 'I' for Inactive)
REMARK    1  A    between atoms: C_1  and  C_2
REMARK    2  A    between atoms: C_4  and  C_5
REMARK    3  A    between atoms: C_6  and  C_7
REMARK    4  A    between atoms: N_9  and  C_10
REMARK    5  A    between atoms: C_10  and  C_11
REMARK                            x       y       z     vdW  Elec       q    Type
REMARK                         _______ _______ _______ _____ _____    ______ ____
ROOT
ATOM      1  C   UNL     1       4.612   4.405  17.062  0.00  0.00    +0.000 C 
ATOM      2  O   UNL     1       4.439   3.314  17.601  0.00  0.00    +0.000 OA
ATOM      3  N   UNL     1       3.881   5.517  17.415  0.00  0.00    +0.000 N 
ATOM      4  H   UNL     1       4.025   6.370  16.890  0.00  0.00    +0.000 HD
ENDROOT
BRANCH   1  10
ATOM      5  C   UNL     1       6.751   4.020  12.725  0.00  0.00    +0.000 C 
ATOM      6  C   UNL     1       6.585   4.496  14.113  0.00  0.00    +0.000 A 
ATOM      7  N   UNL     1       7.341   5.337  14.786  0.00  0.00    +0.000 NA
ATOM      8  C   UNL     1       6.723   5.431  16.012  0.00  0.00    +0.000 A 
ATOM      9  C   UNL     1       7.256   6.298  17.085  0.00  0.00    +0.000 C 
ATOM     10  C   UNL     1       5.598   4.629  16.033  0.00  0.00    +0.000 A 
ATOM     11  O   UNL     1       5.505   4.017  14.806  0.00  0.00    +0.000 OA
ENDBRANCH   1  10
BRANCH   3  12
ATOM     12  C   UNL     1       2.878   5.470  18.449  0.00  0.00    +0.000 C 
BRANCH  12  13
ATOM     13  C   UNL     1       2.346   6.842  18.784  0.00  0.00    +0.000 A 
ATOM     14  C   UNL     1       1.912   7.139  20.085  0.00  0.00    +0.000 A 
ATOM     15  C   UNL     1       1.437   8.415  20.401  0.00  0.00    +0.000 A 
ATOM     16  C   UNL     1       1.385   9.397  19.416  0.00  0.00    +0.000 A 
ATOM     17 CL   UNL     1       0.813  10.972  19.805  0.00  0.00    +0.000 Cl
ATOM     18  C   UNL     1       1.795   9.111  18.115  0.00  0.00    +0.000 A 
ATOM     19  C   UNL     1       2.271   7.837  17.800  0.00  0.00    +0.000 A 
ENDBRANCH  12  13
ENDBRANCH   3  12
TORSDOF 3
ENDMDL
