MODEL 1
REMARK VINA RESULT:      -9.3      0.000      0.000
REMARK  Name = 
REMARK  4 active torsions:
REMARK  status: ('A' for Active; 'I' for Inactive)
REMARK    1  A    between atoms: C_1  and  C_2
REMARK    2  A    between atoms: C_5  and  C_7
REMARK    3  A    between atoms: C_9  and  C_10
REMARK    4  A    between atoms: C_10  and  N_11
REMARK                            x       y       z     vdW  Elec       q    Type
REMARK                         _______ _______ _______ _____ _____    ______ ____
ROOT
ATOM      1  C   UNL     1       2.698   6.777  19.086  0.00  0.00    +0.000 A 
ATOM      2  C   UNL     1       2.498   7.986  18.397  0.00  0.00    +0.000 A 
ATOM      3  C   UNL     1       1.590   8.948  18.862  0.00  0.00    +0.000 A 
ATOM      4  C   UNL     1       0.996   8.737  20.114  0.00  0.00    +0.000 A 
ATOM      5  C   UNL     1       1.283   7.589  20.861  0.00  0.00    +0.000 A 
ATOM      6  C   UNL     1       2.124   6.609  20.341  0.00  0.00    +0.000 A 
ATOM      7  F   UNL     1       2.334   5.504  21.071  0.00  0.00    +0.000 F 
ENDROOT
BRANCH   1  12
ATOM      8  C   UNL     1       3.948   1.972  19.196  0.00  0.00    +0.000 C 
ATOM      9  C   UNL     1       3.268   2.140  17.834  0.00  0.00    +0.000 C 
ATOM     10  C   UNL     1       3.561   3.539  17.233  0.00  0.00    +0.000 C 
ATOM     11  N   UNL     1       2.802   4.591  17.914  0.00  0.00    +0.000 N 
ATOM     12  C   UNL     1       3.483   5.679  18.470  0.00  0.00    +0.000 C 
ATOM     13  O   UNL     1       4.708   5.770  18.466  0.00  0.00    +0.000 OA
ATOM     14  C   UNL     1       1.366   4.305  18.027  0.00  0.00    +0.000 C 
ATOM     15  C   UNL     1       1.097   2.916  18.616  0.00  0.00    +0.000 C 
ATOM     16  N   UNL     1       1.815   1.839  17.919  0.00  0.00    +0.000 NA
ATOM     17  H   UNL     1       1.451   1.791  16.967  0.00  0.00    +0.000 HD
ENDBRANCH   1  12
BRANCH   3  18
ATOM     18  C   UNL     1       1.302  10.175  18.016  0.00  0.00    +0.000 C 
BRANCH  18  19
ATOM     19  N   UNL     1       0.263  11.082  18.545  0.00  0.00    +0.000 N 
ATOM     20  C   UNL     1       0.670  12.105  19.395  0.00  0.00    +0.000 A 
ATOM     21  O   UNL     1       1.843  12.364  19.642  0.00  0.00    +0.000 OA
ATOM     22  N   UNL     1      -0.315  12.833  20.008  0.00  0.00    +0.000 N 
ATOM     23  C   UNL     1      -1.663  12.661  19.879  0.00  0.00    +0.000 A 
ATOM     24  O   UNL     1      -2.465  13.278  20.571  0.00  0.00    +0.000 OA
ATOM     25  C   UNL     1      -2.090  11.684  18.871  0.00  0.00    +0.000 A 
ATOM     26  C   UNL     1      -3.452  11.576  18.562  0.00  0.00    +0.000 A 
ATOM     27  C   UNL     1      -3.870  10.653  17.602  0.00  0.00    +0.000 A 
ATOM     28  C   UNL     1      -2.931   9.824  17.002  0.00  0.00    +0.000 A 
ATOM     29  C   UNL     1      -1.578   9.919  17.341  0.00  0.00    +0.000 A 
ATOM     30  C   UNL     1      -1.124  10.884  18.249  0.00  0.00    +0.000 A 
ATOM     31  H   UNL     1      -0.012  13.512  20.686  0.00  0.00    +0.000 HD
ENDBRANCH  18  19
ENDBRANCH   3  18
TORSDOF 3
ENDMDL
MODEL 2
REMARK VINA RESULT:      -9.1      1.337      2.084
REMARK  Name = 
REMARK  4 active torsions:
REMARK  status: ('A' for Active; 'I' for Inactive)
REMARK    1  A    between atoms: C_1  and  C_2
REMARK    2  A    between atoms: C_5  and  C_7
REMARK    3  A    between atoms: C_9  and  C_10
REMARK    4  A    between atoms: C_10  and  N_11
REMARK                            x       y       z     vdW  Elec       q    Type
REMARK                         _______ _______ _______ _____ _____    ______ ____
ROOT
ATOM      1  C   UNL     1       2.275   6.518  18.973  0.00  0.00    +0.000 A 
ATOM      2  C   UNL     1       2.207   7.757  18.313  0.00  0.00    +0.000 A 
ATOM      3  C   UNL     1       1.645   8.882  18.932  0.00  0.00    +0.000 A 
ATOM      4  C   UNL     1       1.287   8.777  20.283  0.00  0.00    +0.000 A 
ATOM      5  C   UNL     1       1.464   7.577  20.982  0.00  0.00    +0.000 A 
ATOM      6  C   UNL     1       1.947   6.450  20.323  0.00  0.00    +0.000 A 
ATOM      7  F   UNL     1       2.055   5.310  21.019  0.00  0.00    +0.000 F 
ENDROOT
BRANCH   1  12
ATOM      8  C   UNL     1       5.192   4.468  15.517  0.00  0.00    +0.000 C 
ATOM      9  C   UNL     1       5.561   3.713  16.798  0.00  0.00    +0.000 C 
ATOM     10  C   UNL     1       4.324   3.537  17.717  0.00  0.00    +0.000 C 
ATOM     11  N   UNL     1       3.957   4.792  18.378  0.00  0.00    +0.000 N 
ATOM     12  C   UNL     1       2.658   5.290  18.235  0.00  0.00    +0.000 C 
ATOM     13  O   UNL     1       1.813   4.749  17.525  0.00  0.00    +0.000 OA
ATOM     14  C   UNL     1       5.081   5.457  19.050  0.00  0.00    +0.000 C 
ATOM     15  C   UNL     1       6.295   5.615  18.128  0.00  0.00    +0.000 C 
ATOM     16  N   UNL     1       6.708   4.358  17.488  0.00  0.00    +0.000 NA
ATOM     17  H   UNL     1       7.024   3.726  18.225  0.00  0.00    +0.000 HD
ENDBRANCH   1  12
BRANCH   3  18
ATOM     18  C   UNL     1       1.465  10.162  18.135  0.00  0.00    +0.000 C 
BRANCH  18  19
ATOM     19  N   UNL     1       0.411  11.073  18.625  0.00  0.00    +0.000 N 
ATOM     20  C   UNL     1       0.794  12.110  19.469  0.00  0.00    +0.000 A 
ATOM     21  O   UNL     1       1.960  12.376  19.741  0.00  0.00    +0.000 OA
ATOM     22  N   UNL     1      -0.208  12.844  20.047  0.00  0.00    +0.000 N 
ATOM     23  C   UNL     1      -1.552  12.665  19.889  0.00  0.00    +0.000 A 
ATOM     24  O   UNL     1      -2.372  13.290  20.551  0.00  0.00    +0.000 OA
ATOM     25  C   UNL     1      -1.951  11.672  18.884  0.00  0.00    +0.000 A 
ATOM     26  C   UNL     1      -3.305  11.555  18.544  0.00  0.00    +0.000 A 
ATOM     27  C   UNL     1      -3.696  10.617  17.588  0.00  0.00    +0.000 A 
ATOM     28  C   UNL     1      -2.741   9.782  17.023  0.00  0.00    +0.000 A 
ATOM     29  C   UNL     1      -1.397   9.887  17.394  0.00  0.00    +0.000 A 
ATOM     30  C   UNL     1      -0.968  10.866  18.298  0.00  0.00    +0.000 A 
ATOM     31  H   UNL     1       0.076  13.533  20.723  0.00  0.00    +0.000 HD
ENDBRANCH  18  19
ENDBRANCH   3  18
TORSDOF 3
ENDMDL
MODEL 3
REMARK VINA RESULT:      -8.4      2.557      3.903
REMARK  Name = 
REMARK  4 active torsions:
REMARK  status: ('A' for Active; 'I' for Inactive)
REMARK    1  A    between atoms: C_1  and  C_2
REMARK    2  A    between atoms: C_5  and  C_7
REMARK    3  A    between atoms: C_9  and  C_10
REMARK    4  A    between atoms: C_10  and  N_11
REMARK                            x       y       z     vdW  Elec       q    Type
REMARK                         _______ _______ _______ _____ _____    ______ ____
ROOT
ATOM      1  C   UNL     1       2.695   4.543  18.555  0.00  0.00    +0.000 A 
ATOM      2  C   UNL     1       2.998   5.885  18.843  0.00  0.00    +0.000 A 
ATOM      3  C   UNL     1       2.276   6.605  19.805  0.00  0.00    +0.000 A 
ATOM      4  C   UNL     1       1.340   5.906  20.580  0.00  0.00    +0.000 A 
ATOM      5  C   UNL     1       1.119   4.539  20.379  0.00  0.00    +0.000 A 
ATOM      6  C   UNL     1       1.788   3.865  19.362  0.00  0.00    +0.000 A 
ATOM      7  F   UNL     1       1.510   2.567  19.175  0.00  0.00    +0.000 F 
ENDROOT
BRANCH   1  12
ATOM      8  C   UNL     1       5.645   4.935  14.580  0.00  0.00    +0.000 C 
ATOM      9  C   UNL     1       6.345   3.887  15.449  0.00  0.00    +0.000 C 
ATOM     10  C   UNL     1       5.313   3.018  16.213  0.00  0.00    +0.000 C 
ATOM     11  N   UNL     1       4.700   3.753  17.322  0.00  0.00    +0.000 N 
ATOM     12  C   UNL     1       3.308   3.866  17.386  0.00  0.00    +0.000 C 
ATOM     13  O   UNL     1       2.564   3.422  16.515  0.00  0.00    +0.000 OA
ATOM     14  C   UNL     1       5.673   4.401  18.211  0.00  0.00    +0.000 C 
ATOM     15  C   UNL     1       6.688   5.250  17.437  0.00  0.00    +0.000 C 
ATOM     16  N   UNL     1       7.348   4.518  16.346  0.00  0.00    +0.000 NA
ATOM     17  H   UNL     1       7.903   3.771  16.767  0.00  0.00    +0.000 HD
ENDBRANCH   1  12
BRANCH   3  18
ATOM     18  C   UNL     1       2.543   8.088  19.986  0.00  0.00    +0.000 C 
BRANCH  18  19
ATOM     19  N   UNL     1       1.387   8.976  19.749  0.00  0.00    +0.000 N 
ATOM     20  C   UNL     1       1.098   9.323  18.434  0.00  0.00    +0.000 A 
ATOM     21  O   UNL     1       1.674   8.852  17.459  0.00  0.00    +0.000 OA
ATOM     22  N   UNL     1       0.132  10.274  18.239  0.00  0.00    +0.000 N 
ATOM     23  C   UNL     1      -0.582  10.929  19.202  0.00  0.00    +0.000 A 
ATOM     24  O   UNL     1      -1.333  11.859  18.934  0.00  0.00    +0.000 OA
ATOM     25  C   UNL     1      -0.383  10.455  20.578  0.00  0.00    +0.000 A 
ATOM     26  C   UNL     1      -1.203  10.959  21.596  0.00  0.00    +0.000 A 
ATOM     27  C   UNL     1      -1.026  10.515  22.906  0.00  0.00    +0.000 A 
ATOM     28  C   UNL     1      -0.008   9.612  23.186  0.00  0.00    +0.000 A 
ATOM     29  C   UNL     1       0.824   9.140  22.167  0.00  0.00    +0.000 A 
ATOM     30  C   UNL     1       0.624   9.516  20.834  0.00  0.00    +0.000 A 
ATOM     31  H   UNL     1      -0.009  10.582  17.291  0.00  0.00    +0.000 HD
ENDBRANCH  18  19
ENDBRANCH   3  18
TORSDOF 3
ENDMDL
MODEL 4
REMARK VINA RESULT:      -8.1      1.444      2.399
REMARK  Name = 
REMARK  4 active torsions:
REMARK  status: ('A' for Active; 'I' for Inactive)
REMARK    1  A    between atoms: C_1  and  C_2
REMARK    2  A    between atoms: C_5  and  C_7
REMARK    3  A    between atoms: C_9  and  C_10
REMARK    4  A    between atoms: C_10  and  N_11
REMARK                            x       y       z     vdW  Elec       q    Type
REMARK                         _______ _______ _______ _____ _____    ______ ____
ROOT
ATOM      1  C   UNL     1       2.527   6.861  19.208  0.00  0.00    +0.000 A 
ATOM      2  C   UNL     1       2.228   8.099  18.613  0.00  0.00    +0.000 A 
ATOM      3  C   UNL     1       1.320   8.989  19.202  0.00  0.00    +0.000 A 
ATOM      4  C   UNL     1       0.829   8.677  20.478  0.00  0.00    +0.000 A 
ATOM      5  C   UNL     1       1.217   7.501  21.128  0.00  0.00    +0.000 A 
ATOM      6  C   UNL     1       2.055   6.592  20.488  0.00  0.00    +0.000 A 
ATOM      7  F   UNL     1       2.362   5.456  21.130  0.00  0.00    +0.000 F 
ENDROOT
BRANCH   1  12
ATOM      8  C   UNL     1       4.201   2.187  19.070  0.00  0.00    +0.000 C 
ATOM      9  C   UNL     1       3.315   2.293  17.825  0.00  0.00    +0.000 C 
ATOM     10  C   UNL     1       3.391   3.713  17.206  0.00  0.00    +0.000 C 
ATOM     11  N   UNL     1       2.651   4.693  18.005  0.00  0.00    +0.000 N 
ATOM     12  C   UNL     1       3.307   5.837  18.469  0.00  0.00    +0.000 C 
ATOM     13  O   UNL     1       4.505   6.038  18.286  0.00  0.00    +0.000 OA
ATOM     14  C   UNL     1       1.278   4.279  18.324  0.00  0.00    +0.000 C 
ATOM     15  C   UNL     1       1.224   2.871  18.928  0.00  0.00    +0.000 C 
ATOM     16  N   UNL     1       1.924   1.863  18.119  0.00  0.00    +0.000 NA
ATOM     17  H   UNL     1       1.428   1.782  17.230  0.00  0.00    +0.000 HD
ENDBRANCH   1  12
BRANCH   3  18
ATOM     18  C   UNL     1       0.922  10.252  18.459  0.00  0.00    +0.000 C 
BRANCH  18  19
ATOM     19  N   UNL     1      -0.448  10.739  18.721  0.00  0.00    +0.000 N 
ATOM     20  C   UNL     1      -1.465  10.285  17.888  0.00  0.00    +0.000 A 
ATOM     21  O   UNL     1      -1.312   9.427  17.024  0.00  0.00    +0.000 OA
ATOM     22  N   UNL     1      -2.696  10.868  18.035  0.00  0.00    +0.000 N 
ATOM     23  C   UNL     1      -3.036  11.857  18.912  0.00  0.00    +0.000 A 
ATOM     24  O   UNL     1      -4.131  12.407  18.879  0.00  0.00    +0.000 OA
ATOM     25  C   UNL     1      -2.005  12.228  19.889  0.00  0.00    +0.000 A 
ATOM     26  C   UNL     1      -2.335  13.110  20.926  0.00  0.00    +0.000 A 
ATOM     27  C   UNL     1      -1.365  13.467  21.862  0.00  0.00    +0.000 A 
ATOM     28  C   UNL     1      -0.073  12.977  21.723  0.00  0.00    +0.000 A 
ATOM     29  C   UNL     1       0.253  12.122  20.667  0.00  0.00    +0.000 A 
ATOM     30  C   UNL     1      -0.718  11.693  19.754  0.00  0.00    +0.000 A 
ATOM     31  H   UNL     1      -3.402  10.596  17.370  0.00  0.00    +0.000 HD
ENDBRANCH  18  19
ENDBRANCH   3  18
TORSDOF 3
ENDMDL
MODEL 5
REMARK VINA RESULT:      -8.0      2.419      8.817
REMARK  Name = 
REMARK  4 active torsions:
REMARK  status: ('A' for Active; 'I' for Inactive)
REMARK    1  A    between atoms: C_1  and  C_2
REMARK    2  A    between atoms: C_5  and  C_7
REMARK    3  A    between atoms: C_9  and  C_10
REMARK    4  A    between atoms: C_10  and  N_11
REMARK                            x       y       z     vdW  Elec       q    Type
REMARK                         _______ _______ _______ _____ _____    ______ ____
ROOT
ATOM      1  C   UNL     1       0.509   9.887  19.088  0.00  0.00    +0.000 A 
ATOM      2  C   UNL     1       1.168   9.132  18.103  0.00  0.00    +0.000 A 
ATOM      3  C   UNL     1       2.037   8.087  18.445  0.00  0.00    +0.000 A 
ATOM      4  C   UNL     1       2.118   7.717  19.794  0.00  0.00    +0.000 A 
ATOM      5  C   UNL     1       1.370   8.389  20.769  0.00  0.00    +0.000 A 
ATOM      6  C   UNL     1       0.578   9.477  20.415  0.00  0.00    +0.000 A 
ATOM      7  F   UNL     1      -0.083  10.120  21.388  0.00  0.00    +0.000 F 
ENDROOT
BRANCH   1  12
ATOM      8  C   UNL     1      -1.064  14.374  20.523  0.00  0.00    +0.000 C 
ATOM      9  C   UNL     1      -0.137  14.674  19.341  0.00  0.00    +0.000 C 
ATOM     10  C   UNL     1      -0.220  13.556  18.270  0.00  0.00    +0.000 C 
ATOM     11  N   UNL     1       0.472  12.339  18.702  0.00  0.00    +0.000 N 
ATOM     12  C   UNL     1      -0.223  11.126  18.726  0.00  0.00    +0.000 C 
ATOM     13  O   UNL     1      -1.418  11.038  18.454  0.00  0.00    +0.000 OA
ATOM     14  C   UNL     1       1.840  12.575  19.180  0.00  0.00    +0.000 C 
ATOM     15  C   UNL     1       1.902  13.688  20.232  0.00  0.00    +0.000 C 
ATOM     16  N   UNL     1       1.252  14.933  19.802  0.00  0.00    +0.000 NA
ATOM     17  H   UNL     1       1.780  15.299  19.008  0.00  0.00    +0.000 HD
ENDBRANCH   1  12
BRANCH   3  18
ATOM     18  C   UNL     1       2.834   7.390  17.357  0.00  0.00    +0.000 C 
BRANCH  18  19
ATOM     19  N   UNL     1       3.541   6.162  17.774  0.00  0.00    +0.000 N 
ATOM     20  C   UNL     1       2.771   5.039  18.059  0.00  0.00    +0.000 A 
ATOM     21  O   UNL     1       1.559   4.976  17.881  0.00  0.00    +0.000 OA
ATOM     22  N   UNL     1       3.420   3.962  18.603  0.00  0.00    +0.000 N 
ATOM     23  C   UNL     1       4.748   3.870  18.902  0.00  0.00    +0.000 A 
ATOM     24  O   UNL     1       5.212   2.911  19.508  0.00  0.00    +0.000 OA
ATOM     25  C   UNL     1       5.583   4.995  18.463  0.00  0.00    +0.000 A 
ATOM     26  C   UNL     1       6.975   4.897  18.581  0.00  0.00    +0.000 A 
ATOM     27  C   UNL     1       7.778   5.958  18.165  0.00  0.00    +0.000 A 
ATOM     28  C   UNL     1       7.180   7.115  17.681  0.00  0.00    +0.000 A 
ATOM     29  C   UNL     1       5.788   7.214  17.597  0.00  0.00    +0.000 A 
ATOM     30  C   UNL     1       4.962   6.137  17.943  0.00  0.00    +0.000 A 
ATOM     31  H   UNL     1       2.841   3.188  18.886  0.00  0.00    +0.000 HD
ENDBRANCH  18  19
ENDBRANCH   3  18
TORSDOF 3
ENDMDL
MODEL 6
REMARK VINA RESULT:      -8.0      1.430      1.831
REMARK  Name = 
REMARK  4 active torsions:
REMARK  status: ('A' for Active; 'I' for Inactive)
REMARK    1  A    between atoms: C_1  and  C_2
REMARK    2  A    between atoms: C_5  and  C_7
REMARK    3  A    between atoms: C_9  and  C_10
REMARK    4  A    between atoms: C_10  and  N_11
REMARK                            x       y       z     vdW  Elec       q    Type
REMARK                         _______ _______ _______ _____ _____    ______ ____
ROOT
ATOM      1  C   UNL     1       3.037   6.805  18.751  0.00  0.00    +0.000 A 
ATOM      2  C   UNL     1       2.037   7.304  19.604  0.00  0.00    +0.000 A 
ATOM      3  C   UNL     1       1.503   8.589  19.427  0.00  0.00    +0.000 A 
ATOM      4  C   UNL     1       1.887   9.307  18.287  0.00  0.00    +0.000 A 
ATOM      5  C   UNL     1       2.794   8.765  17.368  0.00  0.00    +0.000 A 
ATOM      6  C   UNL     1       3.373   7.522  17.608  0.00  0.00    +0.000 A 
ATOM      7  F   UNL     1       4.272   7.063  16.726  0.00  0.00    +0.000 F 
ENDROOT
BRANCH   1  12
ATOM      8  C   UNL     1       2.887   2.401  21.040  0.00  0.00    +0.000 C 
ATOM      9  C   UNL     1       3.098   2.037  19.568  0.00  0.00    +0.000 C 
ATOM     10  C   UNL     1       3.980   3.095  18.854  0.00  0.00    +0.000 C 
ATOM     11  N   UNL     1       3.242   4.335  18.603  0.00  0.00    +0.000 N 
ATOM     12  C   UNL     1       3.750   5.547  19.081  0.00  0.00    +0.000 C 
ATOM     13  O   UNL     1       4.770   5.617  19.762  0.00  0.00    +0.000 OA
ATOM     14  C   UNL     1       1.947   4.129  17.941  0.00  0.00    +0.000 C 
ATOM     15  C   UNL     1       1.093   3.075  18.657  0.00  0.00    +0.000 C 
ATOM     16  N   UNL     1       1.801   1.807  18.881  0.00  0.00    +0.000 NA
ATOM     17  H   UNL     1       2.001   1.399  17.966  0.00  0.00    +0.000 HD
ENDBRANCH   1  12
BRANCH   3  18
ATOM     18  C   UNL     1       0.527   9.140  20.451  0.00  0.00    +0.000 C 
BRANCH  18  19
ATOM     19  N   UNL     1      -0.026  10.475  20.147  0.00  0.00    +0.000 N 
ATOM     20  C   UNL     1       0.557  11.573  20.771  0.00  0.00    +0.000 A 
ATOM     21  O   UNL     1       1.564  11.510  21.468  0.00  0.00    +0.000 OA
ATOM     22  N   UNL     1      -0.067  12.782  20.612  0.00  0.00    +0.000 N 
ATOM     23  C   UNL     1      -1.210  13.030  19.907  0.00  0.00    +0.000 A 
ATOM     24  O   UNL     1      -1.764  14.123  19.932  0.00  0.00    +0.000 OA
ATOM     25  C   UNL     1      -1.738  11.903  19.129  0.00  0.00    +0.000 A 
ATOM     26  C   UNL     1      -2.805  12.125  18.249  0.00  0.00    +0.000 A 
ATOM     27  C   UNL     1      -3.313  11.063  17.501  0.00  0.00    +0.000 A 
ATOM     28  C   UNL     1      -2.781   9.792  17.676  0.00  0.00    +0.000 A 
ATOM     29  C   UNL     1      -1.737   9.576  18.580  0.00  0.00    +0.000 A 
ATOM     30  C   UNL     1      -1.162  10.637  19.291  0.00  0.00    +0.000 A 
ATOM     31  H   UNL     1       0.312  13.553  21.138  0.00  0.00    +0.000 HD
ENDBRANCH  18  19
ENDBRANCH   3  18
TORSDOF 3
ENDMDL
MODEL 7
REMARK VINA RESULT:      -7.9      2.100      3.540
REMARK  Name = 
REMARK  4 active torsions:
REMARK  status: ('A' for Active; 'I' for Inactive)
REMARK    1  A    between atoms: C_1  and  C_2
REMARK    2  A    between atoms: C_5  and  C_7
REMARK    3  A    between atoms: C_9  and  C_10
REMARK    4  A    between atoms: C_10  and  N_11
REMARK                            x       y       z     vdW  Elec       q    Type
REMARK                         _______ _______ _______ _____ _____    ______ ____
ROOT
ATOM      1  C   UNL     1       2.738   6.429  18.668  0.00  0.00    +0.000 A 
ATOM      2  C   UNL     1       2.481   7.674  18.069  0.00  0.00    +0.000 A 
ATOM      3  C   UNL     1       1.762   8.672  18.741  0.00  0.00    +0.000 A 
ATOM      4  C   UNL     1       1.432   8.449  20.085  0.00  0.00    +0.000 A 
ATOM      5  C   UNL     1       1.791   7.257  20.725  0.00  0.00    +0.000 A 
ATOM      6  C   UNL     1       2.432   6.248  20.013  0.00  0.00    +0.000 A 
ATOM      7  F   UNL     1       2.714   5.104  20.653  0.00  0.00    +0.000 F 
ENDROOT
BRANCH   1  12
ATOM      8  C   UNL     1       5.563   5.044  14.826  0.00  0.00    +0.000 C 
ATOM      9  C   UNL     1       6.267   4.424  16.037  0.00  0.00    +0.000 C 
ATOM     10  C   UNL     1       5.241   3.984  17.113  0.00  0.00    +0.000 C 
ATOM     11  N   UNL     1       4.682   5.132  17.831  0.00  0.00    +0.000 N 
ATOM     12  C   UNL     1       3.296   5.308  17.871  0.00  0.00    +0.000 C 
ATOM     13  O   UNL     1       2.514   4.571  17.277  0.00  0.00    +0.000 OA
ATOM     14  C   UNL     1       5.699   6.055  18.352  0.00  0.00    +0.000 C 
ATOM     15  C   UNL     1       6.707   6.473  17.276  0.00  0.00    +0.000 C 
ATOM     16  N   UNL     1       7.313   5.334  16.572  0.00  0.00    +0.000 NA
ATOM     17  H   UNL     1       7.864   4.808  17.252  0.00  0.00    +0.000 HD
ENDBRANCH   1  12
BRANCH   3  18
ATOM     18  C   UNL     1       1.388   9.947  18.008  0.00  0.00    +0.000 C 
BRANCH  18  19
ATOM     19  N   UNL     1       0.250  10.697  18.576  0.00  0.00    +0.000 N 
ATOM     20  C   UNL     1      -1.030  10.337  18.167  0.00  0.00    +0.000 A 
ATOM     21  O   UNL     1      -1.274   9.370  17.453  0.00  0.00    +0.000 OA
ATOM     22  N   UNL     1      -2.062  11.142  18.570  0.00  0.00    +0.000 N 
ATOM     23  C   UNL     1      -1.972  12.273  19.331  0.00  0.00    +0.000 A 
ATOM     24  O   UNL     1      -2.938  13.000  19.529  0.00  0.00    +0.000 OA
ATOM     25  C   UNL     1      -0.645  12.567  19.885  0.00  0.00    +0.000 A 
ATOM     26  C   UNL     1      -0.510  13.609  20.810  0.00  0.00    +0.000 A 
ATOM     27  C   UNL     1       0.746  13.896  21.346  0.00  0.00    +0.000 A 
ATOM     28  C   UNL     1       1.850  13.171  20.917  0.00  0.00    +0.000 A 
ATOM     29  C   UNL     1       1.708  12.153  19.970  0.00  0.00    +0.000 A 
ATOM     30  C   UNL     1       0.450  11.799  19.468  0.00  0.00    +0.000 A 
ATOM     31  H   UNL     1      -2.971  10.924  18.197  0.00  0.00    +0.000 HD
ENDBRANCH  18  19
ENDBRANCH   3  18
TORSDOF 3
ENDMDL
MODEL 8
REMARK VINA RESULT:      -7.9      1.338      2.684
REMARK  Name = 
REMARK  4 active torsions:
REMARK  status: ('A' for Active; 'I' for Inactive)
REMARK    1  A    between atoms: C_1  and  C_2
REMARK    2  A    between atoms: C_5  and  C_7
REMARK    3  A    between atoms: C_9  and  C_10
REMARK    4  A    between atoms: C_10  and  N_11
REMARK                            x       y       z     vdW  Elec       q    Type
REMARK                         _______ _______ _______ _____ _____    ______ ____
ROOT
ATOM      1  C   UNL     1       2.619   6.835  19.052  0.00  0.00    +0.000 A 
ATOM      2  C   UNL     1       2.298   8.045  18.414  0.00  0.00    +0.000 A 
ATOM      3  C   UNL     1       1.404   8.959  18.990  0.00  0.00    +0.000 A 
ATOM      4  C   UNL     1       0.952   8.701  20.292  0.00  0.00    +0.000 A 
ATOM      5  C   UNL     1       1.364   7.555  20.981  0.00  0.00    +0.000 A 
ATOM      6  C   UNL     1       2.186   6.621  20.357  0.00  0.00    +0.000 A 
ATOM      7  F   UNL     1       2.516   5.515  21.037  0.00  0.00    +0.000 F 
ENDROOT
BRANCH   1  12
ATOM      8  C   UNL     1       4.216   2.133  19.018  0.00  0.00    +0.000 C 
ATOM      9  C   UNL     1       3.330   2.225  17.772  0.00  0.00    +0.000 C 
ATOM     10  C   UNL     1       3.428   3.629  17.121  0.00  0.00    +0.000 C 
ATOM     11  N   UNL     1       2.705   4.639  17.899  0.00  0.00    +0.000 N 
ATOM     12  C   UNL     1       3.380   5.783  18.335  0.00  0.00    +0.000 C 
ATOM     13  O   UNL     1       4.581   5.959  18.146  0.00  0.00    +0.000 OA
ATOM     14  C   UNL     1       1.326   4.255  18.229  0.00  0.00    +0.000 C 
ATOM     15  C   UNL     1       1.250   2.862  18.865  0.00  0.00    +0.000 C 
ATOM     16  N   UNL     1       1.931   1.825  18.078  0.00  0.00    +0.000 NA
ATOM     17  H   UNL     1       1.433   1.732  17.192  0.00  0.00    +0.000 HD
ENDBRANCH   1  12
BRANCH   3  18
ATOM     18  C   UNL     1       0.979  10.187  18.205  0.00  0.00    +0.000 C 
BRANCH  18  19
ATOM     19  N   UNL     1       0.067  11.109  18.912  0.00  0.00    +0.000 N 
ATOM     20  C   UNL     1      -1.300  10.906  18.762  0.00  0.00    +0.000 A 
ATOM     21  O   UNL     1      -1.790   9.948  18.172  0.00  0.00    +0.000 OA
ATOM     22  N   UNL     1      -2.132  11.862  19.283  0.00  0.00    +0.000 N 
ATOM     23  C   UNL     1      -1.763  13.004  19.934  0.00  0.00    +0.000 A 
ATOM     24  O   UNL     1      -2.578  13.863  20.249  0.00  0.00    +0.000 OA
ATOM     25  C   UNL     1      -0.330  13.141  20.222  0.00  0.00    +0.000 A 
ATOM     26  C   UNL     1       0.102  14.198  21.034  0.00  0.00    +0.000 A 
ATOM     27  C   UNL     1       1.460  14.338  21.317  0.00  0.00    +0.000 A 
ATOM     28  C   UNL     1       2.368  13.451  20.752  0.00  0.00    +0.000 A 
ATOM     29  C   UNL     1       1.928  12.419  19.918  0.00  0.00    +0.000 A 
ATOM     30  C   UNL     1       0.564  12.214  19.674  0.00  0.00    +0.000 A 
ATOM     31  H   UNL     1      -3.114  11.751  19.094  0.00  0.00    +0.000 HD
ENDBRANCH  18  19
ENDBRANCH   3  18
TORSDOF 3
ENDMDL
MODEL 9
REMARK VINA RESULT:      -7.8      1.958      3.179
REMARK  Name = 
REMARK  4 active torsions:
REMARK  status: ('A' for Active; 'I' for Inactive)
REMARK    1  A    between atoms: C_1  and  C_2
REMARK    2  A    between atoms: C_5  and  C_7
REMARK    3  A    between atoms: C_9  and  C_10
REMARK    4  A    between atoms: C_10  and  N_11
REMARK                            x       y       z     vdW  Elec       q    Type
REMARK                         _______ _______ _______ _____ _____    ______ ____
ROOT
ATOM      1  C   UNL     1       2.267   6.461  19.091  0.00  0.00    +0.000 A 
ATOM      2  C   UNL     1       2.079   7.742  18.545  0.00  0.00    +0.000 A 
ATOM      3  C   UNL     1       1.489   8.772  19.290  0.00  0.00    +0.000 A 
ATOM      4  C   UNL     1       1.228   8.534  20.646  0.00  0.00    +0.000 A 
ATOM      5  C   UNL     1       1.525   7.296  21.228  0.00  0.00    +0.000 A 
ATOM      6  C   UNL     1       2.033   6.261  20.448  0.00  0.00    +0.000 A 
ATOM      7  F   UNL     1       2.257   5.078  21.037  0.00  0.00    +0.000 F 
ENDROOT
BRANCH   1  12
ATOM      8  C   UNL     1       5.281   4.828  15.499  0.00  0.00    +0.000 C 
ATOM      9  C   UNL     1       5.626   3.936  16.695  0.00  0.00    +0.000 C 
ATOM     10  C   UNL     1       4.370   3.651  17.558  0.00  0.00    +0.000 C 
ATOM     11  N   UNL     1       3.977   4.822  18.347  0.00  0.00    +0.000 N 
ATOM     12  C   UNL     1       2.678   5.325  18.229  0.00  0.00    +0.000 C 
ATOM     13  O   UNL     1       1.854   4.863  17.443  0.00  0.00    +0.000 OA
ATOM     14  C   UNL     1       5.079   5.413  19.117  0.00  0.00    +0.000 C 
ATOM     15  C   UNL     1       6.314   5.680  18.248  0.00  0.00    +0.000 C 
ATOM     16  N   UNL     1       6.751   4.506  17.481  0.00  0.00    +0.000 NA
ATOM     17  H   UNL     1       7.055   3.795  18.149  0.00  0.00    +0.000 HD
ENDBRANCH   1  12
BRANCH   3  18
ATOM     18  C   UNL     1       1.178  10.098  18.618  0.00  0.00    +0.000 C 
BRANCH  18  19
ATOM     19  N   UNL     1      -0.210  10.578  18.770  0.00  0.00    +0.000 N 
ATOM     20  C   UNL     1      -1.154  10.124  17.855  0.00  0.00    +0.000 A 
ATOM     21  O   UNL     1      -0.928   9.270  17.003  0.00  0.00    +0.000 OA
ATOM     22  N   UNL     1      -2.396  10.701  17.904  0.00  0.00    +0.000 N 
ATOM     23  C   UNL     1      -2.810  11.684  18.755  0.00  0.00    +0.000 A 
ATOM     24  O   UNL     1      -3.901  12.229  18.635  0.00  0.00    +0.000 OA
ATOM     25  C   UNL     1      -1.864  12.055  19.814  0.00  0.00    +0.000 A 
ATOM     26  C   UNL     1      -2.281  12.931  20.825  0.00  0.00    +0.000 A 
ATOM     27  C   UNL     1      -1.392  13.287  21.838  0.00  0.00    +0.000 A 
ATOM     28  C   UNL     1      -0.091  12.803  21.802  0.00  0.00    +0.000 A 
ATOM     29  C   UNL     1       0.324  11.955  20.772  0.00  0.00    +0.000 A 
ATOM     30  C   UNL     1      -0.568  11.526  19.782  0.00  0.00    +0.000 A 
ATOM     31  H   UNL     1      -3.044  10.429  17.183  0.00  0.00    +0.000 HD
ENDBRANCH  18  19
ENDBRANCH   3  18
TORSDOF 3
ENDMDL
