MODEL 1
REMARK VINA RESULT:      -8.1      0.000      0.000
REMARK  Name = 
REMARK  10 active torsions:
REMARK  status: ('A' for Active; 'I' for Inactive)
REMARK    1  A    between atoms: C_1  and  O_2
REMARK    2  A    between atoms: O_2  and  C_3
REMARK    3  A    between atoms: N_5  and  N_6
REMARK    4  A    between atoms: C_7  and  C_8
REMARK    5  A    between atoms: N_10  and  C_11
REMARK    6  A    between atoms: C_11  and  C_12
REMARK    7  A    between atoms: C_12  and  C_13
REMARK    8  A    between atoms: C_13  and  O_14
REMARK    9  A    between atoms: O_14  and  C_15
REMARK   10  A    between atoms: C_18  and  C_19
REMARK                            x       y       z     vdW  Elec       q    Type
REMARK                         _______ _______ _______ _____ _____    ______ ____
ROOT
ATOM      1  C   UNL     1       3.020   6.142  18.194  0.00  0.00    +0.000 A 
ATOM      2  C   UNL     1       4.400   6.225  18.210  0.00  0.00    +0.000 A 
ATOM      3  N   UNL     1       4.919   4.961  18.284  0.00  0.00    +0.000 N 
ATOM      4  C   UNL     1       3.899   4.033  18.311  0.00  0.00    +0.000 A 
ATOM      5  C   UNL     1       3.930   2.634  18.382  0.00  0.00    +0.000 A 
ATOM      6  C   UNL     1       2.714   1.946  18.399  0.00  0.00    +0.000 A 
ATOM      7  C   UNL     1       1.505   2.629  18.343  0.00  0.00    +0.000 A 
ATOM      8  C   UNL     1       1.481   4.026  18.274  0.00  0.00    +0.000 A 
ATOM      9  C   UNL     1       2.695   4.749  18.258  0.00  0.00    +0.000 A 
ENDROOT
BRANCH   1  11
ATOM     10  N   UNL     1       2.615   8.434  17.826  0.00  0.00    +0.000 NA
ATOM     11  C   UNL     1       2.120   7.277  18.125  0.00  0.00    +0.000 C 
BRANCH  10  14
ATOM     12  C   UNL     1       1.100   9.907  18.899  0.00  0.00    +0.000 C 
ATOM     13  O   UNL     1       1.200   9.418  20.016  0.00  0.00    +0.000 OA
ATOM     14  N   UNL     1       1.751   9.484  17.762  0.00  0.00    +0.000 N 
ATOM     15  H   UNL     1       1.586   9.984  16.899  0.00  0.00    +0.000 HD
BRANCH  12  17
ATOM     16  C   UNL     1      -1.076  10.642  18.512  0.00  0.00    +0.000 C 
ATOM     17  O   UNL     1       0.311  10.976  18.600  0.00  0.00    +0.000 OA
ENDBRANCH  12  17
ENDBRANCH  10  14
ENDBRANCH   1  11
BRANCH   3  18
ATOM     18  C   UNL     1       6.341   4.666  18.370  0.00  0.00    +0.000 C 
BRANCH  18  19
ATOM     19  C   UNL     1       7.246   5.750  17.787  0.00  0.00    +0.000 C 
BRANCH  19  20
ATOM     20  C   UNL     1       6.814   6.181  16.392  0.00  0.00    +0.000 C 
BRANCH  20  21
ATOM     21  O   UNL     1       7.685   5.584  15.429  0.00  0.00    +0.000 OA
BRANCH  21  22
ATOM     22  C   UNL     1       7.051   4.895  14.426  0.00  0.00    +0.000 A 
ATOM     23  C   UNL     1       7.565   4.689  13.144  0.00  0.00    +0.000 A 
ATOM     24  C   UNL     1       6.817   4.014  12.180  0.00  0.00    +0.000 A 
ATOM     25  C   UNL     1       5.545   3.528  12.485  0.00  0.00    +0.000 A 
ATOM     26  C   UNL     1       4.721   2.855  11.431  0.00  0.00    +0.000 C 
ATOM     27  C   UNL     1       5.047   3.692  13.783  0.00  0.00    +0.000 A 
ATOM     28  C   UNL     1       5.795   4.377  14.746  0.00  0.00    +0.000 A 
ENDBRANCH  21  22
ENDBRANCH  20  21
ENDBRANCH  19  20
ENDBRANCH  18  19
ENDBRANCH   3  18
TORSDOF 8
ENDMDL
MODEL 2
REMARK VINA RESULT:      -8.1      2.607      8.617
REMARK  Name = 
REMARK  10 active torsions:
REMARK  status: ('A' for Active; 'I' for Inactive)
REMARK    1  A    between atoms: C_1  and  O_2
REMARK    2  A    between atoms: O_2  and  C_3
REMARK    3  A    between atoms: N_5  and  N_6
REMARK    4  A    between atoms: C_7  and  C_8
REMARK    5  A    between atoms: N_10  and  C_11
REMARK    6  A    between atoms: C_11  and  C_12
REMARK    7  A    between atoms: C_12  and  C_13
REMARK    8  A    between atoms: C_13  and  O_14
REMARK    9  A    between atoms: O_14  and  C_15
REMARK   10  A    between atoms: C_18  and  C_19
REMARK                            x       y       z     vdW  Elec       q    Type
REMARK                         _______ _______ _______ _____ _____    ______ ____
ROOT
ATOM      1  C   UNL     1       4.334   4.254  16.764  0.00  0.00    +0.000 A 
ATOM      2  C   UNL     1       4.464   5.560  17.198  0.00  0.00    +0.000 A 
ATOM      3  N   UNL     1       3.520   5.804  18.158  0.00  0.00    +0.000 N 
ATOM      4  C   UNL     1       2.765   4.671  18.375  0.00  0.00    +0.000 A 
ATOM      5  C   UNL     1       1.695   4.432  19.249  0.00  0.00    +0.000 A 
ATOM      6  C   UNL     1       1.109   3.164  19.246  0.00  0.00    +0.000 A 
ATOM      7  C   UNL     1       1.577   2.163  18.402  0.00  0.00    +0.000 A 
ATOM      8  C   UNL     1       2.643   2.408  17.531  0.00  0.00    +0.000 A 
ATOM      9  C   UNL     1       3.253   3.682  17.510  0.00  0.00    +0.000 A 
ENDROOT
BRANCH   1  11
ATOM     10  N   UNL     1       5.585   4.363  14.771  0.00  0.00    +0.000 NA
ATOM     11  C   UNL     1       5.158   3.630  15.746  0.00  0.00    +0.000 C 
BRANCH  10  14
ATOM     12  C   UNL     1       5.809   3.376  12.627  0.00  0.00    +0.000 C 
ATOM     13  O   UNL     1       4.641   3.512  12.290  0.00  0.00    +0.000 OA
ATOM     14  N   UNL     1       6.361   3.758  13.830  0.00  0.00    +0.000 N 
ATOM     15  H   UNL     1       7.348   3.596  13.979  0.00  0.00    +0.000 HD
BRANCH  12  17
ATOM     16  C   UNL     1       6.361   1.585  11.245  0.00  0.00    +0.000 C 
ATOM     17  O   UNL     1       6.772   2.817  11.842  0.00  0.00    +0.000 OA
ENDBRANCH  12  17
ENDBRANCH  10  14
ENDBRANCH   1  11
BRANCH   3  18
ATOM     18  C   UNL     1       3.329   7.093  18.806  0.00  0.00    +0.000 C 
BRANCH  18  19
ATOM     19  C   UNL     1       2.714   8.164  17.908  0.00  0.00    +0.000 C 
BRANCH  19  20
ATOM     20  C   UNL     1       1.548   8.883  18.573  0.00  0.00    +0.000 C 
BRANCH  20  21
ATOM     21  O   UNL     1       1.400   8.396  19.909  0.00  0.00    +0.000 OA
BRANCH  21  22
ATOM     22  C   UNL     1       0.696   9.220  20.749  0.00  0.00    +0.000 A 
ATOM     23  C   UNL     1       0.616   9.075  22.136  0.00  0.00    +0.000 A 
ATOM     24  C   UNL     1      -0.168   9.942  22.895  0.00  0.00    +0.000 A 
ATOM     25  C   UNL     1      -0.882  10.972  22.280  0.00  0.00    +0.000 A 
ATOM     26  C   UNL     1      -1.769  11.865  23.092  0.00  0.00    +0.000 C 
ATOM     27  C   UNL     1      -0.767  11.148  20.897  0.00  0.00    +0.000 A 
ATOM     28  C   UNL     1       0.014  10.272  20.135  0.00  0.00    +0.000 A 
ENDBRANCH  21  22
ENDBRANCH  20  21
ENDBRANCH  19  20
ENDBRANCH  18  19
ENDBRANCH   3  18
TORSDOF 8
ENDMDL
MODEL 3
REMARK VINA RESULT:      -8.1      1.881      8.047
REMARK  Name = 
REMARK  10 active torsions:
REMARK  status: ('A' for Active; 'I' for Inactive)
REMARK    1  A    between atoms: C_1  and  O_2
REMARK    2  A    between atoms: O_2  and  C_3
REMARK    3  A    between atoms: N_5  and  N_6
REMARK    4  A    between atoms: C_7  and  C_8
REMARK    5  A    between atoms: N_10  and  C_11
REMARK    6  A    between atoms: C_11  and  C_12
REMARK    7  A    between atoms: C_12  and  C_13
REMARK    8  A    between atoms: C_13  and  O_14
REMARK    9  A    between atoms: O_14  and  C_15
REMARK   10  A    between atoms: C_18  and  C_19
REMARK                            x       y       z     vdW  Elec       q    Type
REMARK                         _______ _______ _______ _____ _____    ______ ____
ROOT
ATOM      1  C   UNL     1       3.153   6.106  18.249  0.00  0.00    +0.000 A 
ATOM      2  C   UNL     1       2.785   7.084  19.153  0.00  0.00    +0.000 A 
ATOM      3  N   UNL     1       1.936   6.536  20.077  0.00  0.00    +0.000 N 
ATOM      4  C   UNL     1       1.740   5.199  19.802  0.00  0.00    +0.000 A 
ATOM      5  C   UNL     1       0.967   4.229  20.455  0.00  0.00    +0.000 A 
ATOM      6  C   UNL     1       0.956   2.933  19.936  0.00  0.00    +0.000 A 
ATOM      7  C   UNL     1       1.695   2.610  18.804  0.00  0.00    +0.000 A 
ATOM      8  C   UNL     1       2.463   3.582  18.155  0.00  0.00    +0.000 A 
ATOM      9  C   UNL     1       2.492   4.903  18.656  0.00  0.00    +0.000 A 
ENDROOT
BRANCH   1  11
ATOM     10  N   UNL     1       4.962   5.428  16.899  0.00  0.00    +0.000 NA
ATOM     11  C   UNL     1       4.041   6.309  17.120  0.00  0.00    +0.000 C 
BRANCH  10  14
ATOM     12  C   UNL     1       7.074   5.166  15.856  0.00  0.00    +0.000 C 
ATOM     13  O   UNL     1       7.608   4.561  16.776  0.00  0.00    +0.000 OA
ATOM     14  N   UNL     1       5.780   5.637  15.832  0.00  0.00    +0.000 N 
ATOM     15  H   UNL     1       5.458   6.115  15.000  0.00  0.00    +0.000 HD
BRANCH  12  17
ATOM     16  C   UNL     1       7.184   4.723  13.572  0.00  0.00    +0.000 C 
ATOM     17  O   UNL     1       7.691   5.470  14.680  0.00  0.00    +0.000 OA
ENDBRANCH  12  17
ENDBRANCH  10  14
ENDBRANCH   1  11
BRANCH   3  18
ATOM     18  C   UNL     1       1.308   7.286  21.154  0.00  0.00    +0.000 C 
BRANCH  18  19
ATOM     19  C   UNL     1       1.274   8.797  20.933  0.00  0.00    +0.000 C 
BRANCH  19  20
ATOM     20  C   UNL     1      -0.145   9.344  20.860  0.00  0.00    +0.000 C 
BRANCH  20  21
ATOM     21  O   UNL     1      -0.122  10.618  20.213  0.00  0.00    +0.000 OA
BRANCH  21  22
ATOM     22  C   UNL     1      -1.054  10.779  19.220  0.00  0.00    +0.000 A 
ATOM     23  C   UNL     1      -2.133  11.665  19.267  0.00  0.00    +0.000 A 
ATOM     24  C   UNL     1      -3.053  11.717  18.221  0.00  0.00    +0.000 A 
ATOM     25  C   UNL     1      -2.907  10.887  17.108  0.00  0.00    +0.000 A 
ATOM     26  C   UNL     1      -3.930  10.904  16.014  0.00  0.00    +0.000 C 
ATOM     27  C   UNL     1      -1.802  10.031  17.038  0.00  0.00    +0.000 A 
ATOM     28  C   UNL     1      -0.884   9.974  18.092  0.00  0.00    +0.000 A 
ENDBRANCH  21  22
ENDBRANCH  20  21
ENDBRANCH  19  20
ENDBRANCH  18  19
ENDBRANCH   3  18
TORSDOF 8
ENDMDL
MODEL 4
REMARK VINA RESULT:      -8.0      1.562      1.619
REMARK  Name = 
REMARK  10 active torsions:
REMARK  status: ('A' for Active; 'I' for Inactive)
REMARK    1  A    between atoms: C_1  and  O_2
REMARK    2  A    between atoms: O_2  and  C_3
REMARK    3  A    between atoms: N_5  and  N_6
REMARK    4  A    between atoms: C_7  and  C_8
REMARK    5  A    between atoms: N_10  and  C_11
REMARK    6  A    between atoms: C_11  and  C_12
REMARK    7  A    between atoms: C_12  and  C_13
REMARK    8  A    between atoms: C_13  and  O_14
REMARK    9  A    between atoms: O_14  and  C_15
REMARK   10  A    between atoms: C_18  and  C_19
REMARK                            x       y       z     vdW  Elec       q    Type
REMARK                         _______ _______ _______ _____ _____    ______ ____
ROOT
ATOM      1  C   UNL     1       2.848   6.195  19.188  0.00  0.00    +0.000 A 
ATOM      2  C   UNL     1       4.215   6.395  19.206  0.00  0.00    +0.000 A 
ATOM      3  N   UNL     1       4.837   5.237  18.825  0.00  0.00    +0.000 N 
ATOM      4  C   UNL     1       3.898   4.268  18.544  0.00  0.00    +0.000 A 
ATOM      5  C   UNL     1       4.045   2.939  18.121  0.00  0.00    +0.000 A 
ATOM      6  C   UNL     1       2.891   2.178  17.919  0.00  0.00    +0.000 A 
ATOM      7  C   UNL     1       1.629   2.724  18.128  0.00  0.00    +0.000 A 
ATOM      8  C   UNL     1       1.489   4.049  18.552  0.00  0.00    +0.000 A 
ATOM      9  C   UNL     1       2.638   4.842  18.767  0.00  0.00    +0.000 A 
ENDROOT
BRANCH   1  11
ATOM     10  N   UNL     1       1.705   7.497  20.785  0.00  0.00    +0.000 NA
ATOM     11  C   UNL     1       1.856   7.195  19.537  0.00  0.00    +0.000 C 
BRANCH  10  14
ATOM     12  C   UNL     1       1.008   9.334  22.111  0.00  0.00    +0.000 C 
ATOM     13  O   UNL     1       2.001   9.374  22.824  0.00  0.00    +0.000 OA
ATOM     14  N   UNL     1       0.773   8.441  21.089  0.00  0.00    +0.000 N 
ATOM     15  H   UNL     1      -0.090   8.523  20.567  0.00  0.00    +0.000 HD
BRANCH  12  17
ATOM     16  C   UNL     1      -0.388  10.812  20.974  0.00  0.00    +0.000 C 
ATOM     17  O   UNL     1      -0.045  10.192  22.216  0.00  0.00    +0.000 OA
ENDBRANCH  12  17
ENDBRANCH  10  14
ENDBRANCH   1  11
BRANCH   3  18
ATOM     18  C   UNL     1       6.281   5.064  18.776  0.00  0.00    +0.000 C 
BRANCH  18  19
ATOM     19  C   UNL     1       7.033   6.226  18.130  0.00  0.00    +0.000 C 
BRANCH  19  20
ATOM     20  C   UNL     1       6.687   6.397  16.657  0.00  0.00    +0.000 C 
BRANCH  20  21
ATOM     21  O   UNL     1       7.622   5.656  15.869  0.00  0.00    +0.000 OA
BRANCH  21  22
ATOM     22  C   UNL     1       7.076   4.987  14.803  0.00  0.00    +0.000 A 
ATOM     23  C   UNL     1       7.597   4.980  13.507  0.00  0.00    +0.000 A 
ATOM     24  C   UNL     1       6.936   4.303  12.482  0.00  0.00    +0.000 A 
ATOM     25  C   UNL     1       5.747   3.618  12.738  0.00  0.00    +0.000 A 
ATOM     26  C   UNL     1       5.010   2.942  11.623  0.00  0.00    +0.000 C 
ATOM     27  C   UNL     1       5.249   3.585  14.046  0.00  0.00    +0.000 A 
ATOM     28  C   UNL     1       5.908   4.271  15.071  0.00  0.00    +0.000 A 
ENDBRANCH  21  22
ENDBRANCH  20  21
ENDBRANCH  19  20
ENDBRANCH  18  19
ENDBRANCH   3  18
TORSDOF 8
ENDMDL
MODEL 5
REMARK VINA RESULT:      -7.8      4.599      8.273
REMARK  Name = 
REMARK  10 active torsions:
REMARK  status: ('A' for Active; 'I' for Inactive)
REMARK    1  A    between atoms: C_1  and  O_2
REMARK    2  A    between atoms: O_2  and  C_3
REMARK    3  A    between atoms: N_5  and  N_6
REMARK    4  A    between atoms: C_7  and  C_8
REMARK    5  A    between atoms: N_10  and  C_11
REMARK    6  A    between atoms: C_11  and  C_12
REMARK    7  A    between atoms: C_12  and  C_13
REMARK    8  A    between atoms: C_13  and  O_14
REMARK    9  A    between atoms: O_14  and  C_15
REMARK   10  A    between atoms: C_18  and  C_19
REMARK                            x       y       z     vdW  Elec       q    Type
REMARK                         _______ _______ _______ _____ _____    ______ ____
ROOT
ATOM      1  C   UNL     1      -2.455  10.310  17.000  0.00  0.00    +0.000 A 
ATOM      2  C   UNL     1      -1.120  10.037  17.230  0.00  0.00    +0.000 A 
ATOM      3  N   UNL     1      -0.746  10.621  18.410  0.00  0.00    +0.000 N 
ATOM      4  C   UNL     1      -1.821  11.275  18.974  0.00  0.00    +0.000 A 
ATOM      5  C   UNL     1      -1.931  12.009  20.163  0.00  0.00    +0.000 A 
ATOM      6  C   UNL     1      -3.169  12.573  20.479  0.00  0.00    +0.000 A 
ATOM      7  C   UNL     1      -4.265  12.409  19.640  0.00  0.00    +0.000 A 
ATOM      8  C   UNL     1      -4.149  11.678  18.454  0.00  0.00    +0.000 A 
ATOM      9  C   UNL     1      -2.908  11.097  18.107  0.00  0.00    +0.000 A 
ENDROOT
BRANCH   1  11
ATOM     10  N   UNL     1      -3.205  10.605  14.786  0.00  0.00    +0.000 NA
ATOM     11  C   UNL     1      -3.207   9.861  15.844  0.00  0.00    +0.000 C 
BRANCH  10  14
ATOM     12  C   UNL     1      -3.257   9.593  12.643  0.00  0.00    +0.000 C 
ATOM     13  O   UNL     1      -2.048   9.442  12.533  0.00  0.00    +0.000 OA
ATOM     14  N   UNL     1      -3.914  10.162  13.711  0.00  0.00    +0.000 N 
ATOM     15  H   UNL     1      -4.924  10.219  13.680  0.00  0.00    +0.000 HD
BRANCH  12  17
ATOM     16  C   UNL     1      -5.444   9.822  11.876  0.00  0.00    +0.000 C 
ATOM     17  O   UNL     1      -4.165   9.207  11.704  0.00  0.00    +0.000 OA
ENDBRANCH  12  17
ENDBRANCH  10  14
ENDBRANCH   1  11
BRANCH   3  18
ATOM     18  C   UNL     1       0.606  10.585  18.947  0.00  0.00    +0.000 C 
BRANCH  18  19
ATOM     19  C   UNL     1       1.364   9.291  18.657  0.00  0.00    +0.000 C 
BRANCH  19  20
ATOM     20  C   UNL     1       1.476   8.394  19.882  0.00  0.00    +0.000 C 
BRANCH  20  21
ATOM     21  O   UNL     1       2.517   7.439  19.668  0.00  0.00    +0.000 OA
BRANCH  21  22
ATOM     22  C   UNL     1       2.093   6.141  19.541  0.00  0.00    +0.000 A 
ATOM     23  C   UNL     1       1.642   5.336  20.590  0.00  0.00    +0.000 A 
ATOM     24  C   UNL     1       1.277   4.010  20.359  0.00  0.00    +0.000 A 
ATOM     25  C   UNL     1       1.354   3.468  19.075  0.00  0.00    +0.000 A 
ATOM     26  C   UNL     1       1.018   2.028  18.843  0.00  0.00    +0.000 C 
ATOM     27  C   UNL     1       1.761   4.286  18.015  0.00  0.00    +0.000 A 
ATOM     28  C   UNL     1       2.135   5.613  18.249  0.00  0.00    +0.000 A 
ENDBRANCH  21  22
ENDBRANCH  20  21
ENDBRANCH  19  20
ENDBRANCH  18  19
ENDBRANCH   3  18
TORSDOF 8
ENDMDL
MODEL 6
REMARK VINA RESULT:      -7.8      1.804      7.957
REMARK  Name = 
REMARK  10 active torsions:
REMARK  status: ('A' for Active; 'I' for Inactive)
REMARK    1  A    between atoms: C_1  and  O_2
REMARK    2  A    between atoms: O_2  and  C_3
REMARK    3  A    between atoms: N_5  and  N_6
REMARK    4  A    between atoms: C_7  and  C_8
REMARK    5  A    between atoms: N_10  and  C_11
REMARK    6  A    between atoms: C_11  and  C_12
REMARK    7  A    between atoms: C_12  and  C_13
REMARK    8  A    between atoms: C_13  and  O_14
REMARK    9  A    between atoms: O_14  and  C_15
REMARK   10  A    between atoms: C_18  and  C_19
REMARK                            x       y       z     vdW  Elec       q    Type
REMARK                         _______ _______ _______ _____ _____    ______ ____
ROOT
ATOM      1  C   UNL     1       3.437   5.436  17.971  0.00  0.00    +0.000 A 
ATOM      2  C   UNL     1       3.319   6.620  18.675  0.00  0.00    +0.000 A 
ATOM      3  N   UNL     1       2.422   6.442  19.693  0.00  0.00    +0.000 N 
ATOM      4  C   UNL     1       1.945   5.149  19.680  0.00  0.00    +0.000 A 
ATOM      5  C   UNL     1       1.023   4.499  20.512  0.00  0.00    +0.000 A 
ATOM      6  C   UNL     1       0.723   3.161  20.250  0.00  0.00    +0.000 A 
ATOM      7  C   UNL     1       1.327   2.486  19.195  0.00  0.00    +0.000 A 
ATOM      8  C   UNL     1       2.245   3.140  18.367  0.00  0.00    +0.000 A 
ATOM      9  C   UNL     1       2.565   4.494  18.606  0.00  0.00    +0.000 A 
ENDROOT
BRANCH   1  11
ATOM     10  N   UNL     1       5.094   6.195  16.476  0.00  0.00    +0.000 NA
ATOM     11  C   UNL     1       4.294   5.237  16.817  0.00  0.00    +0.000 C 
BRANCH  10  14
ATOM     12  C   UNL     1       7.105   5.353  15.548  0.00  0.00    +0.000 C 
ATOM     13  O   UNL     1       7.584   4.949  16.599  0.00  0.00    +0.000 OA
ATOM     14  N   UNL     1       5.892   5.984  15.394  0.00  0.00    +0.000 N 
ATOM     15  H   UNL     1       5.608   6.261  14.462  0.00  0.00    +0.000 HD
BRANCH  12  17
ATOM     16  C   UNL     1       6.949   4.472  13.398  0.00  0.00    +0.000 C 
ATOM     17  O   UNL     1       7.714   5.233  14.335  0.00  0.00    +0.000 OA
ENDBRANCH  12  17
ENDBRANCH  10  14
ENDBRANCH   1  11
BRANCH   3  18
ATOM     18  C   UNL     1       2.010   7.493  20.611  0.00  0.00    +0.000 C 
BRANCH  18  19
ATOM     19  C   UNL     1       0.891   8.388  20.083  0.00  0.00    +0.000 C 
BRANCH  19  20
ATOM     20  C   UNL     1       1.347   9.270  18.929  0.00  0.00    +0.000 C 
BRANCH  20  21
ATOM     21  O   UNL     1       0.762  10.566  19.072  0.00  0.00    +0.000 OA
BRANCH  21  22
ATOM     22  C   UNL     1      -0.538  10.665  18.645  0.00  0.00    +0.000 A 
ATOM     23  C   UNL     1      -1.097   9.930  17.597  0.00  0.00    +0.000 A 
ATOM     24  C   UNL     1      -2.420  10.141  17.210  0.00  0.00    +0.000 A 
ATOM     25  C   UNL     1      -3.207  11.087  17.869  0.00  0.00    +0.000 A 
ATOM     26  C   UNL     1      -4.608  11.353  17.412  0.00  0.00    +0.000 C 
ATOM     27  C   UNL     1      -2.663  11.792  18.949  0.00  0.00    +0.000 A 
ATOM     28  C   UNL     1      -1.333  11.585  19.330  0.00  0.00    +0.000 A 
ENDBRANCH  21  22
ENDBRANCH  20  21
ENDBRANCH  19  20
ENDBRANCH  18  19
ENDBRANCH   3  18
TORSDOF 8
ENDMDL
MODEL 7
REMARK VINA RESULT:      -7.7      4.793      8.457
REMARK  Name = 
REMARK  10 active torsions:
REMARK  status: ('A' for Active; 'I' for Inactive)
REMARK    1  A    between atoms: C_1  and  O_2
REMARK    2  A    between atoms: O_2  and  C_3
REMARK    3  A    between atoms: N_5  and  N_6
REMARK    4  A    between atoms: C_7  and  C_8
REMARK    5  A    between atoms: N_10  and  C_11
REMARK    6  A    between atoms: C_11  and  C_12
REMARK    7  A    between atoms: C_12  and  C_13
REMARK    8  A    between atoms: C_13  and  O_14
REMARK    9  A    between atoms: O_14  and  C_15
REMARK   10  A    between atoms: C_18  and  C_19
REMARK                            x       y       z     vdW  Elec       q    Type
REMARK                         _______ _______ _______ _____ _____    ______ ____
ROOT
ATOM      1  C   UNL     1       5.815   4.558  15.637  0.00  0.00    +0.000 A 
ATOM      2  C   UNL     1       6.510   5.740  15.811  0.00  0.00    +0.000 A 
ATOM      3  N   UNL     1       5.921   6.456  16.818  0.00  0.00    +0.000 N 
ATOM      4  C   UNL     1       4.843   5.760  17.323  0.00  0.00    +0.000 A 
ATOM      5  C   UNL     1       3.940   6.077  18.347  0.00  0.00    +0.000 A 
ATOM      6  C   UNL     1       2.925   5.164  18.641  0.00  0.00    +0.000 A 
ATOM      7  C   UNL     1       2.814   3.969  17.940  0.00  0.00    +0.000 A 
ATOM      8  C   UNL     1       3.717   3.658  16.918  0.00  0.00    +0.000 A 
ATOM      9  C   UNL     1       4.752   4.564  16.597  0.00  0.00    +0.000 A 
ENDROOT
BRANCH   1  11
ATOM     10  N   UNL     1       5.832   3.761  13.419  0.00  0.00    +0.000 NA
ATOM     11  C   UNL     1       6.139   3.540  14.656  0.00  0.00    +0.000 C 
BRANCH  10  14
ATOM     12  C   UNL     1       5.285   2.506  11.485  0.00  0.00    +0.000 C 
ATOM     13  O   UNL     1       4.200   3.034  11.280  0.00  0.00    +0.000 OA
ATOM     14  N   UNL     1       6.150   2.795  12.516  0.00  0.00    +0.000 N 
ATOM     15  H   UNL     1       7.025   2.288  12.565  0.00  0.00    +0.000 HD
BRANCH  12  17
ATOM     16  C   UNL     1       6.310   0.415  11.450  0.00  0.00    +0.000 C 
ATOM     17  O   UNL     1       5.820   1.529  10.700  0.00  0.00    +0.000 OA
ENDBRANCH  12  17
ENDBRANCH  10  14
ENDBRANCH   1  11
BRANCH   3  18
ATOM     18  C   UNL     1       6.356   7.777  17.243  0.00  0.00    +0.000 C 
BRANCH  18  19
ATOM     19  C   UNL     1       7.795   7.832  17.754  0.00  0.00    +0.000 C 
BRANCH  19  20
ATOM     20  C   UNL     1       8.276   9.257  17.990  0.00  0.00    +0.000 C 
BRANCH  20  21
ATOM     21  O   UNL     1       8.987   9.311  19.228  0.00  0.00    +0.000 OA
BRANCH  21  22
ATOM     22  C   UNL     1       9.509  10.540  19.542  0.00  0.00    +0.000 A 
ATOM     23  C   UNL     1       9.509  11.111  20.817  0.00  0.00    +0.000 A 
ATOM     24  C   UNL     1      10.024  12.390  21.020  0.00  0.00    +0.000 A 
ATOM     25  C   UNL     1      10.552  13.119  19.952  0.00  0.00    +0.000 A 
ATOM     26  C   UNL     1      11.049  14.515  20.163  0.00  0.00    +0.000 C 
ATOM     27  C   UNL     1      10.595  12.530  18.683  0.00  0.00    +0.000 A 
ATOM     28  C   UNL     1      10.070  11.250  18.479  0.00  0.00    +0.000 A 
ENDBRANCH  21  22
ENDBRANCH  20  21
ENDBRANCH  19  20
ENDBRANCH  18  19
ENDBRANCH   3  18
TORSDOF 8
ENDMDL
MODEL 8
REMARK VINA RESULT:      -7.7      2.897      7.159
REMARK  Name = 
REMARK  10 active torsions:
REMARK  status: ('A' for Active; 'I' for Inactive)
REMARK    1  A    between atoms: C_1  and  O_2
REMARK    2  A    between atoms: O_2  and  C_3
REMARK    3  A    between atoms: N_5  and  N_6
REMARK    4  A    between atoms: C_7  and  C_8
REMARK    5  A    between atoms: N_10  and  C_11
REMARK    6  A    between atoms: C_11  and  C_12
REMARK    7  A    between atoms: C_12  and  C_13
REMARK    8  A    between atoms: C_13  and  O_14
REMARK    9  A    between atoms: O_14  and  C_15
REMARK   10  A    between atoms: C_18  and  C_19
REMARK                            x       y       z     vdW  Elec       q    Type
REMARK                         _______ _______ _______ _____ _____    ______ ____
ROOT
ATOM      1  C   UNL     1       6.943   5.631  18.222  0.00  0.00    +0.000 A 
ATOM      2  C   UNL     1       5.939   5.050  18.973  0.00  0.00    +0.000 A 
ATOM      3  N   UNL     1       5.165   4.274  18.154  0.00  0.00    +0.000 N 
ATOM      4  C   UNL     1       5.646   4.326  16.863  0.00  0.00    +0.000 A 
ATOM      5  C   UNL     1       5.196   3.708  15.688  0.00  0.00    +0.000 A 
ATOM      6  C   UNL     1       5.893   3.955  14.503  0.00  0.00    +0.000 A 
ATOM      7  C   UNL     1       7.006   4.788  14.488  0.00  0.00    +0.000 A 
ATOM      8  C   UNL     1       7.449   5.403  15.663  0.00  0.00    +0.000 A 
ATOM      9  C   UNL     1       6.762   5.174  16.876  0.00  0.00    +0.000 A 
ENDROOT
BRANCH   1  11
ATOM     10  N   UNL     1       7.937   7.763  18.367  0.00  0.00    +0.000 NA
ATOM     11  C   UNL     1       7.960   6.525  18.742  0.00  0.00    +0.000 C 
BRANCH  10  14
ATOM     12  C   UNL     1       8.917   9.915  18.520  0.00  0.00    +0.000 C 
ATOM     13  O   UNL     1       8.141  10.475  17.758  0.00  0.00    +0.000 OA
ATOM     14  N   UNL     1       8.897   8.584  18.872  0.00  0.00    +0.000 N 
ATOM     15  H   UNL     1       9.595   8.249  19.524  0.00  0.00    +0.000 HD
BRANCH  12  17
ATOM     16  C   UNL     1      10.262  11.815  18.597  0.00  0.00    +0.000 C 
ATOM     17  O   UNL     1       9.944  10.540  19.160  0.00  0.00    +0.000 OA
ENDBRANCH  12  17
ENDBRANCH  10  14
ENDBRANCH   1  11
BRANCH   3  18
ATOM     18  C   UNL     1       3.982   3.549  18.594  0.00  0.00    +0.000 C 
BRANCH  18  19
ATOM     19  C   UNL     1       2.676   4.327  18.450  0.00  0.00    +0.000 C 
BRANCH  19  20
ATOM     20  C   UNL     1       2.440   5.289  19.606  0.00  0.00    +0.000 C 
BRANCH  20  21
ATOM     21  O   UNL     1       3.080   6.534  19.317  0.00  0.00    +0.000 OA
BRANCH  21  22
ATOM     22  C   UNL     1       2.253   7.628  19.338  0.00  0.00    +0.000 A 
ATOM     23  C   UNL     1       1.543   8.077  20.454  0.00  0.00    +0.000 A 
ATOM     24  C   UNL     1       0.690   9.175  20.356  0.00  0.00    +0.000 A 
ATOM     25  C   UNL     1       0.537   9.846  19.141  0.00  0.00    +0.000 A 
ATOM     26  C   UNL     1      -0.425  10.988  19.026  0.00  0.00    +0.000 C 
ATOM     27  C   UNL     1       1.282   9.427  18.034  0.00  0.00    +0.000 A 
ATOM     28  C   UNL     1       2.131   8.319  18.131  0.00  0.00    +0.000 A 
ENDBRANCH  21  22
ENDBRANCH  20  21
ENDBRANCH  19  20
ENDBRANCH  18  19
ENDBRANCH   3  18
TORSDOF 8
ENDMDL
MODEL 9
REMARK VINA RESULT:      -7.7      1.521      2.165
REMARK  Name = 
REMARK  10 active torsions:
REMARK  status: ('A' for Active; 'I' for Inactive)
REMARK    1  A    between atoms: C_1  and  O_2
REMARK    2  A    between atoms: O_2  and  C_3
REMARK    3  A    between atoms: N_5  and  N_6
REMARK    4  A    between atoms: C_7  and  C_8
REMARK    5  A    between atoms: N_10  and  C_11
REMARK    6  A    between atoms: C_11  and  C_12
REMARK    7  A    between atoms: C_12  and  C_13
REMARK    8  A    between atoms: C_13  and  O_14
REMARK    9  A    between atoms: O_14  and  C_15
REMARK   10  A    between atoms: C_18  and  C_19
REMARK                            x       y       z     vdW  Elec       q    Type
REMARK                         _______ _______ _______ _____ _____    ______ ____
ROOT
ATOM      1  C   UNL     1       2.286   7.578  19.220  0.00  0.00    +0.000 A 
ATOM      2  C   UNL     1       3.103   7.851  18.139  0.00  0.00    +0.000 A 
ATOM      3  N   UNL     1       3.743   6.701  17.765  0.00  0.00    +0.000 N 
ATOM      4  C   UNL     1       3.356   5.660  18.582  0.00  0.00    +0.000 A 
ATOM      5  C   UNL     1       3.732   4.309  18.592  0.00  0.00    +0.000 A 
ATOM      6  C   UNL     1       3.169   3.473  19.559  0.00  0.00    +0.000 A 
ATOM      7  C   UNL     1       2.257   3.965  20.486  0.00  0.00    +0.000 A 
ATOM      8  C   UNL     1       1.887   5.314  20.472  0.00  0.00    +0.000 A 
ATOM      9  C   UNL     1       2.442   6.183  19.507  0.00  0.00    +0.000 A 
ENDROOT
BRANCH   1  11
ATOM     10  N   UNL     1       0.967   9.530  19.206  0.00  0.00    +0.000 NA
ATOM     11  C   UNL     1       1.451   8.551  19.898  0.00  0.00    +0.000 C 
BRANCH  10  14
ATOM     12  C   UNL     1      -1.085  10.701  19.397  0.00  0.00    +0.000 C 
ATOM     13  O   UNL     1      -1.613  10.217  18.405  0.00  0.00    +0.000 OA
ATOM     14  N   UNL     1       0.182  10.428  19.862  0.00  0.00    +0.000 N 
ATOM     15  H   UNL     1       0.496  10.893  20.704  0.00  0.00    +0.000 HD
BRANCH  12  17
ATOM     16  C   UNL     1      -1.668  12.936  19.698  0.00  0.00    +0.000 C 
ATOM     17  O   UNL     1      -1.687  11.605  20.220  0.00  0.00    +0.000 OA
ENDBRANCH  12  17
ENDBRANCH  10  14
ENDBRANCH   1  11
BRANCH   3  18
ATOM     18  C   UNL     1       4.721   6.623  16.691  0.00  0.00    +0.000 C 
BRANCH  18  19
ATOM     19  C   UNL     1       6.172   6.750  17.150  0.00  0.00    +0.000 C 
BRANCH  19  20
ATOM     20  C   UNL     1       7.037   5.590  16.676  0.00  0.00    +0.000 C 
BRANCH  20  21
ATOM     21  O   UNL     1       7.462   5.842  15.335  0.00  0.00    +0.000 OA
BRANCH  21  22
ATOM     22  C   UNL     1       6.928   5.000  14.392  0.00  0.00    +0.000 A 
ATOM     23  C   UNL     1       5.813   4.182  14.584  0.00  0.00    +0.000 A 
ATOM     24  C   UNL     1       5.379   3.327  13.573  0.00  0.00    +0.000 A 
ATOM     25  C   UNL     1       6.051   3.279  12.350  0.00  0.00    +0.000 A 
ATOM     26  C   UNL     1       5.618   2.316  11.288  0.00  0.00    +0.000 C 
ATOM     27  C   UNL     1       7.140   4.132  12.139  0.00  0.00    +0.000 A 
ATOM     28  C   UNL     1       7.580   4.983  13.157  0.00  0.00    +0.000 A 
ENDBRANCH  21  22
ENDBRANCH  20  21
ENDBRANCH  19  20
ENDBRANCH  18  19
ENDBRANCH   3  18
TORSDOF 8
ENDMDL
