MODEL 1
REMARK VINA RESULT:      -9.0      0.000      0.000
REMARK  Name = 
REMARK  7 active torsions:
REMARK  status: ('A' for Active; 'I' for Inactive)
REMARK    1  A    between atoms: C_1  and  C_2
REMARK    2  A    between atoms: C_2  and  C_3
REMARK    3  A    between atoms: C_6  and  C_7
REMARK    4  A    between atoms: C_6  and  C_8
REMARK    5  A    between atoms: C_18  and  C_19
REMARK    6  A    between atoms: C_22  and  C_23
REMARK    7  A    between atoms: C_23  and  O_25
REMARK                            x       y       z     vdW  Elec       q    Type
REMARK                         _______ _______ _______ _____ _____    ______ ____
ROOT
ATOM      1  C   UNL     1      -4.850  13.826  23.380  0.00  0.00    +0.000 C 
ATOM      2  C   UNL     1      -3.655  13.505  22.406  0.00  0.00    +0.000 C 
ATOM      3  C   UNL     1      -4.319  12.819  21.167  0.00  0.00    +0.000 C 
ATOM      4  C   UNL     1      -3.379  14.985  21.894  0.00  0.00    +0.000 C 
ATOM      5  C   UNL     1      -2.071  15.124  21.191  0.00  0.00    +0.000 C 
ATOM      6  C   UNL     1      -0.985  14.850  22.222  0.00  0.00    +0.000 C 
ATOM      7  C   UNL     1       0.272  15.568  21.710  0.00  0.00    +0.000 C 
ATOM      8  C   UNL     1      -1.146  15.284  23.717  0.00  0.00    +0.000 C 
ATOM      9  C   UNL     1      -1.079  13.349  22.215  0.00  0.00    +0.000 A 
ATOM     10  C   UNL     1      -0.148  12.617  21.486  0.00  0.00    +0.000 A 
ATOM     11  C   UNL     1      -0.153  11.251  21.526  0.00  0.00    +0.000 A 
ATOM     12  C   UNL     1      -0.757  10.686  22.638  0.00  0.00    +0.000 A 
ATOM     13  C   UNL     1      -1.914  11.384  23.192  0.00  0.00    +0.000 A 
ATOM     14  C   UNL     1      -2.233  12.708  22.734  0.00  0.00    +0.000 A 
ATOM     15  C   UNL     1       0.187   9.612  23.226  0.00  0.00    +0.000 C 
ATOM     16  C   UNL     1       0.813   8.568  22.200  0.00  0.00    +0.000 C 
ATOM     17  C   UNL     1       1.026   9.130  20.802  0.00  0.00    +0.000 A 
ATOM     18  C   UNL     1       1.632   8.551  19.590  0.00  0.00    +0.000 A 
ATOM     19  C   UNL     1       1.484   9.440  18.536  0.00  0.00    +0.000 A 
ATOM     20  S   UNL     1       0.789  10.926  18.963  0.00  0.00    +0.000 S 
ATOM     21  C   UNL     1       0.579  10.421  20.569  0.00  0.00    +0.000 A 
ENDROOT
BRANCH  18  22
ATOM     22  C   UNL     1       2.257   7.237  19.309  0.00  0.00    +0.000 A 
ATOM     23  C   UNL     1       2.096   6.142  20.160  0.00  0.00    +0.000 A 
ATOM     24  C   UNL     1       2.705   4.908  19.867  0.00  0.00    +0.000 A 
ATOM     25  C   UNL     1       3.469   4.727  18.707  0.00  0.00    +0.000 A 
ATOM     26  C   UNL     1       3.594   5.783  17.829  0.00  0.00    +0.000 A 
ATOM     27  C   UNL     1       3.013   7.028  18.126  0.00  0.00    +0.000 A 
BRANCH  25  28
ATOM     28  C   UNL     1       4.074   3.399  18.434  0.00  0.00    +0.000 C 
ATOM     29  O   UNL     1       3.597   2.636  17.626  0.00  0.00    +0.000 OA
BRANCH  28  30
ATOM     30  O   UNL     1       5.156   3.116  19.171  0.00  0.00    +0.000 OA
ATOM     31  H   UNL     1       5.290   2.181  19.381  0.00  0.00    +0.000 HD
ENDBRANCH  28  30
ENDBRANCH  25  28
ENDBRANCH  18  22
TORSDOF 3
ENDMDL
MODEL 2
REMARK VINA RESULT:      -8.7      0.855      1.014
REMARK  Name = 
REMARK  7 active torsions:
REMARK  status: ('A' for Active; 'I' for Inactive)
REMARK    1  A    between atoms: C_1  and  C_2
REMARK    2  A    between atoms: C_2  and  C_3
REMARK    3  A    between atoms: C_6  and  C_7
REMARK    4  A    between atoms: C_6  and  C_8
REMARK    5  A    between atoms: C_18  and  C_19
REMARK    6  A    between atoms: C_22  and  C_23
REMARK    7  A    between atoms: C_23  and  O_25
REMARK                            x       y       z     vdW  Elec       q    Type
REMARK                         _______ _______ _______ _____ _____    ______ ____
ROOT
ATOM      1  C   UNL     1      -4.525  13.366  23.837  0.00  0.00    +0.000 C 
ATOM      2  C   UNL     1      -3.390  13.208  22.755  0.00  0.00    +0.000 C 
ATOM      3  C   UNL     1      -4.123  12.678  21.480  0.00  0.00    +0.000 C 
ATOM      4  C   UNL     1      -3.172  14.750  22.432  0.00  0.00    +0.000 C 
ATOM      5  C   UNL     1      -1.916  15.015  21.674  0.00  0.00    +0.000 C 
ATOM      6  C   UNL     1      -0.760  14.632  22.589  0.00  0.00    +0.000 C 
ATOM      7  C   UNL     1       0.449  15.443  22.101  0.00  0.00    +0.000 C 
ATOM      8  C   UNL     1      -0.830  14.858  24.136  0.00  0.00    +0.000 C 
ATOM      9  C   UNL     1      -0.830  13.144  22.385  0.00  0.00    +0.000 A 
ATOM     10  C   UNL     1       0.062  12.539  21.507  0.00  0.00    +0.000 A 
ATOM     11  C   UNL     1       0.083  11.180  21.362  0.00  0.00    +0.000 A 
ATOM     12  C   UNL     1      -0.438  10.457  22.423  0.00  0.00    +0.000 A 
ATOM     13  C   UNL     1      -1.568  11.045  23.137  0.00  0.00    +0.000 A 
ATOM     14  C   UNL     1      -1.937  12.410  22.884  0.00  0.00    +0.000 A 
ATOM     15  C   UNL     1       0.559   9.337  22.799  0.00  0.00    +0.000 C 
ATOM     16  C   UNL     1       1.134   8.456  21.605  0.00  0.00    +0.000 C 
ATOM     17  C   UNL     1       1.246   9.206  20.285  0.00  0.00    +0.000 A 
ATOM     18  C   UNL     1       1.781   8.809  18.970  0.00  0.00    +0.000 A 
ATOM     19  C   UNL     1       1.550   9.828  18.058  0.00  0.00    +0.000 A 
ATOM     20  S   UNL     1       0.860  11.225  18.724  0.00  0.00    +0.000 S 
ATOM     21  C   UNL     1       0.764  10.505  20.258  0.00  0.00    +0.000 A 
ENDROOT
BRANCH  18  22
ATOM     22  C   UNL     1       2.407   7.561  18.476  0.00  0.00    +0.000 A 
ATOM     23  C   UNL     1       1.791   6.316  18.614  0.00  0.00    +0.000 A 
ATOM     24  C   UNL     1       2.412   5.148  18.137  0.00  0.00    +0.000 A 
ATOM     25  C   UNL     1       3.653   5.193  17.488  0.00  0.00    +0.000 A 
ATOM     26  C   UNL     1       4.251   6.421  17.295  0.00  0.00    +0.000 A 
ATOM     27  C   UNL     1       3.651   7.591  17.792  0.00  0.00    +0.000 A 
BRANCH  25  28
ATOM     28  C   UNL     1       4.258   3.934  16.985  0.00  0.00    +0.000 C 
ATOM     29  O   UNL     1       4.171   2.896  17.598  0.00  0.00    +0.000 OA
BRANCH  28  30
ATOM     30  O   UNL     1       4.921   4.057  15.828  0.00  0.00    +0.000 OA
ATOM     31  H   UNL     1       4.753   3.367  15.170  0.00  0.00    +0.000 HD
ENDBRANCH  28  30
ENDBRANCH  25  28
ENDBRANCH  18  22
TORSDOF 3
ENDMDL
MODEL 3
REMARK VINA RESULT:      -8.6      0.988      1.423
REMARK  Name = 
REMARK  7 active torsions:
REMARK  status: ('A' for Active; 'I' for Inactive)
REMARK    1  A    between atoms: C_1  and  C_2
REMARK    2  A    between atoms: C_2  and  C_3
REMARK    3  A    between atoms: C_6  and  C_7
REMARK    4  A    between atoms: C_6  and  C_8
REMARK    5  A    between atoms: C_18  and  C_19
REMARK    6  A    between atoms: C_22  and  C_23
REMARK    7  A    between atoms: C_23  and  O_25
REMARK                            x       y       z     vdW  Elec       q    Type
REMARK                         _______ _______ _______ _____ _____    ______ ____
ROOT
ATOM      1  C   UNL     1      -3.999  13.977  22.417  0.00  0.00    +0.000 C 
ATOM      2  C   UNL     1      -2.844  13.437  21.491  0.00  0.00    +0.000 C 
ATOM      3  C   UNL     1      -3.576  12.657  20.350  0.00  0.00    +0.000 C 
ATOM      4  C   UNL     1      -2.452  14.811  20.795  0.00  0.00    +0.000 C 
ATOM      5  C   UNL     1      -1.145  14.751  20.079  0.00  0.00    +0.000 C 
ATOM      6  C   UNL     1      -0.074  14.521  21.137  0.00  0.00    +0.000 C 
ATOM      7  C   UNL     1       1.232  15.061  20.537  0.00  0.00    +0.000 C 
ATOM      8  C   UNL     1      -0.183  15.154  22.565  0.00  0.00    +0.000 C 
ATOM      9  C   UNL     1      -0.292  13.044  21.321  0.00  0.00    +0.000 A 
ATOM     10  C   UNL     1       0.567  12.151  20.692  0.00  0.00    +0.000 A 
ATOM     11  C   UNL     1       0.450  10.806  20.906  0.00  0.00    +0.000 A 
ATOM     12  C   UNL     1      -0.187  10.439  22.081  0.00  0.00    +0.000 A 
ATOM     13  C   UNL     1      -1.276  11.295  22.541  0.00  0.00    +0.000 A 
ATOM     14  C   UNL     1      -1.489  12.573  21.918  0.00  0.00    +0.000 A 
ATOM     15  C   UNL     1       0.672   9.374  22.800  0.00  0.00    +0.000 C 
ATOM     16  C   UNL     1       1.199   8.159  21.916  0.00  0.00    +0.000 C 
ATOM     17  C   UNL     1       1.442   8.520  20.458  0.00  0.00    +0.000 A 
ATOM     18  C   UNL     1       1.985   7.743  19.329  0.00  0.00    +0.000 A 
ATOM     19  C   UNL     1       1.900   8.500  18.170  0.00  0.00    +0.000 A 
ATOM     20  S   UNL     1       1.335  10.080  18.405  0.00  0.00    +0.000 S 
ATOM     21  C   UNL     1       1.101   9.803  20.062  0.00  0.00    +0.000 A 
ENDROOT
BRANCH  18  22
ATOM     22  C   UNL     1       2.497   6.356  19.218  0.00  0.00    +0.000 A 
ATOM     23  C   UNL     1       3.629   6.042  18.465  0.00  0.00    +0.000 A 
ATOM     24  C   UNL     1       4.089   4.714  18.377  0.00  0.00    +0.000 A 
ATOM     25  C   UNL     1       3.445   3.672  19.056  0.00  0.00    +0.000 A 
ATOM     26  C   UNL     1       2.357   3.974  19.847  0.00  0.00    +0.000 A 
ATOM     27  C   UNL     1       1.873   5.292  19.920  0.00  0.00    +0.000 A 
BRANCH  25  28
ATOM     28  C   UNL     1       3.981   2.292  18.946  0.00  0.00    +0.000 C 
ATOM     29  O   UNL     1       3.513   1.486  18.176  0.00  0.00    +0.000 OA
BRANCH  28  30
ATOM     30  O   UNL     1       4.991   2.017  19.782  0.00  0.00    +0.000 OA
ATOM     31  H   UNL     1       5.878   2.050  19.397  0.00  0.00    +0.000 HD
ENDBRANCH  28  30
ENDBRANCH  25  28
ENDBRANCH  18  22
TORSDOF 3
ENDMDL
MODEL 4
REMARK VINA RESULT:      -8.3      1.088      1.431
REMARK  Name = 
REMARK  7 active torsions:
REMARK  status: ('A' for Active; 'I' for Inactive)
REMARK    1  A    between atoms: C_1  and  C_2
REMARK    2  A    between atoms: C_2  and  C_3
REMARK    3  A    between atoms: C_6  and  C_7
REMARK    4  A    between atoms: C_6  and  C_8
REMARK    5  A    between atoms: C_18  and  C_19
REMARK    6  A    between atoms: C_22  and  C_23
REMARK    7  A    between atoms: C_23  and  O_25
REMARK                            x       y       z     vdW  Elec       q    Type
REMARK                         _______ _______ _______ _____ _____    ______ ____
ROOT
ATOM      1  C   UNL     1      -3.893  14.173  22.153  0.00  0.00    +0.000 C 
ATOM      2  C   UNL     1      -2.723  13.566  21.289  0.00  0.00    +0.000 C 
ATOM      3  C   UNL     1      -3.439  12.764  20.153  0.00  0.00    +0.000 C 
ATOM      4  C   UNL     1      -2.269  14.902  20.557  0.00  0.00    +0.000 C 
ATOM      5  C   UNL     1      -0.941  14.779  19.890  0.00  0.00    +0.000 C 
ATOM      6  C   UNL     1       0.087  14.559  20.993  0.00  0.00    +0.000 C 
ATOM      7  C   UNL     1       1.428  15.040  20.420  0.00  0.00    +0.000 C 
ATOM      8  C   UNL     1      -0.052  15.248  22.391  0.00  0.00    +0.000 C 
ATOM      9  C   UNL     1      -0.180  13.097  21.223  0.00  0.00    +0.000 A 
ATOM     10  C   UNL     1       0.674  12.157  20.657  0.00  0.00    +0.000 A 
ATOM     11  C   UNL     1       0.511  10.824  20.917  0.00  0.00    +0.000 A 
ATOM     12  C   UNL     1      -0.176  10.520  22.081  0.00  0.00    +0.000 A 
ATOM     13  C   UNL     1      -1.255  11.423  22.472  0.00  0.00    +0.000 A 
ATOM     14  C   UNL     1      -1.410  12.682  21.795  0.00  0.00    +0.000 A 
ATOM     15  C   UNL     1       0.626   9.459  22.869  0.00  0.00    +0.000 C 
ATOM     16  C   UNL     1       1.147   8.198  22.049  0.00  0.00    +0.000 C 
ATOM     17  C   UNL     1       1.450   8.496  20.588  0.00  0.00    +0.000 A 
ATOM     18  C   UNL     1       2.008   7.663  19.508  0.00  0.00    +0.000 A 
ATOM     19  C   UNL     1       1.984   8.378  18.320  0.00  0.00    +0.000 A 
ATOM     20  S   UNL     1       1.458   9.981  18.476  0.00  0.00    +0.000 S 
ATOM     21  C   UNL     1       1.160   9.773  20.134  0.00  0.00    +0.000 A 
ENDROOT
BRANCH  18  22
ATOM     22  C   UNL     1       2.482   6.259  19.466  0.00  0.00    +0.000 A 
ATOM     23  C   UNL     1       1.896   5.255  20.238  0.00  0.00    +0.000 A 
ATOM     24  C   UNL     1       2.371   3.931  20.178  0.00  0.00    +0.000 A 
ATOM     25  C   UNL     1       3.426   3.571  19.330  0.00  0.00    +0.000 A 
ATOM     26  C   UNL     1       3.981   4.541  18.521  0.00  0.00    +0.000 A 
ATOM     27  C   UNL     1       3.533   5.871  18.593  0.00  0.00    +0.000 A 
BRANCH  25  28
ATOM     28  C   UNL     1       3.877   2.158  19.289  0.00  0.00    +0.000 C 
ATOM     29  O   UNL     1       4.808   1.767  19.955  0.00  0.00    +0.000 OA
BRANCH  28  30
ATOM     30  O   UNL     1       3.193   1.378  18.442  0.00  0.00    +0.000 OA
ATOM     31  H   UNL     1       2.274   1.636  18.280  0.00  0.00    +0.000 HD
ENDBRANCH  28  30
ENDBRANCH  25  28
ENDBRANCH  18  22
TORSDOF 3
ENDMDL
MODEL 5
REMARK VINA RESULT:      -8.2      1.608      3.043
REMARK  Name = 
REMARK  7 active torsions:
REMARK  status: ('A' for Active; 'I' for Inactive)
REMARK    1  A    between atoms: C_1  and  C_2
REMARK    2  A    between atoms: C_2  and  C_3
REMARK    3  A    between atoms: C_6  and  C_7
REMARK    4  A    between atoms: C_6  and  C_8
REMARK    5  A    between atoms: C_18  and  C_19
REMARK    6  A    between atoms: C_22  and  C_23
REMARK    7  A    between atoms: C_23  and  O_25
REMARK                            x       y       z     vdW  Elec       q    Type
REMARK                         _______ _______ _______ _____ _____    ______ ____
ROOT
ATOM      1  C   UNL     1      -2.501  17.178  22.348  0.00  0.00    +0.000 C 
ATOM      2  C   UNL     1      -2.104  15.700  22.723  0.00  0.00    +0.000 C 
ATOM      3  C   UNL     1      -0.584  15.773  23.085  0.00  0.00    +0.000 C 
ATOM      4  C   UNL     1      -2.811  15.631  24.145  0.00  0.00    +0.000 C 
ATOM      5  C   UNL     1      -2.931  14.240  24.669  0.00  0.00    +0.000 C 
ATOM      6  C   UNL     1      -3.862  13.492  23.724  0.00  0.00    +0.000 C 
ATOM      7  C   UNL     1      -4.460  12.341  24.546  0.00  0.00    +0.000 C 
ATOM      8  C   UNL     1      -5.077  14.202  23.038  0.00  0.00    +0.000 C 
ATOM      9  C   UNL     1      -2.865  13.229  22.630  0.00  0.00    +0.000 A 
ATOM     10  C   UNL     1      -2.268  11.976  22.547  0.00  0.00    +0.000 A 
ATOM     11  C   UNL     1      -1.421  11.676  21.516  0.00  0.00    +0.000 A 
ATOM     12  C   UNL     1      -1.573  12.445  20.374  0.00  0.00    +0.000 A 
ATOM     13  C   UNL     1      -1.944  13.845  20.559  0.00  0.00    +0.000 A 
ATOM     14  C   UNL     1      -2.361  14.305  21.855  0.00  0.00    +0.000 A 
ATOM     15  C   UNL     1      -1.642  11.506  19.148  0.00  0.00    +0.000 C 
ATOM     16  C   UNL     1      -0.532  10.370  19.049  0.00  0.00    +0.000 C 
ATOM     17  C   UNL     1      -0.037   9.873  20.400  0.00  0.00    +0.000 A 
ATOM     18  C   UNL     1       0.910   8.807  20.770  0.00  0.00    +0.000 A 
ATOM     19  C   UNL     1       1.104   8.825  22.143  0.00  0.00    +0.000 A 
ATOM     20  S   UNL     1       0.138   9.941  22.974  0.00  0.00    +0.000 S 
ATOM     21  C   UNL     1      -0.534  10.513  21.524  0.00  0.00    +0.000 A 
ENDROOT
BRANCH  18  22
ATOM     22  C   UNL     1       1.696   7.839  19.969  0.00  0.00    +0.000 A 
ATOM     23  C   UNL     1       1.889   6.519  20.381  0.00  0.00    +0.000 A 
ATOM     24  C   UNL     1       2.643   5.624  19.599  0.00  0.00    +0.000 A 
ATOM     25  C   UNL     1       3.203   6.016  18.376  0.00  0.00    +0.000 A 
ATOM     26  C   UNL     1       2.976   7.300  17.928  0.00  0.00    +0.000 A 
ATOM     27  C   UNL     1       2.248   8.210  18.715  0.00  0.00    +0.000 A 
BRANCH  25  28
ATOM     28  C   UNL     1       3.973   5.028  17.579  0.00  0.00    +0.000 C 
ATOM     29  O   UNL     1       4.540   5.338  16.557  0.00  0.00    +0.000 OA
BRANCH  28  30
ATOM     30  O   UNL     1       3.958   3.782  18.069  0.00  0.00    +0.000 OA
ATOM     31  H   UNL     1       4.708   3.222  17.820  0.00  0.00    +0.000 HD
ENDBRANCH  28  30
ENDBRANCH  25  28
ENDBRANCH  18  22
TORSDOF 3
ENDMDL
MODEL 6
REMARK VINA RESULT:      -8.0      1.414      2.893
REMARK  Name = 
REMARK  7 active torsions:
REMARK  status: ('A' for Active; 'I' for Inactive)
REMARK    1  A    between atoms: C_1  and  C_2
REMARK    2  A    between atoms: C_2  and  C_3
REMARK    3  A    between atoms: C_6  and  C_7
REMARK    4  A    between atoms: C_6  and  C_8
REMARK    5  A    between atoms: C_18  and  C_19
REMARK    6  A    between atoms: C_22  and  C_23
REMARK    7  A    between atoms: C_23  and  O_25
REMARK                            x       y       z     vdW  Elec       q    Type
REMARK                         _______ _______ _______ _____ _____    ______ ____
ROOT
ATOM      1  C   UNL     1      -1.041  16.813  21.261  0.00  0.00    +0.000 C 
ATOM      2  C   UNL     1      -0.790  15.325  21.716  0.00  0.00    +0.000 C 
ATOM      3  C   UNL     1       0.725  15.275  22.103  0.00  0.00    +0.000 C 
ATOM      4  C   UNL     1      -1.521  15.395  23.126  0.00  0.00    +0.000 C 
ATOM      5  C   UNL     1      -1.779  14.050  23.716  0.00  0.00    +0.000 C 
ATOM      6  C   UNL     1      -2.761  13.344  22.791  0.00  0.00    +0.000 C 
ATOM      7  C   UNL     1      -3.476  12.297  23.658  0.00  0.00    +0.000 C 
ATOM      8  C   UNL     1      -3.894  14.127  22.047  0.00  0.00    +0.000 C 
ATOM      9  C   UNL     1      -1.777  12.934  21.731  0.00  0.00    +0.000 A 
ATOM     10  C   UNL     1      -1.298  11.628  21.722  0.00  0.00    +0.000 A 
ATOM     11  C   UNL     1      -0.469  11.199  20.724  0.00  0.00    +0.000 A 
ATOM     12  C   UNL     1      -0.531  11.919  19.542  0.00  0.00    +0.000 A 
ATOM     13  C   UNL     1      -0.772  13.355  19.650  0.00  0.00    +0.000 A 
ATOM     14  C   UNL     1      -1.163  13.918  20.914  0.00  0.00    +0.000 A 
ATOM     15  C   UNL     1      -0.670  10.929  18.363  0.00  0.00    +0.000 C 
ATOM     16  C   UNL     1       0.331   9.692  18.341  0.00  0.00    +0.000 C 
ATOM     17  C   UNL     1       0.757   9.221  19.725  0.00  0.00    +0.000 A 
ATOM     18  C   UNL     1       1.594   8.091  20.166  0.00  0.00    +0.000 A 
ATOM     19  C   UNL     1       1.769   8.161  21.540  0.00  0.00    +0.000 A 
ATOM     20  S   UNL     1       0.899   9.404  22.296  0.00  0.00    +0.000 S 
ATOM     21  C   UNL     1       0.306   9.961  20.807  0.00  0.00    +0.000 A 
ENDROOT
BRANCH  18  22
ATOM     22  C   UNL     1       2.298   7.015  19.429  0.00  0.00    +0.000 A 
ATOM     23  C   UNL     1       2.202   5.674  19.804  0.00  0.00    +0.000 A 
ATOM     24  C   UNL     1       2.885   4.675  19.086  0.00  0.00    +0.000 A 
ATOM     25  C   UNL     1       3.661   4.985  17.961  0.00  0.00    +0.000 A 
ATOM     26  C   UNL     1       3.723   6.298  17.545  0.00  0.00    +0.000 A 
ATOM     27  C   UNL     1       3.067   7.307  18.272  0.00  0.00    +0.000 A 
BRANCH  25  28
ATOM     28  C   UNL     1       4.345   3.892  17.226  0.00  0.00    +0.000 C 
ATOM     29  O   UNL     1       4.858   4.075  16.147  0.00  0.00    +0.000 OA
BRANCH  28  30
ATOM     30  O   UNL     1       4.316   2.703  17.840  0.00  0.00    +0.000 OA
ATOM     31  H   UNL     1       3.933   1.974  17.330  0.00  0.00    +0.000 HD
ENDBRANCH  28  30
ENDBRANCH  25  28
ENDBRANCH  18  22
TORSDOF 3
ENDMDL
MODEL 7
REMARK VINA RESULT:      -8.0      1.493      3.034
REMARK  Name = 
REMARK  7 active torsions:
REMARK  status: ('A' for Active; 'I' for Inactive)
REMARK    1  A    between atoms: C_1  and  C_2
REMARK    2  A    between atoms: C_2  and  C_3
REMARK    3  A    between atoms: C_6  and  C_7
REMARK    4  A    between atoms: C_6  and  C_8
REMARK    5  A    between atoms: C_18  and  C_19
REMARK    6  A    between atoms: C_22  and  C_23
REMARK    7  A    between atoms: C_23  and  O_25
REMARK                            x       y       z     vdW  Elec       q    Type
REMARK                         _______ _______ _______ _____ _____    ______ ____
ROOT
ATOM      1  C   UNL     1      -1.815  17.094  21.931  0.00  0.00    +0.000 C 
ATOM      2  C   UNL     1      -1.491  15.602  22.322  0.00  0.00    +0.000 C 
ATOM      3  C   UNL     1       0.027  15.606  22.696  0.00  0.00    +0.000 C 
ATOM      4  C   UNL     1      -2.212  15.580  23.739  0.00  0.00    +0.000 C 
ATOM      5  C   UNL     1      -2.403  14.202  24.275  0.00  0.00    +0.000 C 
ATOM      6  C   UNL     1      -3.361  13.490  23.329  0.00  0.00    +0.000 C 
ATOM      7  C   UNL     1      -4.020  12.377  24.156  0.00  0.00    +0.000 C 
ATOM      8  C   UNL     1      -4.535  14.251  22.626  0.00  0.00    +0.000 C 
ATOM      9  C   UNL     1      -2.369  13.170  22.245  0.00  0.00    +0.000 A 
ATOM     10  C   UNL     1      -1.832  11.889  22.179  0.00  0.00    +0.000 A 
ATOM     11  C   UNL     1      -0.993  11.539  21.157  0.00  0.00    +0.000 A 
ATOM     12  C   UNL     1      -1.099  12.304  20.007  0.00  0.00    +0.000 A 
ATOM     13  C   UNL     1      -1.404  13.721  20.176  0.00  0.00    +0.000 A 
ATOM     14  C   UNL     1      -1.808  14.213  21.465  0.00  0.00    +0.000 A 
ATOM     15  C   UNL     1      -1.204  11.358  18.789  0.00  0.00    +0.000 C 
ATOM     16  C   UNL     1      -0.148  10.169  18.709  0.00  0.00    +0.000 C 
ATOM     17  C   UNL     1       0.312   9.662  20.068  0.00  0.00    +0.000 A 
ATOM     18  C   UNL     1       1.204   8.555  20.456  0.00  0.00    +0.000 A 
ATOM     19  C   UNL     1       1.388   8.576  21.830  0.00  0.00    +0.000 A 
ATOM     20  S   UNL     1       0.470   9.746  22.643  0.00  0.00    +0.000 S 
ATOM     21  C   UNL     1      -0.162  10.335  21.183  0.00  0.00    +0.000 A 
ENDROOT
BRANCH  18  22
ATOM     22  C   UNL     1       1.949   7.543  19.670  0.00  0.00    +0.000 A 
ATOM     23  C   UNL     1       2.586   7.859  18.469  0.00  0.00    +0.000 A 
ATOM     24  C   UNL     1       3.283   6.875  17.744  0.00  0.00    +0.000 A 
ATOM     25  C   UNL     1       3.383   5.558  18.209  0.00  0.00    +0.000 A 
ATOM     26  C   UNL     1       2.805   5.241  19.421  0.00  0.00    +0.000 A 
ATOM     27  C   UNL     1       2.083   6.210  20.139  0.00  0.00    +0.000 A 
BRANCH  25  28
ATOM     28  C   UNL     1       4.147   4.562  17.417  0.00  0.00    +0.000 C 
ATOM     29  O   UNL     1       4.786   4.880  16.441  0.00  0.00    +0.000 OA
BRANCH  28  30
ATOM     30  O   UNL     1       4.042   3.301  17.854  0.00  0.00    +0.000 OA
ATOM     31  H   UNL     1       3.141   2.981  18.006  0.00  0.00    +0.000 HD
ENDBRANCH  28  30
ENDBRANCH  25  28
ENDBRANCH  18  22
TORSDOF 3
ENDMDL
MODEL 8
REMARK VINA RESULT:      -7.9      1.929      3.114
REMARK  Name = 
REMARK  7 active torsions:
REMARK  status: ('A' for Active; 'I' for Inactive)
REMARK    1  A    between atoms: C_1  and  C_2
REMARK    2  A    between atoms: C_2  and  C_3
REMARK    3  A    between atoms: C_6  and  C_7
REMARK    4  A    between atoms: C_6  and  C_8
REMARK    5  A    between atoms: C_18  and  C_19
REMARK    6  A    between atoms: C_22  and  C_23
REMARK    7  A    between atoms: C_23  and  O_25
REMARK                            x       y       z     vdW  Elec       q    Type
REMARK                         _______ _______ _______ _____ _____    ______ ____
ROOT
ATOM      1  C   UNL     1      -7.362  13.825  24.089  0.00  0.00    +0.000 C 
ATOM      2  C   UNL     1      -6.395  13.675  22.854  0.00  0.00    +0.000 C 
ATOM      3  C   UNL     1      -6.963  12.463  22.044  0.00  0.00    +0.000 C 
ATOM      4  C   UNL     1      -6.897  14.933  22.021  0.00  0.00    +0.000 C 
ATOM      5  C   UNL     1      -5.968  15.311  20.918  0.00  0.00    +0.000 C 
ATOM      6  C   UNL     1      -4.667  15.759  21.572  0.00  0.00    +0.000 C 
ATOM      7  C   UNL     1      -3.985  16.689  20.558  0.00  0.00    +0.000 C 
ATOM      8  C   UNL     1      -4.658  16.531  22.933  0.00  0.00    +0.000 C 
ATOM      9  C   UNL     1      -4.113  14.392  21.868  0.00  0.00    +0.000 A 
ATOM     10  C   UNL     1      -3.149  13.857  21.021  0.00  0.00    +0.000 A 
ATOM     11  C   UNL     1      -2.563  12.655  21.308  0.00  0.00    +0.000 A 
ATOM     12  C   UNL     1      -2.603  12.271  22.638  0.00  0.00    +0.000 A 
ATOM     13  C   UNL     1      -3.790  12.644  23.402  0.00  0.00    +0.000 A 
ATOM     14  C   UNL     1      -4.736  13.570  22.841  0.00  0.00    +0.000 A 
ATOM     15  C   UNL     1      -1.187  11.827  23.071  0.00  0.00    +0.000 C 
ATOM     16  C   UNL     1      -0.424  10.818  22.105  0.00  0.00    +0.000 C 
ATOM     17  C   UNL     1      -0.789  10.977  20.636  0.00  0.00    +0.000 A 
ATOM     18  C   UNL     1      -0.283  10.318  19.419  0.00  0.00    +0.000 A 
ATOM     19  C   UNL     1      -1.028  10.741  18.328  0.00  0.00    +0.000 A 
ATOM     20  S   UNL     1      -2.173  11.939  18.681  0.00  0.00    +0.000 S 
ATOM     21  C   UNL     1      -1.782  11.894  20.332  0.00  0.00    +0.000 A 
ENDROOT
BRANCH  18  22
ATOM     22  C   UNL     1       0.760   9.291  19.193  0.00  0.00    +0.000 A 
ATOM     23  C   UNL     1       1.457   9.193  17.987  0.00  0.00    +0.000 A 
ATOM     24  C   UNL     1       2.441   8.205  17.802  0.00  0.00    +0.000 A 
ATOM     25  C   UNL     1       2.773   7.304  18.823  0.00  0.00    +0.000 A 
ATOM     26  C   UNL     1       2.132   7.421  20.039  0.00  0.00    +0.000 A 
ATOM     27  C   UNL     1       1.128   8.387  20.224  0.00  0.00    +0.000 A 
BRANCH  25  28
ATOM     28  C   UNL     1       3.832   6.292  18.584  0.00  0.00    +0.000 C 
ATOM     29  O   UNL     1       4.285   6.092  17.481  0.00  0.00    +0.000 OA
BRANCH  28  30
ATOM     30  O   UNL     1       4.213   5.615  19.675  0.00  0.00    +0.000 OA
ATOM     31  H   UNL     1       5.070   5.168  19.616  0.00  0.00    +0.000 HD
ENDBRANCH  28  30
ENDBRANCH  25  28
ENDBRANCH  18  22
TORSDOF 3
ENDMDL
MODEL 9
REMARK VINA RESULT:      -7.9      1.759      2.634
REMARK  Name = 
REMARK  7 active torsions:
REMARK  status: ('A' for Active; 'I' for Inactive)
REMARK    1  A    between atoms: C_1  and  C_2
REMARK    2  A    between atoms: C_2  and  C_3
REMARK    3  A    between atoms: C_6  and  C_7
REMARK    4  A    between atoms: C_6  and  C_8
REMARK    5  A    between atoms: C_18  and  C_19
REMARK    6  A    between atoms: C_22  and  C_23
REMARK    7  A    between atoms: C_23  and  O_25
REMARK                            x       y       z     vdW  Elec       q    Type
REMARK                         _______ _______ _______ _____ _____    ______ ____
ROOT
ATOM      1  C   UNL     1      -7.052  13.592  24.076  0.00  0.00    +0.000 C 
ATOM      2  C   UNL     1      -6.023  13.528  22.885  0.00  0.00    +0.000 C 
ATOM      3  C   UNL     1      -6.606  12.453  21.909  0.00  0.00    +0.000 C 
ATOM      4  C   UNL     1      -6.409  14.901  22.182  0.00  0.00    +0.000 C 
ATOM      5  C   UNL     1      -5.397  15.348  21.181  0.00  0.00    +0.000 C 
ATOM      6  C   UNL     1      -4.116  15.640  21.951  0.00  0.00    +0.000 C 
ATOM      7  C   UNL     1      -3.328  16.639  21.092  0.00  0.00    +0.000 C 
ATOM      8  C   UNL     1      -4.147  16.249  23.393  0.00  0.00    +0.000 C 
ATOM      9  C   UNL     1      -3.653  14.218  22.112  0.00  0.00    +0.000 A 
ATOM     10  C   UNL     1      -2.670  13.728  21.260  0.00  0.00    +0.000 A 
ATOM     11  C   UNL     1      -2.165  12.469  21.432  0.00  0.00    +0.000 A 
ATOM     12  C   UNL     1      -2.304  11.937  22.704  0.00  0.00    +0.000 A 
ATOM     13  C   UNL     1      -3.513  12.289  23.443  0.00  0.00    +0.000 A 
ATOM     14  C   UNL     1      -4.374  13.327  22.947  0.00  0.00    +0.000 A 
ATOM     15  C   UNL     1      -0.941  11.364  23.155  0.00  0.00    +0.000 C 
ATOM     16  C   UNL     1      -0.176  10.430  22.118  0.00  0.00    +0.000 C 
ATOM     17  C   UNL     1      -0.446  10.778  20.661  0.00  0.00    +0.000 A 
ATOM     18  C   UNL     1       0.096  10.235  19.403  0.00  0.00    +0.000 A 
ATOM     19  C   UNL     1      -0.559  10.824  18.332  0.00  0.00    +0.000 A 
ATOM     20  S   UNL     1      -1.659  12.038  18.764  0.00  0.00    +0.000 S 
ATOM     21  C   UNL     1      -1.370  11.781  20.415  0.00  0.00    +0.000 A 
ENDROOT
BRANCH  18  22
ATOM     22  C   UNL     1       1.096   9.180  19.112  0.00  0.00    +0.000 A 
ATOM     23  C   UNL     1       1.352   8.136  20.002  0.00  0.00    +0.000 A 
ATOM     24  C   UNL     1       2.310   7.151  19.698  0.00  0.00    +0.000 A 
ATOM     25  C   UNL     1       3.020   7.169  18.491  0.00  0.00    +0.000 A 
ATOM     26  C   UNL     1       2.741   8.164  17.577  0.00  0.00    +0.000 A 
ATOM     27  C   UNL     1       1.806   9.168  17.883  0.00  0.00    +0.000 A 
BRANCH  25  28
ATOM     28  C   UNL     1       4.006   6.096  18.210  0.00  0.00    +0.000 C 
ATOM     29  O   UNL     1       4.265   5.240  19.023  0.00  0.00    +0.000 OA
BRANCH  28  30
ATOM     30  O   UNL     1       4.594   6.178  17.009  0.00  0.00    +0.000 OA
ATOM     31  H   UNL     1       4.476   5.412  16.429  0.00  0.00    +0.000 HD
ENDBRANCH  28  30
ENDBRANCH  25  28
ENDBRANCH  18  22
TORSDOF 3
ENDMDL
