MODEL 1
REMARK VINA RESULT:      -9.0      0.000      0.000
REMARK  Name = 
REMARK  9 active torsions:
REMARK  status: ('A' for Active; 'I' for Inactive)
REMARK    1  A    between atoms: C_1  and  C_2
REMARK    2  A    between atoms: C_2  and  C_3
REMARK    3  A    between atoms: C_5  and  O_6
REMARK    4  A    between atoms: O_6  and  C_7
REMARK    5  A    between atoms: C_7  and  O_9
REMARK    6  A    between atoms: O_9  and  C_10
REMARK    7  A    between atoms: C_11  and  O_12
REMARK    8  A    between atoms: O_12  and  C_13
REMARK    9  A    between atoms: C_16  and  C_17
REMARK                            x       y       z     vdW  Elec       q    Type
REMARK                         _______ _______ _______ _____ _____    ______ ____
ROOT
ATOM      1  C   UNL     1       2.490   6.721  19.558  0.00  0.00    +0.000 A 
ATOM      2  C   UNL     1       1.824   6.928  20.766  0.00  0.00    +0.000 A 
ATOM      3  C   UNL     1       1.140   8.125  20.989  0.00  0.00    +0.000 A 
ATOM      4  C   UNL     1       1.124   9.128  20.007  0.00  0.00    +0.000 A 
ATOM      5  C   UNL     1       1.776   8.906  18.792  0.00  0.00    +0.000 A 
ATOM      6  C   UNL     1       2.395   7.686  18.553  0.00  0.00    +0.000 A 
ATOM      7  F   UNL     1       2.949   7.494  17.346  0.00  0.00    +0.000 F 
ENDROOT
BRANCH   4   8
ATOM      8  C   UNL     1       0.569  10.458  20.372  0.00  0.00    +0.000 C 
ATOM      9  O   UNL     1       1.103  11.035  21.318  0.00  0.00    +0.000 OA
ATOM     10  N   UNL     1      -0.447  11.046  19.633  0.00  0.00    +0.000 N 
ATOM     11  C   UNL     1      -0.686  12.476  19.801  0.00  0.00    +0.000 C 
ATOM     12  C   UNL     1      -0.615  13.142  18.429  0.00  0.00    +0.000 C 
ATOM     13  N   UNL     1      -1.483  12.492  17.461  0.00  0.00    +0.000 N 
ATOM     14  C   UNL     1      -1.724  11.139  17.472  0.00  0.00    +0.000 C 
ATOM     15  O   UNL     1      -2.284  10.612  16.511  0.00  0.00    +0.000 OA
ATOM     16  C   UNL     1      -1.439  10.375  18.779  0.00  0.00    +0.000 C 
ATOM     17  H   UNL     1      -1.660  12.941  16.570  0.00  0.00    +0.000 HD
ENDBRANCH   4   8
BRANCH   1  18
ATOM     18  O   UNL     1       3.193   5.545  19.464  0.00  0.00    +0.000 OA
BRANCH  18  22
ATOM     19  C   UNL     1       5.935   4.702  16.404  0.00  0.00    +0.000 A 
ATOM     20  C   UNL     1       4.637   4.174  16.381  0.00  0.00    +0.000 A 
ATOM     21  C   UNL     1       3.715   4.517  17.384  0.00  0.00    +0.000 A 
ATOM     22  C   UNL     1       4.089   5.359  18.438  0.00  0.00    +0.000 A 
ATOM     23  C   UNL     1       5.394   5.867  18.466  0.00  0.00    +0.000 A 
ATOM     24  C   UNL     1       6.286   5.562  17.446  0.00  0.00    +0.000 A 
ATOM     25  F   UNL     1       7.522   6.082  17.495  0.00  0.00    +0.000 F 
BRANCH  19  27
ATOM     26  C   UNL     1       6.380   4.254  13.982  0.00  0.00    +0.000 C 
ATOM     27  C   UNL     1       6.968   4.293  15.386  0.00  0.00    +0.000 C 
ENDBRANCH  19  27
BRANCH  21  28
ATOM     28  O   UNL     1       2.471   3.845  17.314  0.00  0.00    +0.000 OA
BRANCH  28  29
ATOM     29  C   UNL     1       2.183   2.688  18.034  0.00  0.00    +0.000 C 
ATOM     30  O   UNL     1       2.886   1.698  18.152  0.00  0.00    +0.000 OA
BRANCH  29  31
ATOM     31  O   UNL     1       0.959   2.857  18.609  0.00  0.00    +0.000 OA
ATOM     32  C   UNL     1       0.976   2.974  20.032  0.00  0.00    +0.000 C 
ENDBRANCH  29  31
ENDBRANCH  28  29
ENDBRANCH  21  28
ENDBRANCH  18  22
ENDBRANCH   1  18
TORSDOF 7
ENDMDL
MODEL 2
REMARK VINA RESULT:      -9.0      3.384      8.814
REMARK  Name = 
REMARK  9 active torsions:
REMARK  status: ('A' for Active; 'I' for Inactive)
REMARK    1  A    between atoms: C_1  and  C_2
REMARK    2  A    between atoms: C_2  and  C_3
REMARK    3  A    between atoms: C_5  and  O_6
REMARK    4  A    between atoms: O_6  and  C_7
REMARK    5  A    between atoms: C_7  and  O_9
REMARK    6  A    between atoms: O_9  and  C_10
REMARK    7  A    between atoms: C_11  and  O_12
REMARK    8  A    between atoms: O_12  and  C_13
REMARK    9  A    between atoms: C_16  and  C_17
REMARK                            x       y       z     vdW  Elec       q    Type
REMARK                         _______ _______ _______ _____ _____    ______ ____
ROOT
ATOM      1  C   UNL     1       1.658   9.087  19.217  0.00  0.00    +0.000 A 
ATOM      2  C   UNL     1       2.202   8.973  17.938  0.00  0.00    +0.000 A 
ATOM      3  C   UNL     1       2.828   7.787  17.550  0.00  0.00    +0.000 A 
ATOM      4  C   UNL     1       2.921   6.707  18.443  0.00  0.00    +0.000 A 
ATOM      5  C   UNL     1       2.356   6.821  19.714  0.00  0.00    +0.000 A 
ATOM      6  C   UNL     1       1.675   7.980  20.067  0.00  0.00    +0.000 A 
ATOM      7  F   UNL     1       1.090   8.015  21.274  0.00  0.00    +0.000 F 
ENDROOT
BRANCH   4   8
ATOM      8  C   UNL     1       3.777   5.554  18.060  0.00  0.00    +0.000 C 
ATOM      9  O   UNL     1       4.981   5.780  17.940  0.00  0.00    +0.000 OA
ATOM     10  N   UNL     1       3.253   4.277  17.924  0.00  0.00    +0.000 N 
ATOM     11  C   UNL     1       4.177   3.147  17.922  0.00  0.00    +0.000 C 
ATOM     12  C   UNL     1       3.742   2.165  19.008  0.00  0.00    +0.000 C 
ATOM     13  N   UNL     1       2.340   1.802  18.886  0.00  0.00    +0.000 N 
ATOM     14  C   UNL     1       1.382   2.680  18.437  0.00  0.00    +0.000 C 
ATOM     15  O   UNL     1       0.191   2.397  18.558  0.00  0.00    +0.000 OA
ATOM     16  C   UNL     1       1.861   3.905  17.634  0.00  0.00    +0.000 C 
ATOM     17  H   UNL     1       1.976   1.030  19.432  0.00  0.00    +0.000 HD
ENDBRANCH   4   8
BRANCH   1  18
ATOM     18  O   UNL     1       1.130  10.317  19.528  0.00  0.00    +0.000 OA
BRANCH  18  22
ATOM     19  C   UNL     1      -2.816  11.259  18.463  0.00  0.00    +0.000 A 
ATOM     20  C   UNL     1      -2.146  11.971  19.467  0.00  0.00    +0.000 A 
ATOM     21  C   UNL     1      -0.805  11.680  19.767  0.00  0.00    +0.000 A 
ATOM     22  C   UNL     1      -0.131  10.653  19.095  0.00  0.00    +0.000 A 
ATOM     23  C   UNL     1      -0.813   9.931  18.108  0.00  0.00    +0.000 A 
ATOM     24  C   UNL     1      -2.124  10.256  17.782  0.00  0.00    +0.000 A 
ATOM     25  F   UNL     1      -2.740   9.556  16.818  0.00  0.00    +0.000 F 
BRANCH  19  27
ATOM     26  C   UNL     1      -4.926  12.350  19.252  0.00  0.00    +0.000 C 
ATOM     27  C   UNL     1      -4.276  11.496  18.172  0.00  0.00    +0.000 C 
ENDBRANCH  19  27
BRANCH  21  28
ATOM     28  O   UNL     1      -0.265  12.391  20.865  0.00  0.00    +0.000 OA
BRANCH  28  29
ATOM     29  C   UNL     1      -0.613  12.137  22.189  0.00  0.00    +0.000 C 
ATOM     30  O   UNL     1      -1.409  12.758  22.875  0.00  0.00    +0.000 OA
BRANCH  29  31
ATOM     31  O   UNL     1       0.093  11.046  22.597  0.00  0.00    +0.000 OA
ATOM     32  C   UNL     1      -0.690  10.017  23.202  0.00  0.00    +0.000 C 
ENDBRANCH  29  31
ENDBRANCH  28  29
ENDBRANCH  21  28
ENDBRANCH  18  22
ENDBRANCH   1  18
TORSDOF 7
ENDMDL
MODEL 3
REMARK VINA RESULT:      -8.9      3.206      8.728
REMARK  Name = 
REMARK  9 active torsions:
REMARK  status: ('A' for Active; 'I' for Inactive)
REMARK    1  A    between atoms: C_1  and  C_2
REMARK    2  A    between atoms: C_2  and  C_3
REMARK    3  A    between atoms: C_5  and  O_6
REMARK    4  A    between atoms: O_6  and  C_7
REMARK    5  A    between atoms: C_7  and  O_9
REMARK    6  A    between atoms: O_9  and  C_10
REMARK    7  A    between atoms: C_11  and  O_12
REMARK    8  A    between atoms: O_12  and  C_13
REMARK    9  A    between atoms: C_16  and  C_17
REMARK                            x       y       z     vdW  Elec       q    Type
REMARK                         _______ _______ _______ _____ _____    ______ ____
ROOT
ATOM      1  C   UNL     1       1.592   8.931  19.378  0.00  0.00    +0.000 A 
ATOM      2  C   UNL     1       1.681   7.767  20.142  0.00  0.00    +0.000 A 
ATOM      3  C   UNL     1       2.367   6.657  19.644  0.00  0.00    +0.000 A 
ATOM      4  C   UNL     1       2.962   6.701  18.373  0.00  0.00    +0.000 A 
ATOM      5  C   UNL     1       2.886   7.875  17.622  0.00  0.00    +0.000 A 
ATOM      6  C   UNL     1       2.261   8.997  18.154  0.00  0.00    +0.000 A 
ATOM      7  F   UNL     1       2.274  10.122  17.424  0.00  0.00    +0.000 F 
ENDROOT
BRANCH   4   8
ATOM      8  C   UNL     1       3.491   5.434  17.804  0.00  0.00    +0.000 C 
ATOM      9  O   UNL     1       2.672   4.537  17.606  0.00  0.00    +0.000 OA
ATOM     10  N   UNL     1       4.824   5.302  17.444  0.00  0.00    +0.000 N 
ATOM     11  C   UNL     1       5.197   4.201  16.562  0.00  0.00    +0.000 C 
ATOM     12  C   UNL     1       5.928   4.778  15.352  0.00  0.00    +0.000 C 
ATOM     13  N   UNL     1       7.029   5.644  15.740  0.00  0.00    +0.000 N 
ATOM     14  C   UNL     1       6.991   6.433  16.865  0.00  0.00    +0.000 C 
ATOM     15  O   UNL     1       7.848   7.302  17.029  0.00  0.00    +0.000 OA
ATOM     16  C   UNL     1       5.971   6.065  17.959  0.00  0.00    +0.000 C 
ATOM     17  H   UNL     1       7.697   5.946  15.040  0.00  0.00    +0.000 HD
ENDBRANCH   4   8
BRANCH   1  18
ATOM     18  O   UNL     1       0.836   9.940  19.923  0.00  0.00    +0.000 OA
BRANCH  18  22
ATOM     19  C   UNL     1      -2.726  11.246  18.133  0.00  0.00    +0.000 A 
ATOM     20  C   UNL     1      -2.228  11.860  19.290  0.00  0.00    +0.000 A 
ATOM     21  C   UNL     1      -1.003  11.447  19.840  0.00  0.00    +0.000 A 
ATOM     22  C   UNL     1      -0.281  10.395  19.262  0.00  0.00    +0.000 A 
ATOM     23  C   UNL     1      -0.794   9.772  18.119  0.00  0.00    +0.000 A 
ATOM     24  C   UNL     1      -1.982  10.217  17.552  0.00  0.00    +0.000 A 
ATOM     25  F   UNL     1      -2.435   9.609  16.445  0.00  0.00    +0.000 F 
BRANCH  19  27
ATOM     26  C   UNL     1      -5.187  10.797  18.205  0.00  0.00    +0.000 C 
ATOM     27  C   UNL     1      -4.072  11.614  17.565  0.00  0.00    +0.000 C 
ENDBRANCH  19  27
BRANCH  21  28
ATOM     28  O   UNL     1      -0.651  12.067  21.062  0.00  0.00    +0.000 OA
BRANCH  28  29
ATOM     29  C   UNL     1      -1.237  11.743  22.283  0.00  0.00    +0.000 C 
ATOM     30  O   UNL     1      -2.388  11.957  22.629  0.00  0.00    +0.000 OA
BRANCH  29  31
ATOM     31  O   UNL     1      -0.292  11.120  23.040  0.00  0.00    +0.000 OA
ATOM     32  C   UNL     1      -0.418   9.699  23.109  0.00  0.00    +0.000 C 
ENDBRANCH  29  31
ENDBRANCH  28  29
ENDBRANCH  21  28
ENDBRANCH  18  22
ENDBRANCH   1  18
TORSDOF 7
ENDMDL
MODEL 4
REMARK VINA RESULT:      -8.8      0.998      1.321
REMARK  Name = 
REMARK  9 active torsions:
REMARK  status: ('A' for Active; 'I' for Inactive)
REMARK    1  A    between atoms: C_1  and  C_2
REMARK    2  A    between atoms: C_2  and  C_3
REMARK    3  A    between atoms: C_5  and  O_6
REMARK    4  A    between atoms: O_6  and  C_7
REMARK    5  A    between atoms: C_7  and  O_9
REMARK    6  A    between atoms: O_9  and  C_10
REMARK    7  A    between atoms: C_11  and  O_12
REMARK    8  A    between atoms: O_12  and  C_13
REMARK    9  A    between atoms: C_16  and  C_17
REMARK                            x       y       z     vdW  Elec       q    Type
REMARK                         _______ _______ _______ _____ _____    ______ ____
ROOT
ATOM      1  C   UNL     1       2.175   6.698  19.183  0.00  0.00    +0.000 A 
ATOM      2  C   UNL     1       2.199   7.756  18.274  0.00  0.00    +0.000 A 
ATOM      3  C   UNL     1       1.770   9.025  18.670  0.00  0.00    +0.000 A 
ATOM      4  C   UNL     1       1.305   9.242  19.978  0.00  0.00    +0.000 A 
ATOM      5  C   UNL     1       1.302   8.183  20.887  0.00  0.00    +0.000 A 
ATOM      6  C   UNL     1       1.796   6.941  20.504  0.00  0.00    +0.000 A 
ATOM      7  F   UNL     1       1.837   5.974  21.433  0.00  0.00    +0.000 F 
ENDROOT
BRANCH   4   8
ATOM      8  C   UNL     1       0.663  10.547  20.285  0.00  0.00    +0.000 C 
ATOM      9  O   UNL     1       1.175  11.213  21.183  0.00  0.00    +0.000 OA
ATOM     10  N   UNL     1      -0.410  11.018  19.542  0.00  0.00    +0.000 N 
ATOM     11  C   UNL     1      -0.748  12.434  19.638  0.00  0.00    +0.000 C 
ATOM     12  C   UNL     1      -0.758  13.025  18.230  0.00  0.00    +0.000 C 
ATOM     13  N   UNL     1      -1.597  12.261  17.322  0.00  0.00    +0.000 N 
ATOM     14  C   UNL     1      -1.740  10.897  17.414  0.00  0.00    +0.000 C 
ATOM     15  O   UNL     1      -2.282  10.278  16.499  0.00  0.00    +0.000 OA
ATOM     16  C   UNL     1      -1.369  10.231  18.753  0.00  0.00    +0.000 C 
ATOM     17  H   UNL     1      -1.827  12.645  16.413  0.00  0.00    +0.000 HD
ENDBRANCH   4   8
BRANCH   1  18
ATOM     18  O   UNL     1       2.548   5.476  18.677  0.00  0.00    +0.000 OA
BRANCH  18  22
ATOM     19  C   UNL     1       5.822   4.978  16.104  0.00  0.00    +0.000 A 
ATOM     20  C   UNL     1       4.771   4.052  16.127  0.00  0.00    +0.000 A 
ATOM     21  C   UNL     1       3.655   4.269  16.952  0.00  0.00    +0.000 A 
ATOM     22  C   UNL     1       3.593   5.390  17.788  0.00  0.00    +0.000 A 
ATOM     23  C   UNL     1       4.657   6.300  17.776  0.00  0.00    +0.000 A 
ATOM     24  C   UNL     1       5.736   6.106  16.922  0.00  0.00    +0.000 A 
ATOM     25  F   UNL     1       6.728   7.008  16.923  0.00  0.00    +0.000 F 
BRANCH  19  27
ATOM     26  C   UNL     1       6.723   4.350  13.855  0.00  0.00    +0.000 C 
ATOM     27  C   UNL     1       7.066   4.735  15.288  0.00  0.00    +0.000 C 
ENDBRANCH  19  27
BRANCH  21  28
ATOM     28  O   UNL     1       2.705   3.219  16.969  0.00  0.00    +0.000 OA
BRANCH  28  29
ATOM     29  C   UNL     1       2.713   2.193  17.911  0.00  0.00    +0.000 C 
ATOM     30  O   UNL     1       3.621   1.413  18.145  0.00  0.00    +0.000 OA
BRANCH  29  31
ATOM     31  O   UNL     1       1.510   2.215  18.551  0.00  0.00    +0.000 OA
ATOM     32  C   UNL     1       1.584   2.438  19.959  0.00  0.00    +0.000 C 
ENDBRANCH  29  31
ENDBRANCH  28  29
ENDBRANCH  21  28
ENDBRANCH  18  22
ENDBRANCH   1  18
TORSDOF 7
ENDMDL
MODEL 5
REMARK VINA RESULT:      -8.6      1.484      2.495
REMARK  Name = 
REMARK  9 active torsions:
REMARK  status: ('A' for Active; 'I' for Inactive)
REMARK    1  A    between atoms: C_1  and  C_2
REMARK    2  A    between atoms: C_2  and  C_3
REMARK    3  A    between atoms: C_5  and  O_6
REMARK    4  A    between atoms: O_6  and  C_7
REMARK    5  A    between atoms: C_7  and  O_9
REMARK    6  A    between atoms: O_9  and  C_10
REMARK    7  A    between atoms: C_11  and  O_12
REMARK    8  A    between atoms: O_12  and  C_13
REMARK    9  A    between atoms: C_16  and  C_17
REMARK                            x       y       z     vdW  Elec       q    Type
REMARK                         _______ _______ _______ _____ _____    ______ ____
ROOT
ATOM      1  C   UNL     1       2.480   7.170  19.214  0.00  0.00    +0.000 A 
ATOM      2  C   UNL     1       2.561   7.865  18.006  0.00  0.00    +0.000 A 
ATOM      3  C   UNL     1       1.845   9.052  17.836  0.00  0.00    +0.000 A 
ATOM      4  C   UNL     1       1.036   9.548  18.871  0.00  0.00    +0.000 A 
ATOM      5  C   UNL     1       0.975   8.858  20.083  0.00  0.00    +0.000 A 
ATOM      6  C   UNL     1       1.745   7.716  20.267  0.00  0.00    +0.000 A 
ATOM      7  F   UNL     1       1.706   7.126  21.472  0.00  0.00    +0.000 F 
ENDROOT
BRANCH   4   8
ATOM      8  C   UNL     1       0.134  10.690  18.568  0.00  0.00    +0.000 C 
ATOM      9  O   UNL     1      -0.873  10.435  17.908  0.00  0.00    +0.000 OA
ATOM     10  N   UNL     1       0.379  11.960  19.071  0.00  0.00    +0.000 N 
ATOM     11  C   UNL     1      -0.711  12.930  19.058  0.00  0.00    +0.000 C 
ATOM     12  C   UNL     1      -0.905  13.456  20.479  0.00  0.00    +0.000 C 
ATOM     13  N   UNL     1       0.337  13.945  21.055  0.00  0.00    +0.000 N 
ATOM     14  C   UNL     1       1.558  13.381  20.773  0.00  0.00    +0.000 C 
ATOM     15  O   UNL     1       2.541  13.688  21.447  0.00  0.00    +0.000 OA
ATOM     16  C   UNL     1       1.668  12.521  19.500  0.00  0.00    +0.000 C 
ATOM     17  H   UNL     1       0.311  14.477  21.917  0.00  0.00    +0.000 HD
ENDBRANCH   4   8
BRANCH   1  18
ATOM     18  O   UNL     1       3.162   5.978  19.256  0.00  0.00    +0.000 OA
BRANCH  18  22
ATOM     19  C   UNL     1       5.628   4.586  16.162  0.00  0.00    +0.000 A 
ATOM     20  C   UNL     1       4.357   4.037  16.379  0.00  0.00    +0.000 A 
ATOM     21  C   UNL     1       3.523   4.558  17.382  0.00  0.00    +0.000 A 
ATOM     22  C   UNL     1       3.961   5.606  18.201  0.00  0.00    +0.000 A 
ATOM     23  C   UNL     1       5.241   6.135  17.993  0.00  0.00    +0.000 A 
ATOM     24  C   UNL     1       6.042   5.648  16.968  0.00  0.00    +0.000 A 
ATOM     25  F   UNL     1       7.254   6.192  16.785  0.00  0.00    +0.000 F 
BRANCH  19  27
ATOM     26  C   UNL     1       5.964   4.002  13.751  0.00  0.00    +0.000 C 
ATOM     27  C   UNL     1       6.575   3.999  15.147  0.00  0.00    +0.000 C 
ENDBRANCH  19  27
BRANCH  21  28
ATOM     28  O   UNL     1       2.307   3.860  17.577  0.00  0.00    +0.000 OA
BRANCH  28  29
ATOM     29  C   UNL     1       2.215   2.662  18.282  0.00  0.00    +0.000 C 
ATOM     30  O   UNL     1       3.056   1.781  18.352  0.00  0.00    +0.000 OA
BRANCH  29  31
ATOM     31  O   UNL     1       1.004   2.645  18.904  0.00  0.00    +0.000 OA
ATOM     32  C   UNL     1       0.903   3.498  20.045  0.00  0.00    +0.000 C 
ENDBRANCH  29  31
ENDBRANCH  28  29
ENDBRANCH  21  28
ENDBRANCH  18  22
ENDBRANCH   1  18
TORSDOF 7
ENDMDL
MODEL 6
REMARK VINA RESULT:      -8.6      3.424      8.944
REMARK  Name = 
REMARK  9 active torsions:
REMARK  status: ('A' for Active; 'I' for Inactive)
REMARK    1  A    between atoms: C_1  and  C_2
REMARK    2  A    between atoms: C_2  and  C_3
REMARK    3  A    between atoms: C_5  and  O_6
REMARK    4  A    between atoms: O_6  and  C_7
REMARK    5  A    between atoms: C_7  and  O_9
REMARK    6  A    between atoms: O_9  and  C_10
REMARK    7  A    between atoms: C_11  and  O_12
REMARK    8  A    between atoms: O_12  and  C_13
REMARK    9  A    between atoms: C_16  and  C_17
REMARK                            x       y       z     vdW  Elec       q    Type
REMARK                         _______ _______ _______ _____ _____    ______ ____
ROOT
ATOM      1  C   UNL     1       1.469   9.050  19.316  0.00  0.00    +0.000 A 
ATOM      2  C   UNL     1       2.065   8.924  18.060  0.00  0.00    +0.000 A 
ATOM      3  C   UNL     1       2.754   7.755  17.730  0.00  0.00    +0.000 A 
ATOM      4  C   UNL     1       2.857   6.705  18.656  0.00  0.00    +0.000 A 
ATOM      5  C   UNL     1       2.242   6.830  19.903  0.00  0.00    +0.000 A 
ATOM      6  C   UNL     1       1.501   7.968  20.197  0.00  0.00    +0.000 A 
ATOM      7  F   UNL     1       0.871   8.012  21.381  0.00  0.00    +0.000 F 
ENDROOT
BRANCH   4   8
ATOM      8  C   UNL     1       3.775   5.579  18.339  0.00  0.00    +0.000 C 
ATOM      9  O   UNL     1       4.978   5.836  18.334  0.00  0.00    +0.000 OA
ATOM     10  N   UNL     1       3.298   4.292  18.136  0.00  0.00    +0.000 N 
ATOM     11  C   UNL     1       4.246   3.185  18.203  0.00  0.00    +0.000 C 
ATOM     12  C   UNL     1       3.737   2.175  19.229  0.00  0.00    +0.000 C 
ATOM     13  N   UNL     1       2.362   1.781  18.971  0.00  0.00    +0.000 N 
ATOM     14  C   UNL     1       1.428   2.643  18.447  0.00  0.00    +0.000 C 
ATOM     15  O   UNL     1       0.238   2.330  18.453  0.00  0.00    +0.000 OA
ATOM     16  C   UNL     1       1.948   3.893  17.710  0.00  0.00    +0.000 C 
ATOM     17  H   UNL     1       1.968   0.992  19.469  0.00  0.00    +0.000 HD
ENDBRANCH   4   8
BRANCH   1  18
ATOM     18  O   UNL     1       0.879  10.264  19.571  0.00  0.00    +0.000 OA
BRANCH  18  22
ATOM     19  C   UNL     1      -2.852  11.191  17.894  0.00  0.00    +0.000 A 
ATOM     20  C   UNL     1      -2.390  11.847  19.043  0.00  0.00    +0.000 A 
ATOM     21  C   UNL     1      -1.112  11.565  19.554  0.00  0.00    +0.000 A 
ATOM     22  C   UNL     1      -0.298  10.601  18.946  0.00  0.00    +0.000 A 
ATOM     23  C   UNL     1      -0.774   9.934  17.811  0.00  0.00    +0.000 A 
ATOM     24  C   UNL     1      -2.019  10.252  17.283  0.00  0.00    +0.000 A 
ATOM     25  F   UNL     1      -2.435   9.606  16.183  0.00  0.00    +0.000 F 
BRANCH  19  27
ATOM     26  C   UNL     1      -5.286  11.272  18.471  0.00  0.00    +0.000 C 
ATOM     27  C   UNL     1      -4.246  11.415  17.368  0.00  0.00    +0.000 C 
ENDBRANCH  19  27
BRANCH  21  28
ATOM     28  O   UNL     1      -0.794  12.211  20.772  0.00  0.00    +0.000 OA
BRANCH  28  29
ATOM     29  C   UNL     1      -0.029  13.372  20.847  0.00  0.00    +0.000 C 
ATOM     30  O   UNL     1      -0.351  14.493  20.488  0.00  0.00    +0.000 OA
BRANCH  29  31
ATOM     31  O   UNL     1       1.165  13.041  21.413  0.00  0.00    +0.000 OA
ATOM     32  C   UNL     1       2.312  13.363  20.626  0.00  0.00    +0.000 C 
ENDBRANCH  29  31
ENDBRANCH  28  29
ENDBRANCH  21  28
ENDBRANCH  18  22
ENDBRANCH   1  18
TORSDOF 7
ENDMDL
MODEL 7
REMARK VINA RESULT:      -8.6      3.203      8.687
REMARK  Name = 
REMARK  9 active torsions:
REMARK  status: ('A' for Active; 'I' for Inactive)
REMARK    1  A    between atoms: C_1  and  C_2
REMARK    2  A    between atoms: C_2  and  C_3
REMARK    3  A    between atoms: C_5  and  O_6
REMARK    4  A    between atoms: O_6  and  C_7
REMARK    5  A    between atoms: C_7  and  O_9
REMARK    6  A    between atoms: O_9  and  C_10
REMARK    7  A    between atoms: C_11  and  O_12
REMARK    8  A    between atoms: O_12  and  C_13
REMARK    9  A    between atoms: C_16  and  C_17
REMARK                            x       y       z     vdW  Elec       q    Type
REMARK                         _______ _______ _______ _____ _____    ______ ____
ROOT
ATOM      1  C   UNL     1       1.413   9.069  19.524  0.00  0.00    +0.000 A 
ATOM      2  C   UNL     1       1.131   8.452  20.744  0.00  0.00    +0.000 A 
ATOM      3  C   UNL     1       1.464   7.110  20.938  0.00  0.00    +0.000 A 
ATOM      4  C   UNL     1       2.074   6.372  19.911  0.00  0.00    +0.000 A 
ATOM      5  C   UNL     1       2.370   7.002  18.700  0.00  0.00    +0.000 A 
ATOM      6  C   UNL     1       2.099   8.355  18.540  0.00  0.00    +0.000 A 
ATOM      7  F   UNL     1       2.465   8.931  17.386  0.00  0.00    +0.000 F 
ENDROOT
BRANCH   4   8
ATOM      8  C   UNL     1       2.211   4.903  20.090  0.00  0.00    +0.000 C 
ATOM      9  O   UNL     1       1.286   4.331  20.665  0.00  0.00    +0.000 OA
ATOM     10  N   UNL     1       3.291   4.207  19.565  0.00  0.00    +0.000 N 
ATOM     11  C   UNL     1       3.186   2.757  19.444  0.00  0.00    +0.000 C 
ATOM     12  C   UNL     1       3.469   2.372  17.993  0.00  0.00    +0.000 C 
ATOM     13  N   UNL     1       4.722   2.932  17.515  0.00  0.00    +0.000 N 
ATOM     14  C   UNL     1       5.193   4.156  17.925  0.00  0.00    +0.000 C 
ATOM     15  O   UNL     1       6.138   4.676  17.332  0.00  0.00    +0.000 OA
ATOM     16  C   UNL     1       4.622   4.736  19.234  0.00  0.00    +0.000 C 
ATOM     17  H   UNL     1       5.109   2.609  16.635  0.00  0.00    +0.000 HD
ENDBRANCH   4   8
BRANCH   1  18
ATOM     18  O   UNL     1       0.981  10.368  19.406  0.00  0.00    +0.000 OA
BRANCH  18  22
ATOM     19  C   UNL     1      -2.788  11.116  17.726  0.00  0.00    +0.000 A 
ATOM     20  C   UNL     1      -2.318  11.863  18.815  0.00  0.00    +0.000 A 
ATOM     21  C   UNL     1      -1.029  11.637  19.325  0.00  0.00    +0.000 A 
ATOM     22  C   UNL     1      -0.210  10.642  18.778  0.00  0.00    +0.000 A 
ATOM     23  C   UNL     1      -0.694   9.885  17.703  0.00  0.00    +0.000 A 
ATOM     24  C   UNL     1      -1.952  10.145  17.173  0.00  0.00    +0.000 A 
ATOM     25  F   UNL     1      -2.375   9.414  16.132  0.00  0.00    +0.000 F 
BRANCH  19  27
ATOM     26  C   UNL     1      -5.224  10.884  18.257  0.00  0.00    +0.000 C 
ATOM     27  C   UNL     1      -4.194  11.282  17.208  0.00  0.00    +0.000 C 
ENDBRANCH  19  27
BRANCH  21  28
ATOM     28  O   UNL     1      -0.701  12.377  20.486  0.00  0.00    +0.000 OA
BRANCH  28  29
ATOM     29  C   UNL     1      -1.190  12.070  21.754  0.00  0.00    +0.000 C 
ATOM     30  O   UNL     1      -2.272  12.383  22.223  0.00  0.00    +0.000 OA
BRANCH  29  31
ATOM     31  O   UNL     1      -0.239  11.335  22.393  0.00  0.00    +0.000 OA
ATOM     32  C   UNL     1      -0.745  10.275  23.205  0.00  0.00    +0.000 C 
ENDBRANCH  29  31
ENDBRANCH  28  29
ENDBRANCH  21  28
ENDBRANCH  18  22
ENDBRANCH   1  18
TORSDOF 7
ENDMDL
MODEL 8
REMARK VINA RESULT:      -8.5      3.279      8.724
REMARK  Name = 
REMARK  9 active torsions:
REMARK  status: ('A' for Active; 'I' for Inactive)
REMARK    1  A    between atoms: C_1  and  C_2
REMARK    2  A    between atoms: C_2  and  C_3
REMARK    3  A    between atoms: C_5  and  O_6
REMARK    4  A    between atoms: O_6  and  C_7
REMARK    5  A    between atoms: C_7  and  O_9
REMARK    6  A    between atoms: O_9  and  C_10
REMARK    7  A    between atoms: C_11  and  O_12
REMARK    8  A    between atoms: O_12  and  C_13
REMARK    9  A    between atoms: C_16  and  C_17
REMARK                            x       y       z     vdW  Elec       q    Type
REMARK                         _______ _______ _______ _____ _____    ______ ____
ROOT
ATOM      1  C   UNL     1       1.854   8.576  19.201  0.00  0.00    +0.000 A 
ATOM      2  C   UNL     1       2.391   8.554  17.913  0.00  0.00    +0.000 A 
ATOM      3  C   UNL     1       2.981   7.387  17.423  0.00  0.00    +0.000 A 
ATOM      4  C   UNL     1       3.046   6.234  18.222  0.00  0.00    +0.000 A 
ATOM      5  C   UNL     1       2.491   6.257  19.502  0.00  0.00    +0.000 A 
ATOM      6  C   UNL     1       1.844   7.401  19.955  0.00  0.00    +0.000 A 
ATOM      7  F   UNL     1       1.265   7.352  21.164  0.00  0.00    +0.000 F 
ENDROOT
BRANCH   4   8
ATOM      8  C   UNL     1       3.869   5.094  17.740  0.00  0.00    +0.000 C 
ATOM      9  O   UNL     1       3.270   4.044  17.507  0.00  0.00    +0.000 OA
ATOM     10  N   UNL     1       5.226   5.234  17.492  0.00  0.00    +0.000 N 
ATOM     11  C   UNL     1       5.890   4.218  16.680  0.00  0.00    +0.000 C 
ATOM     12  C   UNL     1       6.588   4.913  15.513  0.00  0.00    +0.000 C 
ATOM     13  N   UNL     1       7.452   5.994  15.959  0.00  0.00    +0.000 N 
ATOM     14  C   UNL     1       7.159   6.777  17.049  0.00  0.00    +0.000 C 
ATOM     15  O   UNL     1       7.804   7.806  17.252  0.00  0.00    +0.000 OA
ATOM     16  C   UNL     1       6.146   6.225  18.070  0.00  0.00    +0.000 C 
ATOM     17  H   UNL     1       8.101   6.414  15.304  0.00  0.00    +0.000 HD
ENDBRANCH   4   8
BRANCH   1  18
ATOM     18  O   UNL     1       1.363   9.790  19.616  0.00  0.00    +0.000 OA
BRANCH  18  22
ATOM     19  C   UNL     1      -2.348  11.152  18.213  0.00  0.00    +0.000 A 
ATOM     20  C   UNL     1      -1.804  11.634  19.411  0.00  0.00    +0.000 A 
ATOM     21  C   UNL     1      -0.533  11.210  19.833  0.00  0.00    +0.000 A 
ATOM     22  C   UNL     1       0.192  10.275  19.084  0.00  0.00    +0.000 A 
ATOM     23  C   UNL     1      -0.367   9.781  17.898  0.00  0.00    +0.000 A 
ATOM     24  C   UNL     1      -1.603  10.240  17.462  0.00  0.00    +0.000 A 
ATOM     25  F   UNL     1      -2.099   9.760  16.312  0.00  0.00    +0.000 F 
BRANCH  19  27
ATOM     26  C   UNL     1      -4.755  10.468  18.177  0.00  0.00    +0.000 C 
ATOM     27  C   UNL     1      -3.739  11.528  17.774  0.00  0.00    +0.000 C 
ENDBRANCH  19  27
BRANCH  21  28
ATOM     28  O   UNL     1      -0.131  11.684  21.104  0.00  0.00    +0.000 OA
BRANCH  28  29
ATOM     29  C   UNL     1      -0.449  11.040  22.298  0.00  0.00    +0.000 C 
ATOM     30  O   UNL     1      -0.418   9.841  22.520  0.00  0.00    +0.000 OA
BRANCH  29  31
ATOM     31  O   UNL     1      -0.797  11.999  23.201  0.00  0.00    +0.000 OA
ATOM     32  C   UNL     1      -0.772  13.334  22.697  0.00  0.00    +0.000 C 
ENDBRANCH  29  31
ENDBRANCH  28  29
ENDBRANCH  21  28
ENDBRANCH  18  22
ENDBRANCH   1  18
TORSDOF 7
ENDMDL
MODEL 9
REMARK VINA RESULT:      -8.5      3.227      8.931
REMARK  Name = 
REMARK  9 active torsions:
REMARK  status: ('A' for Active; 'I' for Inactive)
REMARK    1  A    between atoms: C_1  and  C_2
REMARK    2  A    between atoms: C_2  and  C_3
REMARK    3  A    between atoms: C_5  and  O_6
REMARK    4  A    between atoms: O_6  and  C_7
REMARK    5  A    between atoms: C_7  and  O_9
REMARK    6  A    between atoms: O_9  and  C_10
REMARK    7  A    between atoms: C_11  and  O_12
REMARK    8  A    between atoms: O_12  and  C_13
REMARK    9  A    between atoms: C_16  and  C_17
REMARK                            x       y       z     vdW  Elec       q    Type
REMARK                         _______ _______ _______ _____ _____    ______ ____
ROOT
ATOM      1  C   UNL     1       1.576   8.982  19.451  0.00  0.00    +0.000 A 
ATOM      2  C   UNL     1       1.646   7.839  20.248  0.00  0.00    +0.000 A 
ATOM      3  C   UNL     1       2.320   6.707  19.786  0.00  0.00    +0.000 A 
ATOM      4  C   UNL     1       2.922   6.707  18.517  0.00  0.00    +0.000 A 
ATOM      5  C   UNL     1       2.865   7.861  17.733  0.00  0.00    +0.000 A 
ATOM      6  C   UNL     1       2.252   9.005  18.230  0.00  0.00    +0.000 A 
ATOM      7  F   UNL     1       2.283  10.108  17.468  0.00  0.00    +0.000 F 
ENDROOT
BRANCH   4   8
ATOM      8  C   UNL     1       3.438   5.418  17.987  0.00  0.00    +0.000 C 
ATOM      9  O   UNL     1       2.612   4.667  17.470  0.00  0.00    +0.000 OA
ATOM     10  N   UNL     1       4.792   5.116  18.007  0.00  0.00    +0.000 N 
ATOM     11  C   UNL     1       5.272   4.035  17.153  0.00  0.00    +0.000 C 
ATOM     12  C   UNL     1       6.392   4.579  16.268  0.00  0.00    +0.000 C 
ATOM     13  N   UNL     1       7.426   5.245  17.043  0.00  0.00    +0.000 N 
ATOM     14  C   UNL     1       7.154   5.952  18.190  0.00  0.00    +0.000 C 
ATOM     15  O   UNL     1       8.023   6.671  18.683  0.00  0.00    +0.000 OA
ATOM     16  C   UNL     1       5.820   5.665  18.904  0.00  0.00    +0.000 C 
ATOM     17  H   UNL     1       8.301   5.491  16.598  0.00  0.00    +0.000 HD
ENDBRANCH   4   8
BRANCH   1  18
ATOM     18  O   UNL     1       0.829  10.016  19.963  0.00  0.00    +0.000 OA
BRANCH  18  22
ATOM     19  C   UNL     1      -2.741  11.286  18.164  0.00  0.00    +0.000 A 
ATOM     20  C   UNL     1      -2.182  11.987  19.242  0.00  0.00    +0.000 A 
ATOM     21  C   UNL     1      -0.955  11.579  19.791  0.00  0.00    +0.000 A 
ATOM     22  C   UNL     1      -0.291  10.450  19.295  0.00  0.00    +0.000 A 
ATOM     23  C   UNL     1      -0.865   9.742  18.233  0.00  0.00    +0.000 A 
ATOM     24  C   UNL     1      -2.055  10.178  17.662  0.00  0.00    +0.000 A 
ATOM     25  F   UNL     1      -2.566   9.486  16.632  0.00  0.00    +0.000 F 
BRANCH  19  27
ATOM     26  C   UNL     1      -5.215  11.204  18.529  0.00  0.00    +0.000 C 
ATOM     27  C   UNL     1      -4.091  11.651  17.604  0.00  0.00    +0.000 C 
ENDBRANCH  19  27
BRANCH  21  28
ATOM     28  O   UNL     1      -0.540  12.298  20.937  0.00  0.00    +0.000 OA
BRANCH  28  29
ATOM     29  C   UNL     1      -0.932  11.969  22.232  0.00  0.00    +0.000 C 
ATOM     30  O   UNL     1      -0.414  11.150  22.975  0.00  0.00    +0.000 OA
BRANCH  29  31
ATOM     31  O   UNL     1      -2.011  12.740  22.543  0.00  0.00    +0.000 OA
ATOM     32  C   UNL     1      -2.946  12.133  23.435  0.00  0.00    +0.000 C 
ENDBRANCH  29  31
ENDBRANCH  28  29
ENDBRANCH  21  28
ENDBRANCH  18  22
ENDBRANCH   1  18
TORSDOF 7
ENDMDL
