MODEL 1
REMARK VINA RESULT:      -7.1      0.000      0.000
REMARK  Name = 
REMARK  19 active torsions:
REMARK  status: ('A' for Active; 'I' for Inactive)
REMARK    1  A    between atoms: C_1  and  C_2
REMARK    2  A    between atoms: C_2  and  C_3
REMARK    3  A    between atoms: C_3  and  C_4
REMARK    4  A    between atoms: C_3  and  C_5
REMARK    5  A    between atoms: C_3  and  C_12
REMARK    6  A    between atoms: C_8  and  O_9
REMARK    7  A    between atoms: C_12  and  C_13
REMARK    8  A    between atoms: C_12  and  C_24
REMARK    9  A    between atoms: C_13  and  C_14
REMARK   10  A    between atoms: C_14  and  C_15
REMARK   11  A    between atoms: C_15  and  C_16
REMARK   12  A    between atoms: C_16  and  O_17
REMARK   13  A    between atoms: O_17  and  C_18
REMARK   14  A    between atoms: C_18  and  C_19
REMARK   15  A    between atoms: C_19  and  O_20
REMARK   16  A    between atoms: O_20  and  C_21
REMARK   17  A    between atoms: C_21  and  C_22
REMARK   18  A    between atoms: C_22  and  O_23
REMARK   19  A    between atoms: C_27  and  O_28
REMARK                            x       y       z     vdW  Elec       q    Type
REMARK                         _______ _______ _______ _____ _____    ______ ____
ROOT
ATOM      1  C   UNL     1       3.801   6.273  17.512  0.00  0.00    +0.000 C 
ENDROOT
BRANCH   1   2
ATOM      2  C   UNL     1       2.960   5.409  18.468  0.00  0.00    +0.000 A 
ATOM      3  C   UNL     1       2.099   4.419  17.957  0.00  0.00    +0.000 A 
ATOM      4  C   UNL     1       1.357   3.591  18.813  0.00  0.00    +0.000 A 
ATOM      5  C   UNL     1       1.474   3.745  20.189  0.00  0.00    +0.000 A 
ATOM      6  C   UNL     1       2.282   4.738  20.718  0.00  0.00    +0.000 A 
ATOM      7  C   UNL     1       3.005   5.573  19.861  0.00  0.00    +0.000 A 
BRANCH   5   8
ATOM      8  O   UNL     1       0.811   2.936  21.063  0.00  0.00    +0.000 OA
ATOM      9  H   UNL     1      -0.109   2.849  20.766  0.00  0.00    +0.000 HD
ENDBRANCH   5   8
ENDBRANCH   1   2
BRANCH   1  10
ATOM     10  C   UNL     1       5.373   5.942  17.513  0.00  0.00    +0.000 C 
ATOM     11  C   UNL     1       6.199   7.273  17.524  0.00  0.00    +0.000 C 
BRANCH  10  12
ATOM     12  C   UNL     1       5.743   5.182  16.187  0.00  0.00    +0.000 A 
ATOM     13  C   UNL     1       6.983   5.365  15.545  0.00  0.00    +0.000 A 
ATOM     14  C   UNL     1       7.281   4.750  14.322  0.00  0.00    +0.000 A 
ATOM     15  C   UNL     1       6.347   3.921  13.723  0.00  0.00    +0.000 A 
ATOM     16  C   UNL     1       5.130   3.683  14.339  0.00  0.00    +0.000 A 
ATOM     17  C   UNL     1       4.837   4.296  15.564  0.00  0.00    +0.000 A 
BRANCH  15  18
ATOM     18  O   UNL     1       6.592   3.312  12.529  0.00  0.00    +0.000 OA
ATOM     19  H   UNL     1       6.755   3.999  11.862  0.00  0.00    +0.000 HD
ENDBRANCH  15  18
ENDBRANCH  10  12
BRANCH  10  21
ATOM     20  C   UNL     1       7.218   5.475  19.414  0.00  0.00    +0.000 C 
ATOM     21  C   UNL     1       5.888   5.115  18.754  0.00  0.00    +0.000 C 
ENDBRANCH  10  21
ENDBRANCH   1  10
BRANCH   1  22
ATOM     22  C   UNL     1       3.499   7.785  17.695  0.00  0.00    +0.000 C 
BRANCH  22  23
ATOM     23  C   UNL     1       2.055   8.155  18.034  0.00  0.00    +0.000 C 
BRANCH  23  24
ATOM     24  C   UNL     1       1.866   9.664  17.841  0.00  0.00    +0.000 C 
BRANCH  24  25
ATOM     25  C   UNL     1       0.912  10.243  18.865  0.00  0.00    +0.000 C 
BRANCH  25  26
ATOM     26  O   UNL     1      -0.429  10.055  18.415  0.00  0.00    +0.000 OA
BRANCH  26  27
ATOM     27  C   UNL     1      -1.251  11.148  18.832  0.00  0.00    +0.000 C 
BRANCH  27  28
ATOM     28  C   UNL     1      -2.490  11.255  17.953  0.00  0.00    +0.000 C 
BRANCH  28  29
ATOM     29  O   UNL     1      -2.316  10.407  16.815  0.00  0.00    +0.000 OA
BRANCH  29  30
ATOM     30  C   UNL     1      -2.837  11.013  15.626  0.00  0.00    +0.000 C 
BRANCH  30  31
ATOM     31  C   UNL     1      -3.368   9.905  14.721  0.00  0.00    +0.000 C 
BRANCH  31  32
ATOM     32  O   UNL     1      -3.215  10.277  13.352  0.00  0.00    +0.000 OA
ATOM     33  H   UNL     1      -2.254  10.393  13.224  0.00  0.00    +0.000 HD
ENDBRANCH  31  32
ENDBRANCH  30  31
ENDBRANCH  29  30
ENDBRANCH  28  29
ENDBRANCH  27  28
ENDBRANCH  26  27
ENDBRANCH  25  26
ENDBRANCH  24  25
ENDBRANCH  23  24
ENDBRANCH  22  23
ENDBRANCH   1  22
TORSDOF 17
ENDMDL
MODEL 2
REMARK VINA RESULT:      -7.0      0.953      1.444
REMARK  Name = 
REMARK  19 active torsions:
REMARK  status: ('A' for Active; 'I' for Inactive)
REMARK    1  A    between atoms: C_1  and  C_2
REMARK    2  A    between atoms: C_2  and  C_3
REMARK    3  A    between atoms: C_3  and  C_4
REMARK    4  A    between atoms: C_3  and  C_5
REMARK    5  A    between atoms: C_3  and  C_12
REMARK    6  A    between atoms: C_8  and  O_9
REMARK    7  A    between atoms: C_12  and  C_13
REMARK    8  A    between atoms: C_12  and  C_24
REMARK    9  A    between atoms: C_13  and  C_14
REMARK   10  A    between atoms: C_14  and  C_15
REMARK   11  A    between atoms: C_15  and  C_16
REMARK   12  A    between atoms: C_16  and  O_17
REMARK   13  A    between atoms: O_17  and  C_18
REMARK   14  A    between atoms: C_18  and  C_19
REMARK   15  A    between atoms: C_19  and  O_20
REMARK   16  A    between atoms: O_20  and  C_21
REMARK   17  A    between atoms: C_21  and  C_22
REMARK   18  A    between atoms: C_22  and  O_23
REMARK   19  A    between atoms: C_27  and  O_28
REMARK                            x       y       z     vdW  Elec       q    Type
REMARK                         _______ _______ _______ _____ _____    ______ ____
ROOT
ATOM      1  C   UNL     1       3.842   6.204  17.419  0.00  0.00    +0.000 C 
ENDROOT
BRANCH   1   2
ATOM      2  C   UNL     1       3.021   5.297  18.353  0.00  0.00    +0.000 A 
ATOM      3  C   UNL     1       3.089   5.467  19.749  0.00  0.00    +0.000 A 
ATOM      4  C   UNL     1       2.315   4.681  20.614  0.00  0.00    +0.000 A 
ATOM      5  C   UNL     1       1.462   3.718  20.089  0.00  0.00    +0.000 A 
ATOM      6  C   UNL     1       1.406   3.500  18.723  0.00  0.00    +0.000 A 
ATOM      7  C   UNL     1       2.193   4.274  17.864  0.00  0.00    +0.000 A 
BRANCH   5   8
ATOM      8  O   UNL     1       0.655   2.960  20.884  0.00  0.00    +0.000 OA
ATOM      9  H   UNL     1       1.206   2.512  21.547  0.00  0.00    +0.000 HD
ENDBRANCH   5   8
ENDBRANCH   1   2
BRANCH   1  10
ATOM     10  C   UNL     1       5.417   5.886  17.388  0.00  0.00    +0.000 C 
ATOM     11  C   UNL     1       6.232   7.222  17.450  0.00  0.00    +0.000 C 
BRANCH  10  12
ATOM     12  C   UNL     1       5.777   5.190  16.025  0.00  0.00    +0.000 A 
ATOM     13  C   UNL     1       7.053   5.312  15.441  0.00  0.00    +0.000 A 
ATOM     14  C   UNL     1       7.350   4.759  14.188  0.00  0.00    +0.000 A 
ATOM     15  C   UNL     1       6.376   4.054  13.499  0.00  0.00    +0.000 A 
ATOM     16  C   UNL     1       5.120   3.877  14.054  0.00  0.00    +0.000 A 
ATOM     17  C   UNL     1       4.828   4.428  15.308  0.00  0.00    +0.000 A 
BRANCH  15  18
ATOM     18  O   UNL     1       6.619   3.510  12.274  0.00  0.00    +0.000 OA
ATOM     19  H   UNL     1       5.854   3.687  11.702  0.00  0.00    +0.000 HD
ENDBRANCH  15  18
ENDBRANCH  10  12
BRANCH  10  21
ATOM     20  C   UNL     1       7.129   5.498  19.426  0.00  0.00    +0.000 C 
ATOM     21  C   UNL     1       5.952   5.007  18.584  0.00  0.00    +0.000 C 
ENDBRANCH  10  21
ENDBRANCH   1  10
BRANCH   1  22
ATOM     22  C   UNL     1       3.530   7.705  17.663  0.00  0.00    +0.000 C 
BRANCH  22  23
ATOM     23  C   UNL     1       2.055   8.106  17.647  0.00  0.00    +0.000 C 
BRANCH  23  24
ATOM     24  C   UNL     1       1.697   8.749  18.992  0.00  0.00    +0.000 C 
BRANCH  24  25
ATOM     25  C   UNL     1       0.999  10.080  18.804  0.00  0.00    +0.000 C 
BRANCH  25  26
ATOM     26  O   UNL     1      -0.411   9.887  18.898  0.00  0.00    +0.000 OA
BRANCH  26  27
ATOM     27  C   UNL     1      -1.068  10.455  17.761  0.00  0.00    +0.000 C 
BRANCH  27  28
ATOM     28  C   UNL     1      -2.483   9.909  17.630  0.00  0.00    +0.000 C 
BRANCH  28  29
ATOM     29  O   UNL     1      -2.820   9.845  16.242  0.00  0.00    +0.000 OA
BRANCH  29  30
ATOM     30  C   UNL     1      -3.824  10.808  15.902  0.00  0.00    +0.000 C 
BRANCH  30  31
ATOM     31  C   UNL     1      -4.561  11.199  17.180  0.00  0.00    +0.000 C 
BRANCH  31  32
ATOM     32  O   UNL     1      -5.835  11.756  16.858  0.00  0.00    +0.000 OA
ATOM     33  H   UNL     1      -6.488  11.108  17.183  0.00  0.00    +0.000 HD
ENDBRANCH  31  32
ENDBRANCH  30  31
ENDBRANCH  29  30
ENDBRANCH  28  29
ENDBRANCH  27  28
ENDBRANCH  26  27
ENDBRANCH  25  26
ENDBRANCH  24  25
ENDBRANCH  23  24
ENDBRANCH  22  23
ENDBRANCH   1  22
TORSDOF 17
ENDMDL
MODEL 3
REMARK VINA RESULT:      -7.0      2.563      4.236
REMARK  Name = 
REMARK  19 active torsions:
REMARK  status: ('A' for Active; 'I' for Inactive)
REMARK    1  A    between atoms: C_1  and  C_2
REMARK    2  A    between atoms: C_2  and  C_3
REMARK    3  A    between atoms: C_3  and  C_4
REMARK    4  A    between atoms: C_3  and  C_5
REMARK    5  A    between atoms: C_3  and  C_12
REMARK    6  A    between atoms: C_8  and  O_9
REMARK    7  A    between atoms: C_12  and  C_13
REMARK    8  A    between atoms: C_12  and  C_24
REMARK    9  A    between atoms: C_13  and  C_14
REMARK   10  A    between atoms: C_14  and  C_15
REMARK   11  A    between atoms: C_15  and  C_16
REMARK   12  A    between atoms: C_16  and  O_17
REMARK   13  A    between atoms: O_17  and  C_18
REMARK   14  A    between atoms: C_18  and  C_19
REMARK   15  A    between atoms: C_19  and  O_20
REMARK   16  A    between atoms: O_20  and  C_21
REMARK   17  A    between atoms: C_21  and  C_22
REMARK   18  A    between atoms: C_22  and  O_23
REMARK   19  A    between atoms: C_27  and  O_28
REMARK                            x       y       z     vdW  Elec       q    Type
REMARK                         _______ _______ _______ _____ _____    ______ ____
ROOT
ATOM      1  C   UNL     1       3.380   5.732  17.486  0.00  0.00    +0.000 C 
ENDROOT
BRANCH   1   2
ATOM      2  C   UNL     1       2.663   4.958  18.607  0.00  0.00    +0.000 A 
ATOM      3  C   UNL     1       1.645   4.037  18.294  0.00  0.00    +0.000 A 
ATOM      4  C   UNL     1       1.011   3.289  19.297  0.00  0.00    +0.000 A 
ATOM      5  C   UNL     1       1.393   3.454  20.623  0.00  0.00    +0.000 A 
ATOM      6  C   UNL     1       2.361   4.384  20.963  0.00  0.00    +0.000 A 
ATOM      7  C   UNL     1       2.978   5.141  19.962  0.00  0.00    +0.000 A 
BRANCH   5   8
ATOM      8  O   UNL     1       0.840   2.720  21.628  0.00  0.00    +0.000 OA
ATOM      9  H   UNL     1       0.042   2.283  21.290  0.00  0.00    +0.000 HD
ENDBRANCH   5   8
ENDBRANCH   1   2
BRANCH   1  10
ATOM     10  C   UNL     1       4.736   5.051  16.959  0.00  0.00    +0.000 C 
ATOM     11  C   UNL     1       4.851   3.592  17.516  0.00  0.00    +0.000 C 
BRANCH  10  12
ATOM     12  C   UNL     1       5.968   5.855  17.515  0.00  0.00    +0.000 A 
ATOM     13  C   UNL     1       6.702   5.413  18.632  0.00  0.00    +0.000 A 
ATOM     14  C   UNL     1       7.749   6.168  19.177  0.00  0.00    +0.000 A 
ATOM     15  C   UNL     1       8.096   7.379  18.599  0.00  0.00    +0.000 A 
ATOM     16  C   UNL     1       7.426   7.833  17.476  0.00  0.00    +0.000 A 
ATOM     17  C   UNL     1       6.382   7.073  16.932  0.00  0.00    +0.000 A 
BRANCH  15  18
ATOM     18  O   UNL     1       9.100   8.150  19.103  0.00  0.00    +0.000 OA
ATOM     19  H   UNL     1       9.052   9.027  18.687  0.00  0.00    +0.000 HD
ENDBRANCH  15  18
ENDBRANCH  10  12
BRANCH  10  21
ATOM     20  C   UNL     1       5.931   4.014  14.784  0.00  0.00    +0.000 C 
ATOM     21  C   UNL     1       4.859   4.917  15.392  0.00  0.00    +0.000 C 
ENDBRANCH  10  21
ENDBRANCH   1  10
BRANCH   1  22
ATOM     22  C   UNL     1       3.554   7.231  17.851  0.00  0.00    +0.000 C 
BRANCH  22  23
ATOM     23  C   UNL     1       2.393   8.159  17.493  0.00  0.00    +0.000 C 
BRANCH  23  24
ATOM     24  C   UNL     1       1.770   8.701  18.784  0.00  0.00    +0.000 C 
BRANCH  24  25
ATOM     25  C   UNL     1       1.141  10.063  18.571  0.00  0.00    +0.000 C 
BRANCH  25  26
ATOM     26  O   UNL     1      -0.163  10.073  19.150  0.00  0.00    +0.000 OA
BRANCH  26  27
ATOM     27  C   UNL     1      -0.669  11.409  19.214  0.00  0.00    +0.000 C 
BRANCH  27  28
ATOM     28  C   UNL     1      -1.254  11.697  20.590  0.00  0.00    +0.000 C 
BRANCH  28  29
ATOM     29  O   UNL     1      -0.284  11.346  21.580  0.00  0.00    +0.000 OA
BRANCH  29  30
ATOM     30  C   UNL     1      -0.909  10.885  22.784  0.00  0.00    +0.000 C 
BRANCH  30  31
ATOM     31  C   UNL     1      -0.204   9.606  23.227  0.00  0.00    +0.000 C 
BRANCH  31  32
ATOM     32  O   UNL     1       1.169   9.646  22.839  0.00  0.00    +0.000 OA
ATOM     33  H   UNL     1       1.654   9.922  23.641  0.00  0.00    +0.000 HD
ENDBRANCH  31  32
ENDBRANCH  30  31
ENDBRANCH  29  30
ENDBRANCH  28  29
ENDBRANCH  27  28
ENDBRANCH  26  27
ENDBRANCH  25  26
ENDBRANCH  24  25
ENDBRANCH  23  24
ENDBRANCH  22  23
ENDBRANCH   1  22
TORSDOF 17
ENDMDL
MODEL 4
REMARK VINA RESULT:      -6.9      2.162      3.426
REMARK  Name = 
REMARK  19 active torsions:
REMARK  status: ('A' for Active; 'I' for Inactive)
REMARK    1  A    between atoms: C_1  and  C_2
REMARK    2  A    between atoms: C_2  and  C_3
REMARK    3  A    between atoms: C_3  and  C_4
REMARK    4  A    between atoms: C_3  and  C_5
REMARK    5  A    between atoms: C_3  and  C_12
REMARK    6  A    between atoms: C_8  and  O_9
REMARK    7  A    between atoms: C_12  and  C_13
REMARK    8  A    between atoms: C_12  and  C_24
REMARK    9  A    between atoms: C_13  and  C_14
REMARK   10  A    between atoms: C_14  and  C_15
REMARK   11  A    between atoms: C_15  and  C_16
REMARK   12  A    between atoms: C_16  and  O_17
REMARK   13  A    between atoms: O_17  and  C_18
REMARK   14  A    between atoms: C_18  and  C_19
REMARK   15  A    between atoms: C_19  and  O_20
REMARK   16  A    between atoms: O_20  and  C_21
REMARK   17  A    between atoms: C_21  and  C_22
REMARK   18  A    between atoms: C_22  and  O_23
REMARK   19  A    between atoms: C_27  and  O_28
REMARK                            x       y       z     vdW  Elec       q    Type
REMARK                         _______ _______ _______ _____ _____    ______ ____
ROOT
ATOM      1  C   UNL     1       3.798   6.407  17.508  0.00  0.00    +0.000 C 
ENDROOT
BRANCH   1   2
ATOM      2  C   UNL     1       2.935   5.514  18.418  0.00  0.00    +0.000 A 
ATOM      3  C   UNL     1       2.107   4.522  17.859  0.00  0.00    +0.000 A 
ATOM      4  C   UNL     1       1.346   3.669  18.673  0.00  0.00    +0.000 A 
ATOM      5  C   UNL     1       1.410   3.801  20.055  0.00  0.00    +0.000 A 
ATOM      6  C   UNL     1       2.183   4.796  20.629  0.00  0.00    +0.000 A 
ATOM      7  C   UNL     1       2.926   5.656  19.814  0.00  0.00    +0.000 A 
BRANCH   5   8
ATOM      8  O   UNL     1       0.727   2.969  20.890  0.00  0.00    +0.000 OA
ATOM      9  H   UNL     1      -0.142   3.361  21.075  0.00  0.00    +0.000 HD
ENDBRANCH   5   8
ENDBRANCH   1   2
BRANCH   1  10
ATOM     10  C   UNL     1       5.355   6.012  17.461  0.00  0.00    +0.000 C 
ATOM     11  C   UNL     1       6.235   7.306  17.514  0.00  0.00    +0.000 C 
BRANCH  10  12
ATOM     12  C   UNL     1       5.667   5.299  16.095  0.00  0.00    +0.000 A 
ATOM     13  C   UNL     1       4.751   4.416  15.490  0.00  0.00    +0.000 A 
ATOM     14  C   UNL     1       5.061   3.719  14.315  0.00  0.00    +0.000 A 
ATOM     15  C   UNL     1       6.293   3.907  13.708  0.00  0.00    +0.000 A 
ATOM     16  C   UNL     1       7.207   4.795  14.248  0.00  0.00    +0.000 A 
ATOM     17  C   UNL     1       6.892   5.493  15.421  0.00  0.00    +0.000 A 
BRANCH  15  18
ATOM     18  O   UNL     1       6.639   3.241  12.571  0.00  0.00    +0.000 OA
ATOM     19  H   UNL     1       6.168   3.646  11.823  0.00  0.00    +0.000 HD
ENDBRANCH  15  18
ENDBRANCH  10  12
BRANCH  10  21
ATOM     20  C   UNL     1       7.101   5.512  19.445  0.00  0.00    +0.000 C 
ATOM     21  C   UNL     1       5.859   5.109  18.652  0.00  0.00    +0.000 C 
ENDBRANCH  10  21
ENDBRANCH   1  10
BRANCH   1  22
ATOM     22  C   UNL     1       3.562   7.913  17.797  0.00  0.00    +0.000 C 
BRANCH  22  23
ATOM     23  C   UNL     1       2.134   8.427  17.613  0.00  0.00    +0.000 C 
BRANCH  23  24
ATOM     24  C   UNL     1       1.593   8.899  18.968  0.00  0.00    +0.000 C 
BRANCH  24  25
ATOM     25  C   UNL     1       0.544   9.979  18.804  0.00  0.00    +0.000 C 
BRANCH  25  26
ATOM     26  O   UNL     1      -0.363   9.922  19.903  0.00  0.00    +0.000 OA
BRANCH  26  27
ATOM     27  C   UNL     1       0.276  10.374  21.100  0.00  0.00    +0.000 C 
BRANCH  27  28
ATOM     28  C   UNL     1      -0.206  11.769  21.474  0.00  0.00    +0.000 C 
BRANCH  28  29
ATOM     29  O   UNL     1      -0.421  11.814  22.886  0.00  0.00    +0.000 OA
BRANCH  29  30
ATOM     30  C   UNL     1      -1.703  11.279  23.238  0.00  0.00    +0.000 C 
BRANCH  30  31
ATOM     31  C   UNL     1      -2.693  12.437  23.326  0.00  0.00    +0.000 C 
BRANCH  31  32
ATOM     32  O   UNL     1      -3.903  11.999  23.942  0.00  0.00    +0.000 OA
ATOM     33  H   UNL     1      -4.548  11.920  23.213  0.00  0.00    +0.000 HD
ENDBRANCH  31  32
ENDBRANCH  30  31
ENDBRANCH  29  30
ENDBRANCH  28  29
ENDBRANCH  27  28
ENDBRANCH  26  27
ENDBRANCH  25  26
ENDBRANCH  24  25
ENDBRANCH  23  24
ENDBRANCH  22  23
ENDBRANCH   1  22
TORSDOF 17
ENDMDL
MODEL 5
REMARK VINA RESULT:      -6.9      2.092      3.226
REMARK  Name = 
REMARK  19 active torsions:
REMARK  status: ('A' for Active; 'I' for Inactive)
REMARK    1  A    between atoms: C_1  and  C_2
REMARK    2  A    between atoms: C_2  and  C_3
REMARK    3  A    between atoms: C_3  and  C_4
REMARK    4  A    between atoms: C_3  and  C_5
REMARK    5  A    between atoms: C_3  and  C_12
REMARK    6  A    between atoms: C_8  and  O_9
REMARK    7  A    between atoms: C_12  and  C_13
REMARK    8  A    between atoms: C_12  and  C_24
REMARK    9  A    between atoms: C_13  and  C_14
REMARK   10  A    between atoms: C_14  and  C_15
REMARK   11  A    between atoms: C_15  and  C_16
REMARK   12  A    between atoms: C_16  and  O_17
REMARK   13  A    between atoms: O_17  and  C_18
REMARK   14  A    between atoms: C_18  and  C_19
REMARK   15  A    between atoms: C_19  and  O_20
REMARK   16  A    between atoms: O_20  and  C_21
REMARK   17  A    between atoms: C_21  and  C_22
REMARK   18  A    between atoms: C_22  and  O_23
REMARK   19  A    between atoms: C_27  and  O_28
REMARK                            x       y       z     vdW  Elec       q    Type
REMARK                         _______ _______ _______ _____ _____    ______ ____
ROOT
ATOM      1  C   UNL     1       3.727   6.328  17.484  0.00  0.00    +0.000 C 
ENDROOT
BRANCH   1   2
ATOM      2  C   UNL     1       2.891   5.454  18.436  0.00  0.00    +0.000 A 
ATOM      3  C   UNL     1       2.042   4.456  17.921  0.00  0.00    +0.000 A 
ATOM      4  C   UNL     1       1.305   3.621  18.773  0.00  0.00    +0.000 A 
ATOM      5  C   UNL     1       1.414   3.775  20.150  0.00  0.00    +0.000 A 
ATOM      6  C   UNL     1       2.209   4.776  20.683  0.00  0.00    +0.000 A 
ATOM      7  C   UNL     1       2.928   5.619  19.829  0.00  0.00    +0.000 A 
BRANCH   5   8
ATOM      8  O   UNL     1       0.755   2.959  21.020  0.00  0.00    +0.000 OA
ATOM      9  H   UNL     1       0.240   3.510  21.631  0.00  0.00    +0.000 HD
ENDBRANCH   5   8
ENDBRANCH   1   2
BRANCH   1  10
ATOM     10  C   UNL     1       5.295   5.978  17.454  0.00  0.00    +0.000 C 
ATOM     11  C   UNL     1       6.137   7.297  17.529  0.00  0.00    +0.000 C 
BRANCH  10  12
ATOM     12  C   UNL     1       5.645   5.286  16.087  0.00  0.00    +0.000 A 
ATOM     13  C   UNL     1       4.744   4.418  15.440  0.00  0.00    +0.000 A 
ATOM     14  C   UNL     1       5.086   3.738  14.263  0.00  0.00    +0.000 A 
ATOM     15  C   UNL     1       6.336   3.929  13.697  0.00  0.00    +0.000 A 
ATOM     16  C   UNL     1       7.239   4.803  14.279  0.00  0.00    +0.000 A 
ATOM     17  C   UNL     1       6.892   5.483  15.454  0.00  0.00    +0.000 A 
BRANCH  15  18
ATOM     18  O   UNL     1       6.713   3.279  12.561  0.00  0.00    +0.000 OA
ATOM     19  H   UNL     1       6.446   2.349  12.636  0.00  0.00    +0.000 HD
ENDBRANCH  15  18
ENDBRANCH  10  12
BRANCH  10  21
ATOM     20  C   UNL     1       7.083   5.463  19.397  0.00  0.00    +0.000 C 
ATOM     21  C   UNL     1       5.810   5.080  18.645  0.00  0.00    +0.000 C 
ENDBRANCH  10  21
ENDBRANCH   1  10
BRANCH   1  22
ATOM     22  C   UNL     1       3.446   7.839  17.702  0.00  0.00    +0.000 C 
BRANCH  22  23
ATOM     23  C   UNL     1       2.038   8.210  18.170  0.00  0.00    +0.000 C 
BRANCH  23  24
ATOM     24  C   UNL     1       1.778   9.686  17.850  0.00  0.00    +0.000 C 
BRANCH  24  25
ATOM     25  C   UNL     1       0.585  10.220  18.617  0.00  0.00    +0.000 C 
BRANCH  25  26
ATOM     26  O   UNL     1       0.855  11.559  19.029  0.00  0.00    +0.000 OA
BRANCH  26  27
ATOM     27  C   UNL     1      -0.357  12.317  19.079  0.00  0.00    +0.000 C 
BRANCH  27  28
ATOM     28  C   UNL     1      -1.188  11.923  20.292  0.00  0.00    +0.000 C 
BRANCH  28  29
ATOM     29  O   UNL     1      -0.404  12.134  21.469  0.00  0.00    +0.000 OA
BRANCH  29  30
ATOM     30  C   UNL     1      -0.841  11.296  22.546  0.00  0.00    +0.000 C 
BRANCH  30  31
ATOM     31  C   UNL     1      -0.036  10.001  22.497  0.00  0.00    +0.000 C 
BRANCH  31  32
ATOM     32  O   UNL     1       0.371   9.628  23.813  0.00  0.00    +0.000 OA
ATOM     33  H   UNL     1      -0.408   9.192  24.209  0.00  0.00    +0.000 HD
ENDBRANCH  31  32
ENDBRANCH  30  31
ENDBRANCH  29  30
ENDBRANCH  28  29
ENDBRANCH  27  28
ENDBRANCH  26  27
ENDBRANCH  25  26
ENDBRANCH  24  25
ENDBRANCH  23  24
ENDBRANCH  22  23
ENDBRANCH   1  22
TORSDOF 17
ENDMDL
MODEL 6
REMARK VINA RESULT:      -6.9      2.142      3.192
REMARK  Name = 
REMARK  19 active torsions:
REMARK  status: ('A' for Active; 'I' for Inactive)
REMARK    1  A    between atoms: C_1  and  C_2
REMARK    2  A    between atoms: C_2  and  C_3
REMARK    3  A    between atoms: C_3  and  C_4
REMARK    4  A    between atoms: C_3  and  C_5
REMARK    5  A    between atoms: C_3  and  C_12
REMARK    6  A    between atoms: C_8  and  O_9
REMARK    7  A    between atoms: C_12  and  C_13
REMARK    8  A    between atoms: C_12  and  C_24
REMARK    9  A    between atoms: C_13  and  C_14
REMARK   10  A    between atoms: C_14  and  C_15
REMARK   11  A    between atoms: C_15  and  C_16
REMARK   12  A    between atoms: C_16  and  O_17
REMARK   13  A    between atoms: O_17  and  C_18
REMARK   14  A    between atoms: C_18  and  C_19
REMARK   15  A    between atoms: C_19  and  O_20
REMARK   16  A    between atoms: O_20  and  C_21
REMARK   17  A    between atoms: C_21  and  C_22
REMARK   18  A    between atoms: C_22  and  O_23
REMARK   19  A    between atoms: C_27  and  O_28
REMARK                            x       y       z     vdW  Elec       q    Type
REMARK                         _______ _______ _______ _____ _____    ______ ____
ROOT
ATOM      1  C   UNL     1       3.739   6.284  17.521  0.00  0.00    +0.000 C 
ENDROOT
BRANCH   1   2
ATOM      2  C   UNL     1       2.938   5.351  18.447  0.00  0.00    +0.000 A 
ATOM      3  C   UNL     1       2.885   5.600  19.832  0.00  0.00    +0.000 A 
ATOM      4  C   UNL     1       2.125   4.789  20.687  0.00  0.00    +0.000 A 
ATOM      5  C   UNL     1       1.407   3.721  20.161  0.00  0.00    +0.000 A 
ATOM      6  C   UNL     1       1.475   3.428  18.809  0.00  0.00    +0.000 A 
ATOM      7  C   UNL     1       2.249   4.229  17.964  0.00  0.00    +0.000 A 
BRANCH   5   8
ATOM      8  O   UNL     1       0.618   2.931  20.942  0.00  0.00    +0.000 OA
ATOM      9  H   UNL     1       1.105   2.711  21.752  0.00  0.00    +0.000 HD
ENDBRANCH   5   8
ENDBRANCH   1   2
BRANCH   1  10
ATOM     10  C   UNL     1       5.315   5.977  17.458  0.00  0.00    +0.000 C 
ATOM     11  C   UNL     1       6.121   7.319  17.497  0.00  0.00    +0.000 C 
BRANCH  10  12
ATOM     12  C   UNL     1       5.652   5.278  16.091  0.00  0.00    +0.000 A 
ATOM     13  C   UNL     1       4.742   4.412  15.454  0.00  0.00    +0.000 A 
ATOM     14  C   UNL     1       5.073   3.725  14.278  0.00  0.00    +0.000 A 
ATOM     15  C   UNL     1       6.320   3.907  13.702  0.00  0.00    +0.000 A 
ATOM     16  C   UNL     1       7.231   4.780  14.275  0.00  0.00    +0.000 A 
ATOM     17  C   UNL     1       6.895   5.466  15.448  0.00  0.00    +0.000 A 
BRANCH  15  18
ATOM     18  O   UNL     1       6.686   3.252  12.566  0.00  0.00    +0.000 OA
ATOM     19  H   UNL     1       6.211   2.405  12.533  0.00  0.00    +0.000 HD
ENDBRANCH  15  18
ENDBRANCH  10  12
BRANCH  10  21
ATOM     20  C   UNL     1       7.181   5.515  19.340  0.00  0.00    +0.000 C 
ATOM     21  C   UNL     1       5.882   5.109  18.647  0.00  0.00    +0.000 C 
ENDBRANCH  10  21
ENDBRANCH   1  10
BRANCH   1  22
ATOM     22  C   UNL     1       3.421   7.777  17.802  0.00  0.00    +0.000 C 
BRANCH  22  23
ATOM     23  C   UNL     1       1.975   8.220  17.580  0.00  0.00    +0.000 C 
BRANCH  23  24
ATOM     24  C   UNL     1       1.687   9.447  18.453  0.00  0.00    +0.000 C 
BRANCH  24  25
ATOM     25  C   UNL     1       1.179   9.049  19.823  0.00  0.00    +0.000 C 
BRANCH  25  26
ATOM     26  O   UNL     1       0.031   9.833  20.143  0.00  0.00    +0.000 OA
BRANCH  26  27
ATOM     27  C   UNL     1       0.254  11.204  19.800  0.00  0.00    +0.000 C 
BRANCH  27  28
ATOM     28  C   UNL     1      -1.068  11.917  19.550  0.00  0.00    +0.000 C 
BRANCH  28  29
ATOM     29  O   UNL     1      -1.827  11.907  20.761  0.00  0.00    +0.000 OA
BRANCH  29  30
ATOM     30  C   UNL     1      -1.071  12.432  21.859  0.00  0.00    +0.000 C 
BRANCH  30  31
ATOM     31  C   UNL     1      -1.314  11.540  23.073  0.00  0.00    +0.000 C 
BRANCH  31  32
ATOM     32  O   UNL     1      -0.245  10.605  23.214  0.00  0.00    +0.000 OA
ATOM     33  H   UNL     1      -0.676   9.734  23.307  0.00  0.00    +0.000 HD
ENDBRANCH  31  32
ENDBRANCH  30  31
ENDBRANCH  29  30
ENDBRANCH  28  29
ENDBRANCH  27  28
ENDBRANCH  26  27
ENDBRANCH  25  26
ENDBRANCH  24  25
ENDBRANCH  23  24
ENDBRANCH  22  23
ENDBRANCH   1  22
TORSDOF 17
ENDMDL
MODEL 7
REMARK VINA RESULT:      -6.8      1.092      1.507
REMARK  Name = 
REMARK  19 active torsions:
REMARK  status: ('A' for Active; 'I' for Inactive)
REMARK    1  A    between atoms: C_1  and  C_2
REMARK    2  A    between atoms: C_2  and  C_3
REMARK    3  A    between atoms: C_3  and  C_4
REMARK    4  A    between atoms: C_3  and  C_5
REMARK    5  A    between atoms: C_3  and  C_12
REMARK    6  A    between atoms: C_8  and  O_9
REMARK    7  A    between atoms: C_12  and  C_13
REMARK    8  A    between atoms: C_12  and  C_24
REMARK    9  A    between atoms: C_13  and  C_14
REMARK   10  A    between atoms: C_14  and  C_15
REMARK   11  A    between atoms: C_15  and  C_16
REMARK   12  A    between atoms: C_16  and  O_17
REMARK   13  A    between atoms: O_17  and  C_18
REMARK   14  A    between atoms: C_18  and  C_19
REMARK   15  A    between atoms: C_19  and  O_20
REMARK   16  A    between atoms: O_20  and  C_21
REMARK   17  A    between atoms: C_21  and  C_22
REMARK   18  A    between atoms: C_22  and  O_23
REMARK   19  A    between atoms: C_27  and  O_28
REMARK                            x       y       z     vdW  Elec       q    Type
REMARK                         _______ _______ _______ _____ _____    ______ ____
ROOT
ATOM      1  C   UNL     1       3.394   6.498  17.791  0.00  0.00    +0.000 C 
ENDROOT
BRANCH   1   2
ATOM      2  C   UNL     1       2.591   5.506  18.650  0.00  0.00    +0.000 A 
ATOM      3  C   UNL     1       2.062   4.334  18.075  0.00  0.00    +0.000 A 
ATOM      4  C   UNL     1       1.365   3.396  18.851  0.00  0.00    +0.000 A 
ATOM      5  C   UNL     1       1.195   3.621  20.212  0.00  0.00    +0.000 A 
ATOM      6  C   UNL     1       1.668   4.784  20.795  0.00  0.00    +0.000 A 
ATOM      7  C   UNL     1       2.346   5.726  20.014  0.00  0.00    +0.000 A 
BRANCH   5   8
ATOM      8  O   UNL     1       0.566   2.719  21.017  0.00  0.00    +0.000 OA
ATOM      9  H   UNL     1       0.881   2.844  21.927  0.00  0.00    +0.000 HD
ENDBRANCH   5   8
ENDBRANCH   1   2
BRANCH   1  10
ATOM     10  C   UNL     1       4.975   6.215  17.736  0.00  0.00    +0.000 C 
ATOM     11  C   UNL     1       5.754   7.565  17.589  0.00  0.00    +0.000 C 
BRANCH  10  12
ATOM     12  C   UNL     1       5.302   5.353  16.462  0.00  0.00    +0.000 A 
ATOM     13  C   UNL     1       5.274   3.946  16.488  0.00  0.00    +0.000 A 
ATOM     14  C   UNL     1       5.643   3.177  15.376  0.00  0.00    +0.000 A 
ATOM     15  C   UNL     1       6.033   3.805  14.204  0.00  0.00    +0.000 A 
ATOM     16  C   UNL     1       6.039   5.187  14.124  0.00  0.00    +0.000 A 
ATOM     17  C   UNL     1       5.665   5.952  15.236  0.00  0.00    +0.000 A 
BRANCH  15  18
ATOM     18  O   UNL     1       6.411   3.096  13.104  0.00  0.00    +0.000 OA
ATOM     19  H   UNL     1       5.664   2.540  12.826  0.00  0.00    +0.000 HD
ENDBRANCH  15  18
ENDBRANCH  10  12
BRANCH  10  21
ATOM     20  C   UNL     1       7.072   5.636  19.319  0.00  0.00    +0.000 C 
ATOM     21  C   UNL     1       5.579   5.514  19.014  0.00  0.00    +0.000 C 
ENDBRANCH  10  21
ENDBRANCH   1  10
BRANCH   1  22
ATOM     22  C   UNL     1       3.053   7.969  18.149  0.00  0.00    +0.000 C 
BRANCH  22  23
ATOM     23  C   UNL     1       1.742   8.521  17.587  0.00  0.00    +0.000 C 
BRANCH  23  24
ATOM     24  C   UNL     1       1.415   9.845  18.289  0.00  0.00    +0.000 C 
BRANCH  24  25
ATOM     25  C   UNL     1       1.226   9.653  19.779  0.00  0.00    +0.000 C 
BRANCH  25  26
ATOM     26  O   UNL     1       0.853  10.898  20.368  0.00  0.00    +0.000 OA
BRANCH  26  27
ATOM     27  C   UNL     1      -0.453  10.805  20.943  0.00  0.00    +0.000 C 
BRANCH  27  28
ATOM     28  C   UNL     1      -1.448  11.646  20.155  0.00  0.00    +0.000 C 
BRANCH  28  29
ATOM     29  O   UNL     1      -1.814  10.931  18.973  0.00  0.00    +0.000 OA
BRANCH  29  30
ATOM     30  C   UNL     1      -1.867  11.796  17.833  0.00  0.00    +0.000 C 
BRANCH  30  31
ATOM     31  C   UNL     1      -3.094  11.418  17.006  0.00  0.00    +0.000 C 
BRANCH  31  32
ATOM     32  O   UNL     1      -2.741  11.322  15.626  0.00  0.00    +0.000 OA
ATOM     33  H   UNL     1      -3.583  11.167  15.157  0.00  0.00    +0.000 HD
ENDBRANCH  31  32
ENDBRANCH  30  31
ENDBRANCH  29  30
ENDBRANCH  28  29
ENDBRANCH  27  28
ENDBRANCH  26  27
ENDBRANCH  25  26
ENDBRANCH  24  25
ENDBRANCH  23  24
ENDBRANCH  22  23
ENDBRANCH   1  22
TORSDOF 17
ENDMDL
MODEL 8
REMARK VINA RESULT:      -6.8      2.826      3.980
REMARK  Name = 
REMARK  19 active torsions:
REMARK  status: ('A' for Active; 'I' for Inactive)
REMARK    1  A    between atoms: C_1  and  C_2
REMARK    2  A    between atoms: C_2  and  C_3
REMARK    3  A    between atoms: C_3  and  C_4
REMARK    4  A    between atoms: C_3  and  C_5
REMARK    5  A    between atoms: C_3  and  C_12
REMARK    6  A    between atoms: C_8  and  O_9
REMARK    7  A    between atoms: C_12  and  C_13
REMARK    8  A    between atoms: C_12  and  C_24
REMARK    9  A    between atoms: C_13  and  C_14
REMARK   10  A    between atoms: C_14  and  C_15
REMARK   11  A    between atoms: C_15  and  C_16
REMARK   12  A    between atoms: C_16  and  O_17
REMARK   13  A    between atoms: O_17  and  C_18
REMARK   14  A    between atoms: C_18  and  C_19
REMARK   15  A    between atoms: C_19  and  O_20
REMARK   16  A    between atoms: O_20  and  C_21
REMARK   17  A    between atoms: C_21  and  C_22
REMARK   18  A    between atoms: C_22  and  O_23
REMARK   19  A    between atoms: C_27  and  O_28
REMARK                            x       y       z     vdW  Elec       q    Type
REMARK                         _______ _______ _______ _____ _____    ______ ____
ROOT
ATOM      1  C   UNL     1       3.155   5.293  17.654  0.00  0.00    +0.000 C 
ENDROOT
BRANCH   1   2
ATOM      2  C   UNL     1       2.570   4.528  18.854  0.00  0.00    +0.000 A 
ATOM      3  C   UNL     1       2.973   4.848  20.165  0.00  0.00    +0.000 A 
ATOM      4  C   UNL     1       2.420   4.194  21.275  0.00  0.00    +0.000 A 
ATOM      5  C   UNL     1       1.453   3.213  21.082  0.00  0.00    +0.000 A 
ATOM      6  C   UNL     1       1.070   2.849  19.802  0.00  0.00    +0.000 A 
ATOM      7  C   UNL     1       1.638   3.492  18.698  0.00  0.00    +0.000 A 
BRANCH   5   8
ATOM      8  O   UNL     1       0.852   2.580  22.128  0.00  0.00    +0.000 OA
ATOM      9  H   UNL     1       0.033   2.167  21.810  0.00  0.00    +0.000 HD
ENDBRANCH   5   8
ENDBRANCH   1   2
BRANCH   1  10
ATOM     10  C   UNL     1       4.557   4.724  17.112  0.00  0.00    +0.000 C 
ATOM     11  C   UNL     1       4.787   3.272  17.652  0.00  0.00    +0.000 C 
BRANCH  10  12
ATOM     12  C   UNL     1       5.727   5.614  17.670  0.00  0.00    +0.000 A 
ATOM     13  C   UNL     1       6.124   6.805  17.033  0.00  0.00    +0.000 A 
ATOM     14  C   UNL     1       7.219   7.556  17.484  0.00  0.00    +0.000 A 
ATOM     15  C   UNL     1       7.929   7.137  18.597  0.00  0.00    +0.000 A 
ATOM     16  C   UNL     1       7.549   5.991  19.275  0.00  0.00    +0.000 A 
ATOM     17  C   UNL     1       6.452   5.245  18.824  0.00  0.00    +0.000 A 
BRANCH  15  18
ATOM     18  O   UNL     1       9.006   7.830  19.061  0.00  0.00    +0.000 OA
ATOM     19  H   UNL     1       9.497   7.260  19.676  0.00  0.00    +0.000 HD
ENDBRANCH  15  18
ENDBRANCH  10  12
BRANCH  10  21
ATOM     20  C   UNL     1       5.936   4.014  14.914  0.00  0.00    +0.000 C 
ATOM     21  C   UNL     1       4.680   4.616  15.543  0.00  0.00    +0.000 C 
ENDBRANCH  10  21
ENDBRANCH   1  10
BRANCH   1  22
ATOM     22  C   UNL     1       3.180   6.824  17.910  0.00  0.00    +0.000 C 
BRANCH  22  23
ATOM     23  C   UNL     1       1.833   7.545  17.860  0.00  0.00    +0.000 C 
BRANCH  23  24
ATOM     24  C   UNL     1       2.077   9.059  17.833  0.00  0.00    +0.000 C 
BRANCH  24  25
ATOM     25  C   UNL     1       0.921   9.821  18.447  0.00  0.00    +0.000 C 
BRANCH  25  26
ATOM     26  O   UNL     1       0.899   9.586  19.854  0.00  0.00    +0.000 OA
BRANCH  26  27
ATOM     27  C   UNL     1       0.106  10.578  20.511  0.00  0.00    +0.000 C 
BRANCH  27  28
ATOM     28  C   UNL     1       0.161  11.898  19.756  0.00  0.00    +0.000 C 
BRANCH  28  29
ATOM     29  O   UNL     1       1.027  12.791  20.461  0.00  0.00    +0.000 OA
BRANCH  29  30
ATOM     30  C   UNL     1       2.222  13.059  19.717  0.00  0.00    +0.000 C 
BRANCH  30  31
ATOM     31  C   UNL     1       1.821  13.452  18.298  0.00  0.00    +0.000 C 
BRANCH  31  32
ATOM     32  O   UNL     1       2.597  12.719  17.350  0.00  0.00    +0.000 OA
ATOM     33  H   UNL     1       2.086  11.906  17.174  0.00  0.00    +0.000 HD
ENDBRANCH  31  32
ENDBRANCH  30  31
ENDBRANCH  29  30
ENDBRANCH  28  29
ENDBRANCH  27  28
ENDBRANCH  26  27
ENDBRANCH  25  26
ENDBRANCH  24  25
ENDBRANCH  23  24
ENDBRANCH  22  23
ENDBRANCH   1  22
TORSDOF 17
ENDMDL
MODEL 9
REMARK VINA RESULT:      -6.8      1.998      3.072
REMARK  Name = 
REMARK  19 active torsions:
REMARK  status: ('A' for Active; 'I' for Inactive)
REMARK    1  A    between atoms: C_1  and  C_2
REMARK    2  A    between atoms: C_2  and  C_3
REMARK    3  A    between atoms: C_3  and  C_4
REMARK    4  A    between atoms: C_3  and  C_5
REMARK    5  A    between atoms: C_3  and  C_12
REMARK    6  A    between atoms: C_8  and  O_9
REMARK    7  A    between atoms: C_12  and  C_13
REMARK    8  A    between atoms: C_12  and  C_24
REMARK    9  A    between atoms: C_13  and  C_14
REMARK   10  A    between atoms: C_14  and  C_15
REMARK   11  A    between atoms: C_15  and  C_16
REMARK   12  A    between atoms: C_16  and  O_17
REMARK   13  A    between atoms: O_17  and  C_18
REMARK   14  A    between atoms: C_18  and  C_19
REMARK   15  A    between atoms: C_19  and  O_20
REMARK   16  A    between atoms: O_20  and  C_21
REMARK   17  A    between atoms: C_21  and  C_22
REMARK   18  A    between atoms: C_22  and  O_23
REMARK   19  A    between atoms: C_27  and  O_28
REMARK                            x       y       z     vdW  Elec       q    Type
REMARK                         _______ _______ _______ _____ _____    ______ ____
ROOT
ATOM      1  C   UNL     1       3.202   5.390  17.605  0.00  0.00    +0.000 C 
ENDROOT
BRANCH   1   2
ATOM      2  C   UNL     1       2.573   4.694  18.825  0.00  0.00    +0.000 A 
ATOM      3  C   UNL     1       1.544   3.749  18.651  0.00  0.00    +0.000 A 
ATOM      4  C   UNL     1       0.988   3.072  19.746  0.00  0.00    +0.000 A 
ATOM      5  C   UNL     1       1.461   3.332  21.027  0.00  0.00    +0.000 A 
ATOM      6  C   UNL     1       2.443   4.288  21.231  0.00  0.00    +0.000 A 
ATOM      7  C   UNL     1       2.981   4.974  20.138  0.00  0.00    +0.000 A 
BRANCH   5   8
ATOM      8  O   UNL     1       0.987   2.669  22.118  0.00  0.00    +0.000 OA
ATOM      9  H   UNL     1       1.703   2.590  22.768  0.00  0.00    +0.000 HD
ENDBRANCH   5   8
ENDBRANCH   1   2
BRANCH   1  10
ATOM     10  C   UNL     1       4.558   4.714  17.070  0.00  0.00    +0.000 C 
ATOM     11  C   UNL     1       4.695   3.264  17.646  0.00  0.00    +0.000 C 
BRANCH  10  12
ATOM     12  C   UNL     1       5.790   5.537  17.597  0.00  0.00    +0.000 A 
ATOM     13  C   UNL     1       6.492   5.163  18.759  0.00  0.00    +0.000 A 
ATOM     14  C   UNL     1       7.539   5.940  19.274  0.00  0.00    +0.000 A 
ATOM     15  C   UNL     1       7.917   7.103  18.623  0.00  0.00    +0.000 A 
ATOM     16  C   UNL     1       7.278   7.487  17.456  0.00  0.00    +0.000 A 
ATOM     17  C   UNL     1       6.235   6.706  16.942  0.00  0.00    +0.000 A 
BRANCH  15  18
ATOM     18  O   UNL     1       8.921   7.893  19.095  0.00  0.00    +0.000 OA
ATOM     19  H   UNL     1       9.147   8.544  18.410  0.00  0.00    +0.000 HD
ENDBRANCH  15  18
ENDBRANCH  10  12
BRANCH  10  21
ATOM     20  C   UNL     1       5.874   3.865  14.883  0.00  0.00    +0.000 C 
ATOM     21  C   UNL     1       4.662   4.558  15.503  0.00  0.00    +0.000 C 
ENDBRANCH  10  21
ENDBRANCH   1  10
BRANCH   1  22
ATOM     22  C   UNL     1       3.334   6.921  17.826  0.00  0.00    +0.000 C 
BRANCH  22  23
ATOM     23  C   UNL     1       2.042   7.735  17.740  0.00  0.00    +0.000 C 
BRANCH  23  24
ATOM     24  C   UNL     1       2.119   8.902  18.732  0.00  0.00    +0.000 C 
BRANCH  24  25
ATOM     25  C   UNL     1       1.281  10.078  18.276  0.00  0.00    +0.000 C 
BRANCH  25  26
ATOM     26  O   UNL     1       0.415  10.476  19.337  0.00  0.00    +0.000 OA
BRANCH  26  27
ATOM     27  C   UNL     1      -0.871  10.833  18.822  0.00  0.00    +0.000 C 
BRANCH  27  28
ATOM     28  C   UNL     1      -1.235   9.958  17.630  0.00  0.00    +0.000 C 
BRANCH  28  29
ATOM     29  O   UNL     1      -2.396  10.505  17.001  0.00  0.00    +0.000 OA
BRANCH  29  30
ATOM     30  C   UNL     1      -3.403  10.843  17.963  0.00  0.00    +0.000 C 
BRANCH  30  31
ATOM     31  C   UNL     1      -4.510  11.608  17.243  0.00  0.00    +0.000 C 
BRANCH  31  32
ATOM     32  O   UNL     1      -4.719  11.058  15.943  0.00  0.00    +0.000 OA
ATOM     33  H   UNL     1      -3.962  10.459  15.794  0.00  0.00    +0.000 HD
ENDBRANCH  31  32
ENDBRANCH  30  31
ENDBRANCH  29  30
ENDBRANCH  28  29
ENDBRANCH  27  28
ENDBRANCH  26  27
ENDBRANCH  25  26
ENDBRANCH  24  25
ENDBRANCH  23  24
ENDBRANCH  22  23
ENDBRANCH   1  22
TORSDOF 17
ENDMDL
