MODEL 1
REMARK VINA RESULT:      -6.9      0.000      0.000
REMARK  Name = 
REMARK  5 active torsions:
REMARK  status: ('A' for Active; 'I' for Inactive)
REMARK    1  A    between atoms: C_1  and  C_2
REMARK    2  A    between atoms: C_6  and  C_8
REMARK    3  A    between atoms: C_8  and  O_9
REMARK    4  A    between atoms: O_9  and  C_10
REMARK    5  A    between atoms: C_10  and  C_11
REMARK                            x       y       z     vdW  Elec       q    Type
REMARK                         _______ _______ _______ _____ _____    ______ ____
ROOT
ATOM      1  C   UNL     1       7.993   5.689  19.671  0.00  0.00    +0.000 C 
ATOM      2  C   UNL     1       6.895   5.782  18.653  0.00  0.00    +0.000 A 
ATOM      3  N   UNL     1       6.014   4.752  18.668  0.00  0.00    +0.000 NA
ATOM      4  C   UNL     1       5.005   4.728  17.780  0.00  0.00    +0.000 A 
ATOM      5  N   UNL     1       4.086   3.675  17.798  0.00  0.00    +0.000 N 
ATOM      6  C   UNL     1       4.085   2.647  18.723  0.00  0.00    +0.000 C 
ATOM      7  O   UNL     1       4.828   2.495  19.688  0.00  0.00    +0.000 OA
ATOM      8  C   UNL     1       4.846   5.729  16.831  0.00  0.00    +0.000 A 
ATOM      9  C   UNL     1       5.742   6.799  16.822  0.00  0.00    +0.000 A 
ATOM     10  C   UNL     1       6.782   6.833  17.750  0.00  0.00    +0.000 A 
ATOM     11 BR   UNL     1       7.971   8.305  17.730  0.00  0.00    +0.000 Br
ATOM     12  H   UNL     1       3.392   3.635  17.065  0.00  0.00    +0.000 HD
ENDROOT
BRANCH   6  13
ATOM     13  C   UNL     1       2.990   1.618  18.430  0.00  0.00    +0.000 C 
BRANCH  13  14
ATOM     14  O   UNL     1       1.919   1.642  19.365  0.00  0.00    +0.000 OA
BRANCH  14  15
ATOM     15  C   UNL     1       0.982   2.680  19.062  0.00  0.00    +0.000 C 
BRANCH  15  16
ATOM     16  C   UNL     1       0.787   3.513  20.288  0.00  0.00    +0.000 C 
ATOM     17  C   UNL     1       1.802   3.492  21.403  0.00  0.00    +0.000 C 
ATOM     18  C   UNL     1       1.668   4.713  20.538  0.00  0.00    +0.000 C 
ENDBRANCH  15  16
ENDBRANCH  14  15
ENDBRANCH  13  14
ENDBRANCH   6  13
TORSDOF 4
ENDMDL
MODEL 2
REMARK VINA RESULT:      -6.3      4.394      6.599
REMARK  Name = 
REMARK  5 active torsions:
REMARK  status: ('A' for Active; 'I' for Inactive)
REMARK    1  A    between atoms: C_1  and  C_2
REMARK    2  A    between atoms: C_6  and  C_8
REMARK    3  A    between atoms: C_8  and  O_9
REMARK    4  A    between atoms: O_9  and  C_10
REMARK    5  A    between atoms: C_10  and  C_11
REMARK                            x       y       z     vdW  Elec       q    Type
REMARK                         _______ _______ _______ _____ _____    ______ ____
ROOT
ATOM      1  C   UNL     1       2.480   6.829  18.661  0.00  0.00    +0.000 C 
ATOM      2  C   UNL     1       2.955   5.446  18.330  0.00  0.00    +0.000 A 
ATOM      3  N   UNL     1       3.960   5.389  17.422  0.00  0.00    +0.000 NA
ATOM      4  C   UNL     1       4.443   4.195  17.040  0.00  0.00    +0.000 A 
ATOM      5  N   UNL     1       5.487   4.129  16.115  0.00  0.00    +0.000 N 
ATOM      6  C   UNL     1       6.137   5.229  15.581  0.00  0.00    +0.000 C 
ATOM      7  O   UNL     1       5.958   6.414  15.843  0.00  0.00    +0.000 OA
ATOM      8  C   UNL     1       3.927   3.006  17.541  0.00  0.00    +0.000 A 
ATOM      9  C   UNL     1       2.903   3.061  18.488  0.00  0.00    +0.000 A 
ATOM     10  C   UNL     1       2.408   4.299  18.895  0.00  0.00    +0.000 A 
ATOM     11 BR   UNL     1       1.034   4.346  20.195  0.00  0.00    +0.000 Br
ATOM     12  H   UNL     1       5.770   3.220  15.777  0.00  0.00    +0.000 HD
ENDROOT
BRANCH   6  13
ATOM     13  C   UNL     1       7.189   4.822  14.547  0.00  0.00    +0.000 C 
BRANCH  13  14
ATOM     14  O   UNL     1       6.872   5.226  13.221  0.00  0.00    +0.000 OA
BRANCH  14  15
ATOM     15  C   UNL     1       7.013   4.144  12.295  0.00  0.00    +0.000 C 
BRANCH  15  16
ATOM     16  C   UNL     1       5.868   3.203  12.490  0.00  0.00    +0.000 C 
ATOM     17  C   UNL     1       4.632   3.305  11.631  0.00  0.00    +0.000 C 
ATOM     18  C   UNL     1       5.570   2.145  11.457  0.00  0.00    +0.000 C 
ENDBRANCH  15  16
ENDBRANCH  14  15
ENDBRANCH  13  14
ENDBRANCH   6  13
TORSDOF 4
ENDMDL
MODEL 3
REMARK VINA RESULT:      -6.3      4.135      6.336
REMARK  Name = 
REMARK  5 active torsions:
REMARK  status: ('A' for Active; 'I' for Inactive)
REMARK    1  A    between atoms: C_1  and  C_2
REMARK    2  A    between atoms: C_6  and  C_8
REMARK    3  A    between atoms: C_8  and  O_9
REMARK    4  A    between atoms: O_9  and  C_10
REMARK    5  A    between atoms: C_10  and  C_11
REMARK                            x       y       z     vdW  Elec       q    Type
REMARK                         _______ _______ _______ _____ _____    ______ ____
ROOT
ATOM      1  C   UNL     1       4.515   2.208  20.427  0.00  0.00    +0.000 C 
ATOM      2  C   UNL     1       3.721   3.144  19.567  0.00  0.00    +0.000 A 
ATOM      3  N   UNL     1       4.398   3.667  18.515  0.00  0.00    +0.000 NA
ATOM      4  C   UNL     1       3.783   4.535  17.694  0.00  0.00    +0.000 A 
ATOM      5  N   UNL     1       4.471   5.067  16.600  0.00  0.00    +0.000 N 
ATOM      6  C   UNL     1       5.760   4.720  16.237  0.00  0.00    +0.000 C 
ATOM      7  O   UNL     1       6.494   3.883  16.754  0.00  0.00    +0.000 OA
ATOM      8  C   UNL     1       2.467   4.927  17.902  0.00  0.00    +0.000 A 
ATOM      9  C   UNL     1       1.761   4.380  18.975  0.00  0.00    +0.000 A 
ATOM     10  C   UNL     1       2.393   3.470  19.821  0.00  0.00    +0.000 A 
ATOM     11 BR   UNL     1       1.408   2.727  21.255  0.00  0.00    +0.000 Br
ATOM     12  H   UNL     1       4.016   5.784  16.053  0.00  0.00    +0.000 HD
ENDROOT
BRANCH   6  13
ATOM     13  C   UNL     1       6.250   5.530  15.034  0.00  0.00    +0.000 C 
BRANCH  13  14
ATOM     14  O   UNL     1       6.644   4.727  13.928  0.00  0.00    +0.000 OA
BRANCH  14  15
ATOM     15  C   UNL     1       5.635   3.770  13.590  0.00  0.00    +0.000 C 
BRANCH  15  16
ATOM     16  C   UNL     1       5.671   3.546  12.113  0.00  0.00    +0.000 C 
ATOM     17  C   UNL     1       5.498   2.162  11.539  0.00  0.00    +0.000 C 
ATOM     18  C   UNL     1       4.409   3.183  11.369  0.00  0.00    +0.000 C 
ENDBRANCH  15  16
ENDBRANCH  14  15
ENDBRANCH  13  14
ENDBRANCH   6  13
TORSDOF 4
ENDMDL
MODEL 4
REMARK VINA RESULT:      -6.3      3.745      5.748
REMARK  Name = 
REMARK  5 active torsions:
REMARK  status: ('A' for Active; 'I' for Inactive)
REMARK    1  A    between atoms: C_1  and  C_2
REMARK    2  A    between atoms: C_6  and  C_8
REMARK    3  A    between atoms: C_8  and  O_9
REMARK    4  A    between atoms: O_9  and  C_10
REMARK    5  A    between atoms: C_10  and  C_11
REMARK                            x       y       z     vdW  Elec       q    Type
REMARK                         _______ _______ _______ _____ _____    ______ ____
ROOT
ATOM      1  C   UNL     1       0.882   8.539  21.640  0.00  0.00    +0.000 C 
ATOM      2  C   UNL     1       1.341   8.557  20.213  0.00  0.00    +0.000 A 
ATOM      3  N   UNL     1       2.132   7.517  19.854  0.00  0.00    +0.000 NA
ATOM      4  C   UNL     1       2.615   7.452  18.601  0.00  0.00    +0.000 A 
ATOM      5  N   UNL     1       3.421   6.375  18.221  0.00  0.00    +0.000 N 
ATOM      6  C   UNL     1       3.728   5.296  19.031  0.00  0.00    +0.000 C 
ATOM      7  O   UNL     1       3.332   5.068  20.170  0.00  0.00    +0.000 OA
ATOM      8  C   UNL     1       2.337   8.434  17.660  0.00  0.00    +0.000 A 
ATOM      9  C   UNL     1       1.510   9.499  18.022  0.00  0.00    +0.000 A 
ATOM     10  C   UNL     1       0.997   9.564  19.316  0.00  0.00    +0.000 A 
ATOM     11 BR   UNL     1      -0.138  11.006  19.775  0.00  0.00    +0.000 Br
ATOM     12  H   UNL     1       3.844   6.396  17.303  0.00  0.00    +0.000 HD
ENDROOT
BRANCH   6  13
ATOM     13  C   UNL     1       4.686   4.321  18.342  0.00  0.00    +0.000 C 
BRANCH  13  14
ATOM     14  O   UNL     1       5.936   4.183  19.007  0.00  0.00    +0.000 OA
BRANCH  14  15
ATOM     15  C   UNL     1       6.487   5.456  19.356  0.00  0.00    +0.000 C 
BRANCH  15  16
ATOM     16  C   UNL     1       7.473   5.849  18.304  0.00  0.00    +0.000 C 
ATOM     17  C   UNL     1       7.108   6.861  17.246  0.00  0.00    +0.000 C 
ATOM     18  C   UNL     1       8.093   7.225  18.320  0.00  0.00    +0.000 C 
ENDBRANCH  15  16
ENDBRANCH  14  15
ENDBRANCH  13  14
ENDBRANCH   6  13
TORSDOF 4
ENDMDL
MODEL 5
REMARK VINA RESULT:      -6.1      3.908      6.972
REMARK  Name = 
REMARK  5 active torsions:
REMARK  status: ('A' for Active; 'I' for Inactive)
REMARK    1  A    between atoms: C_1  and  C_2
REMARK    2  A    between atoms: C_6  and  C_8
REMARK    3  A    between atoms: C_8  and  O_9
REMARK    4  A    between atoms: O_9  and  C_10
REMARK    5  A    between atoms: C_10  and  C_11
REMARK                            x       y       z     vdW  Elec       q    Type
REMARK                         _______ _______ _______ _____ _____    ______ ____
ROOT
ATOM      1  C   UNL     1       4.211   2.374  19.871  0.00  0.00    +0.000 C 
ATOM      2  C   UNL     1       3.753   3.589  19.121  0.00  0.00    +0.000 A 
ATOM      3  N   UNL     1       4.743   4.439  18.754  0.00  0.00    +0.000 NA
ATOM      4  C   UNL     1       4.437   5.571  18.096  0.00  0.00    +0.000 A 
ATOM      5  N   UNL     1       5.453   6.445  17.703  0.00  0.00    +0.000 N 
ATOM      6  C   UNL     1       6.805   6.213  17.883  0.00  0.00    +0.000 C 
ATOM      7  O   UNL     1       7.346   5.219  18.358  0.00  0.00    +0.000 OA
ATOM      8  C   UNL     1       3.123   5.904  17.792  0.00  0.00    +0.000 A 
ATOM      9  C   UNL     1       2.102   5.023  18.155  0.00  0.00    +0.000 A 
ATOM     10  C   UNL     1       2.418   3.843  18.826  0.00  0.00    +0.000 A 
ATOM     11 BR   UNL     1       1.019   2.657  19.289  0.00  0.00    +0.000 Br
ATOM     12  H   UNL     1       5.189   7.330  17.291  0.00  0.00    +0.000 HD
ENDROOT
BRANCH   6  13
ATOM     13  C   UNL     1       7.655   7.392  17.404  0.00  0.00    +0.000 C 
BRANCH  13  14
ATOM     14  O   UNL     1       8.276   8.114  18.459  0.00  0.00    +0.000 OA
BRANCH  14  15
ATOM     15  C   UNL     1       8.370   9.510  18.156  0.00  0.00    +0.000 C 
BRANCH  15  16
ATOM     16  C   UNL     1       9.575  10.064  18.844  0.00  0.00    +0.000 C 
ATOM     17  C   UNL     1       9.997  11.495  18.627  0.00  0.00    +0.000 C 
ATOM     18  C   UNL     1       9.419  11.079  19.950  0.00  0.00    +0.000 C 
ENDBRANCH  15  16
ENDBRANCH  14  15
ENDBRANCH  13  14
ENDBRANCH   6  13
TORSDOF 4
ENDMDL
MODEL 6
REMARK VINA RESULT:      -6.1      3.563      6.605
REMARK  Name = 
REMARK  5 active torsions:
REMARK  status: ('A' for Active; 'I' for Inactive)
REMARK    1  A    between atoms: C_1  and  C_2
REMARK    2  A    between atoms: C_6  and  C_8
REMARK    3  A    between atoms: C_8  and  O_9
REMARK    4  A    between atoms: O_9  and  C_10
REMARK    5  A    between atoms: C_10  and  C_11
REMARK                            x       y       z     vdW  Elec       q    Type
REMARK                         _______ _______ _______ _____ _____    ______ ____
ROOT
ATOM      1  C   UNL     1       3.133   3.112  20.987  0.00  0.00    +0.000 C 
ATOM      2  C   UNL     1       3.322   3.612  19.586  0.00  0.00    +0.000 A 
ATOM      3  N   UNL     1       4.455   4.329  19.384  0.00  0.00    +0.000 NA
ATOM      4  C   UNL     1       4.707   4.843  18.168  0.00  0.00    +0.000 A 
ATOM      5  N   UNL     1       5.879   5.571  17.949  0.00  0.00    +0.000 N 
ATOM      6  C   UNL     1       6.872   5.768  18.893  0.00  0.00    +0.000 C 
ATOM      7  O   UNL     1       6.931   5.321  20.034  0.00  0.00    +0.000 OA
ATOM      8  C   UNL     1       3.827   4.671  17.107  0.00  0.00    +0.000 A 
ATOM      9  C   UNL     1       2.668   3.920  17.307  0.00  0.00    +0.000 A 
ATOM     10  C   UNL     1       2.409   3.376  18.564  0.00  0.00    +0.000 A 
ATOM     11 BR   UNL     1       0.840   2.345  18.804  0.00  0.00    +0.000 Br
ATOM     12  H   UNL     1       6.001   6.021  17.052  0.00  0.00    +0.000 HD
ENDROOT
BRANCH   6  13
ATOM     13  C   UNL     1       7.993   6.666  18.362  0.00  0.00    +0.000 C 
BRANCH  13  14
ATOM     14  O   UNL     1       7.581   7.532  17.312  0.00  0.00    +0.000 OA
BRANCH  14  15
ATOM     15  C   UNL     1       7.476   8.887  17.761  0.00  0.00    +0.000 C 
BRANCH  15  16
ATOM     16  C   UNL     1       8.845   9.377  18.108  0.00  0.00    +0.000 C 
ATOM     17  C   UNL     1       9.144  10.855  18.155  0.00  0.00    +0.000 C 
ATOM     18  C   UNL     1       9.093  10.062  19.430  0.00  0.00    +0.000 C 
ENDBRANCH  15  16
ENDBRANCH  14  15
ENDBRANCH  13  14
ENDBRANCH   6  13
TORSDOF 4
ENDMDL
MODEL 7
REMARK VINA RESULT:      -6.0      3.898      4.832
REMARK  Name = 
REMARK  5 active torsions:
REMARK  status: ('A' for Active; 'I' for Inactive)
REMARK    1  A    between atoms: C_1  and  C_2
REMARK    2  A    between atoms: C_6  and  C_8
REMARK    3  A    between atoms: C_8  and  O_9
REMARK    4  A    between atoms: O_9  and  C_10
REMARK    5  A    between atoms: C_10  and  C_11
REMARK                            x       y       z     vdW  Elec       q    Type
REMARK                         _______ _______ _______ _____ _____    ______ ____
ROOT
ATOM      1  C   UNL     1       0.829   8.793  21.763  0.00  0.00    +0.000 C 
ATOM      2  C   UNL     1       1.239   8.788  20.321  0.00  0.00    +0.000 A 
ATOM      3  N   UNL     1       1.999   7.729  19.947  0.00  0.00    +0.000 NA
ATOM      4  C   UNL     1       2.438   7.641  18.680  0.00  0.00    +0.000 A 
ATOM      5  N   UNL     1       3.210   6.546  18.284  0.00  0.00    +0.000 N 
ATOM      6  C   UNL     1       3.524   5.470  19.096  0.00  0.00    +0.000 C 
ATOM      7  O   UNL     1       3.162   5.261  20.249  0.00  0.00    +0.000 OA
ATOM      8  C   UNL     1       2.146   8.620  17.738  0.00  0.00    +0.000 A 
ATOM      9  C   UNL     1       1.352   9.704  18.115  0.00  0.00    +0.000 A 
ATOM     10  C   UNL     1       0.884   9.791  19.426  0.00  0.00    +0.000 A 
ATOM     11 BR   UNL     1      -0.207  11.260  19.906  0.00  0.00    +0.000 Br
ATOM     12  H   UNL     1       3.601   6.549  17.352  0.00  0.00    +0.000 HD
ENDROOT
BRANCH   6  13
ATOM     13  C   UNL     1       4.439   4.469  18.386  0.00  0.00    +0.000 C 
BRANCH  13  14
ATOM     14  O   UNL     1       4.182   3.115  18.733  0.00  0.00    +0.000 OA
BRANCH  14  15
ATOM     15  C   UNL     1       3.272   2.501  17.814  0.00  0.00    +0.000 C 
BRANCH  15  16
ATOM     16  C   UNL     1       2.196   1.821  18.597  0.00  0.00    +0.000 C 
ATOM     17  C   UNL     1       1.836   2.293  19.983  0.00  0.00    +0.000 C 
ATOM     18  C   UNL     1       0.881   2.519  18.845  0.00  0.00    +0.000 C 
ENDBRANCH  15  16
ENDBRANCH  14  15
ENDBRANCH  13  14
ENDBRANCH   6  13
TORSDOF 4
ENDMDL
MODEL 8
REMARK VINA RESULT:      -6.0      4.374      6.452
REMARK  Name = 
REMARK  5 active torsions:
REMARK  status: ('A' for Active; 'I' for Inactive)
REMARK    1  A    between atoms: C_1  and  C_2
REMARK    2  A    between atoms: C_6  and  C_8
REMARK    3  A    between atoms: C_8  and  O_9
REMARK    4  A    between atoms: O_9  and  C_10
REMARK    5  A    between atoms: C_10  and  C_11
REMARK                            x       y       z     vdW  Elec       q    Type
REMARK                         _______ _______ _______ _____ _____    ______ ____
ROOT
ATOM      1  C   UNL     1       2.375   8.593  17.801  0.00  0.00    +0.000 C 
ATOM      2  C   UNL     1       2.942   7.307  18.322  0.00  0.00    +0.000 A 
ATOM      3  N   UNL     1       3.847   6.711  17.508  0.00  0.00    +0.000 NA
ATOM      4  C   UNL     1       4.399   5.541  17.872  0.00  0.00    +0.000 A 
ATOM      5  N   UNL     1       5.343   4.928  17.044  0.00  0.00    +0.000 N 
ATOM      6  C   UNL     1       5.825   5.468  15.865  0.00  0.00    +0.000 C 
ATOM      7  O   UNL     1       5.563   6.559  15.369  0.00  0.00    +0.000 OA
ATOM      8  C   UNL     1       4.055   4.912  19.062  0.00  0.00    +0.000 A 
ATOM      9  C   UNL     1       3.134   5.530  19.910  0.00  0.00    +0.000 A 
ATOM     10  C   UNL     1       2.570   6.749  19.540  0.00  0.00    +0.000 A 
ATOM     11 BR   UNL     1       1.340   7.576  20.717  0.00  0.00    +0.000 Br
ATOM     12  H   UNL     1       5.675   4.007  17.298  0.00  0.00    +0.000 HD
ENDROOT
BRANCH   6  13
ATOM     13  C   UNL     1       6.798   4.520  15.160  0.00  0.00    +0.000 C 
BRANCH  13  14
ATOM     14  O   UNL     1       6.667   4.518  13.743  0.00  0.00    +0.000 OA
BRANCH  14  15
ATOM     15  C   UNL     1       5.544   3.738  13.321  0.00  0.00    +0.000 C 
BRANCH  15  16
ATOM     16  C   UNL     1       5.769   3.312  11.907  0.00  0.00    +0.000 C 
ATOM     17  C   UNL     1       7.042   2.610  11.507  0.00  0.00    +0.000 C 
ATOM     18  C   UNL     1       5.748   1.848  11.542  0.00  0.00    +0.000 C 
ENDBRANCH  15  16
ENDBRANCH  14  15
ENDBRANCH  13  14
ENDBRANCH   6  13
TORSDOF 4
ENDMDL
MODEL 9
REMARK VINA RESULT:      -5.9      1.117      1.932
REMARK  Name = 
REMARK  5 active torsions:
REMARK  status: ('A' for Active; 'I' for Inactive)
REMARK    1  A    between atoms: C_1  and  C_2
REMARK    2  A    between atoms: C_6  and  C_8
REMARK    3  A    between atoms: C_8  and  O_9
REMARK    4  A    between atoms: O_9  and  C_10
REMARK    5  A    between atoms: C_10  and  C_11
REMARK                            x       y       z     vdW  Elec       q    Type
REMARK                         _______ _______ _______ _____ _____    ______ ____
ROOT
ATOM      1  C   UNL     1       5.142   6.980  15.926  0.00  0.00    +0.000 C 
ATOM      2  C   UNL     1       5.613   6.194  17.113  0.00  0.00    +0.000 A 
ATOM      3  N   UNL     1       4.880   5.088  17.392  0.00  0.00    +0.000 NA
ATOM      4  C   UNL     1       5.205   4.326  18.450  0.00  0.00    +0.000 A 
ATOM      5  N   UNL     1       4.463   3.177  18.735  0.00  0.00    +0.000 N 
ATOM      6  C   UNL     1       3.420   2.701  17.961  0.00  0.00    +0.000 C 
ATOM      7  O   UNL     1       2.998   3.150  16.899  0.00  0.00    +0.000 OA
ATOM      8  C   UNL     1       6.270   4.649  19.282  0.00  0.00    +0.000 A 
ATOM      9  C   UNL     1       7.035   5.779  18.989  0.00  0.00    +0.000 A 
ATOM     10  C   UNL     1       6.708   6.565  17.885  0.00  0.00    +0.000 A 
ATOM     11 BR   UNL     1       7.775   8.079  17.499  0.00  0.00    +0.000 Br
ATOM     12  H   UNL     1       4.672   2.672  19.586  0.00  0.00    +0.000 HD
ENDROOT
BRANCH   6  13
ATOM     13  C   UNL     1       2.770   1.461  18.580  0.00  0.00    +0.000 C 
BRANCH  13  14
ATOM     14  O   UNL     1       1.604   1.747  19.341  0.00  0.00    +0.000 OA
BRANCH  14  15
ATOM     15  C   UNL     1       1.188   3.106  19.171  0.00  0.00    +0.000 C 
BRANCH  15  16
ATOM     16  C   UNL     1       1.072   3.737  20.521  0.00  0.00    +0.000 C 
ATOM     17  C   UNL     1       2.106   3.472  21.586  0.00  0.00    +0.000 C 
ATOM     18  C   UNL     1       2.032   4.824  20.936  0.00  0.00    +0.000 C 
ENDBRANCH  15  16
ENDBRANCH  14  15
ENDBRANCH  13  14
ENDBRANCH   6  13
TORSDOF 4
ENDMDL
