MODEL 1
REMARK VINA RESULT:      -7.7      0.000      0.000
REMARK  Name = 
REMARK  8 active torsions:
REMARK  status: ('A' for Active; 'I' for Inactive)
REMARK    1  A    between atoms: C_1  and  C_2
REMARK    2  A    between atoms: C_2  and  N_3
REMARK    3  A    between atoms: C_6  and  C_7
REMARK    4  A    between atoms: C_7  and  N_8
REMARK    5  A    between atoms: N_8  and  C_9
REMARK    6  A    between atoms: C_9  and  C_10
REMARK    7  A    between atoms: N_15  and  C_16
REMARK    8  A    between atoms: C_16  and  C_17
REMARK                            x       y       z     vdW  Elec       q    Type
REMARK                         _______ _______ _______ _____ _____    ______ ____
ROOT
ATOM      1  C   UNL     1       2.888   4.303  17.698  0.00  0.00    +0.000 C 
ATOM      2  C   UNL     1       2.283   2.896  17.859  0.00  0.00    +0.000 C 
ATOM      3  C   UNL     1       1.020   2.831  18.698  0.00  0.00    +0.000 C 
ATOM      4  C   UNL     1       1.327   3.066  20.160  0.00  0.00    +0.000 C 
ATOM      5  C   UNL     1       1.338   4.534  20.560  0.00  0.00    +0.000 C 
ATOM      6  N   UNL     1       2.109   5.494  19.769  0.00  0.00    +0.000 NA
ATOM      7  C   UNL     1       3.278   4.998  19.036  0.00  0.00    +0.000 C 
ENDROOT
BRANCH   1   8
ATOM      8  C   UNL     1       4.109   4.205  16.742  0.00  0.00    +0.000 C 
BRANCH   8   9
ATOM      9  N   UNL     1       5.363   3.811  17.411  0.00  0.00    +0.000 NA
ATOM     10  H   UNL     1       5.377   4.187  18.362  0.00  0.00    +0.000 HD
BRANCH   9  11
ATOM     11  C   UNL     1       6.549   4.320  16.712  0.00  0.00    +0.000 C 
BRANCH  11  15
ATOM     12  N   UNL     1       7.692   7.491  17.770  0.00  0.00    +0.000 N 
ATOM     13  N   UNL     1       8.101   6.870  18.895  0.00  0.00    +0.000 NA
ATOM     14  C   UNL     1       7.694   5.619  18.667  0.00  0.00    +0.000 A 
ATOM     15  C   UNL     1       7.074   5.533  17.404  0.00  0.00    +0.000 A 
ATOM     16  N   UNL     1       7.066   6.748  16.830  0.00  0.00    +0.000 NA
BRANCH  12  18
ATOM     17  C   UNL     1       8.861   9.468  18.628  0.00  0.00    +0.000 C 
ATOM     18  C   UNL     1       7.947   8.900  17.560  0.00  0.00    +0.000 C 
ENDBRANCH  12  18
ENDBRANCH  11  15
ENDBRANCH   9  11
ENDBRANCH   8   9
ENDBRANCH   1   8
BRANCH   6  19
ATOM     19  C   UNL     1       2.330   6.758  20.507  0.00  0.00    +0.000 C 
BRANCH  19  20
ATOM     20  C   UNL     1       1.707   8.010  19.915  0.00  0.00    +0.000 A 
ATOM     21  C   UNL     1       0.782   8.769  20.643  0.00  0.00    +0.000 A 
ATOM     22  C   UNL     1       0.183   9.896  20.075  0.00  0.00    +0.000 A 
ATOM     23  C   UNL     1       0.494  10.275  18.770  0.00  0.00    +0.000 A 
ATOM     24  C   UNL     1       1.424   9.543  18.039  0.00  0.00    +0.000 A 
ATOM     25  C   UNL     1       2.039   8.430  18.614  0.00  0.00    +0.000 A 
ENDBRANCH  19  20
ENDBRANCH   6  19
TORSDOF 7
ENDMDL
MODEL 2
REMARK VINA RESULT:      -7.5      2.327      6.543
REMARK  Name = 
REMARK  8 active torsions:
REMARK  status: ('A' for Active; 'I' for Inactive)
REMARK    1  A    between atoms: C_1  and  C_2
REMARK    2  A    between atoms: C_2  and  N_3
REMARK    3  A    between atoms: C_6  and  C_7
REMARK    4  A    between atoms: C_7  and  N_8
REMARK    5  A    between atoms: N_8  and  C_9
REMARK    6  A    between atoms: C_9  and  C_10
REMARK    7  A    between atoms: N_15  and  C_16
REMARK    8  A    between atoms: C_16  and  C_17
REMARK                            x       y       z     vdW  Elec       q    Type
REMARK                         _______ _______ _______ _____ _____    ______ ____
ROOT
ATOM      1  C   UNL     1       2.003   5.102  20.143  0.00  0.00    +0.000 C 
ATOM      2  C   UNL     1       1.208   3.822  20.457  0.00  0.00    +0.000 C 
ATOM      3  C   UNL     1       1.870   2.529  20.019  0.00  0.00    +0.000 C 
ATOM      4  C   UNL     1       1.851   2.391  18.513  0.00  0.00    +0.000 C 
ATOM      5  C   UNL     1       3.031   3.056  17.818  0.00  0.00    +0.000 C 
ATOM      6  N   UNL     1       3.381   4.438  18.149  0.00  0.00    +0.000 NA
ATOM      7  C   UNL     1       2.313   5.320  18.632  0.00  0.00    +0.000 C 
ENDROOT
BRANCH   1   8
ATOM      8  C   UNL     1       1.234   6.315  20.737  0.00  0.00    +0.000 C 
BRANCH   8   9
ATOM      9  N   UNL     1       2.082   7.496  20.985  0.00  0.00    +0.000 NA
ATOM     10  H   UNL     1       2.715   7.307  21.765  0.00  0.00    +0.000 HD
BRANCH   9  11
ATOM     11  C   UNL     1       1.291   8.684  21.332  0.00  0.00    +0.000 C 
BRANCH  11  15
ATOM     12  N   UNL     1      -0.570  10.200  18.741  0.00  0.00    +0.000 N 
ATOM     13  N   UNL     1       0.519  10.008  17.967  0.00  0.00    +0.000 NA
ATOM     14  C   UNL     1       1.366   9.456  18.839  0.00  0.00    +0.000 A 
ATOM     15  C   UNL     1       0.747   9.319  20.098  0.00  0.00    +0.000 A 
ATOM     16  N   UNL     1      -0.503   9.810  20.033  0.00  0.00    +0.000 NA
BRANCH  12  18
ATOM     17  C   UNL     1      -2.191  10.089  16.904  0.00  0.00    +0.000 C 
ATOM     18  C   UNL     1      -1.782  10.771  18.195  0.00  0.00    +0.000 C 
ENDBRANCH  12  18
ENDBRANCH  11  15
ENDBRANCH   9  11
ENDBRANCH   8   9
ENDBRANCH   1   8
BRANCH   6  19
ATOM     19  C   UNL     1       4.265   5.038  17.125  0.00  0.00    +0.000 C 
BRANCH  19  20
ATOM     20  C   UNL     1       5.568   5.641  17.618  0.00  0.00    +0.000 A 
ATOM     21  C   UNL     1       6.216   5.128  18.750  0.00  0.00    +0.000 A 
ATOM     22  C   UNL     1       7.393   5.715  19.221  0.00  0.00    +0.000 A 
ATOM     23  C   UNL     1       7.933   6.826  18.575  0.00  0.00    +0.000 A 
ATOM     24  C   UNL     1       7.312   7.337  17.439  0.00  0.00    +0.000 A 
ATOM     25  C   UNL     1       6.149   6.736  16.955  0.00  0.00    +0.000 A 
ENDBRANCH  19  20
ENDBRANCH   6  19
TORSDOF 7
ENDMDL
MODEL 3
REMARK VINA RESULT:      -7.5      2.680      4.064
REMARK  Name = 
REMARK  8 active torsions:
REMARK  status: ('A' for Active; 'I' for Inactive)
REMARK    1  A    between atoms: C_1  and  C_2
REMARK    2  A    between atoms: C_2  and  N_3
REMARK    3  A    between atoms: C_6  and  C_7
REMARK    4  A    between atoms: C_7  and  N_8
REMARK    5  A    between atoms: N_8  and  C_9
REMARK    6  A    between atoms: C_9  and  C_10
REMARK    7  A    between atoms: N_15  and  C_16
REMARK    8  A    between atoms: C_16  and  C_17
REMARK                            x       y       z     vdW  Elec       q    Type
REMARK                         _______ _______ _______ _____ _____    ______ ____
ROOT
ATOM      1  C   UNL     1       4.452   4.581  17.852  0.00  0.00    +0.000 C 
ATOM      2  C   UNL     1       3.982   3.196  17.371  0.00  0.00    +0.000 C 
ATOM      3  C   UNL     1       2.476   3.007  17.327  0.00  0.00    +0.000 C 
ATOM      4  C   UNL     1       1.899   2.922  18.723  0.00  0.00    +0.000 C 
ATOM      5  C   UNL     1       1.562   4.274  19.335  0.00  0.00    +0.000 C 
ATOM      6  N   UNL     1       2.557   5.347  19.314  0.00  0.00    +0.000 NA
ATOM      7  C   UNL     1       3.974   4.967  19.282  0.00  0.00    +0.000 C 
ENDROOT
BRANCH   1   8
ATOM      8  C   UNL     1       6.002   4.636  17.746  0.00  0.00    +0.000 C 
BRANCH   8   9
ATOM      9  N   UNL     1       6.538   4.041  16.507  0.00  0.00    +0.000 NA
ATOM     10  H   UNL     1       7.314   3.416  16.734  0.00  0.00    +0.000 HD
BRANCH   9  11
ATOM     11  C   UNL     1       7.043   5.058  15.577  0.00  0.00    +0.000 C 
BRANCH  11  15
ATOM     12  N   UNL     1       6.239   3.518  12.502  0.00  0.00    +0.000 N 
ATOM     13  N   UNL     1       7.204   4.292  11.964  0.00  0.00    +0.000 NA
ATOM     14  C   UNL     1       7.602   4.994  13.027  0.00  0.00    +0.000 A 
ATOM     15  C   UNL     1       6.873   4.600  14.168  0.00  0.00    +0.000 A 
ATOM     16  N   UNL     1       5.985   3.652  13.823  0.00  0.00    +0.000 NA
BRANCH  12  18
ATOM     17  C   UNL     1       6.445   1.475  11.162  0.00  0.00    +0.000 C 
ATOM     18  C   UNL     1       5.522   2.552  11.698  0.00  0.00    +0.000 C 
ENDBRANCH  12  18
ENDBRANCH  11  15
ENDBRANCH   9  11
ENDBRANCH   8   9
ENDBRANCH   1   8
BRANCH   6  19
ATOM     19  C   UNL     1       2.224   6.420  20.276  0.00  0.00    +0.000 C 
BRANCH  19  20
ATOM     20  C   UNL     1       1.869   7.775  19.689  0.00  0.00    +0.000 A 
ATOM     21  C   UNL     1       1.185   8.733  20.448  0.00  0.00    +0.000 A 
ATOM     22  C   UNL     1       0.826   9.961  19.887  0.00  0.00    +0.000 A 
ATOM     23  C   UNL     1       1.139  10.245  18.558  0.00  0.00    +0.000 A 
ATOM     24  C   UNL     1       1.834   9.311  17.795  0.00  0.00    +0.000 A 
ATOM     25  C   UNL     1       2.212   8.094  18.363  0.00  0.00    +0.000 A 
ENDBRANCH  19  20
ENDBRANCH   6  19
TORSDOF 7
ENDMDL
MODEL 4
REMARK VINA RESULT:      -7.4      1.778      2.675
REMARK  Name = 
REMARK  8 active torsions:
REMARK  status: ('A' for Active; 'I' for Inactive)
REMARK    1  A    between atoms: C_1  and  C_2
REMARK    2  A    between atoms: C_2  and  N_3
REMARK    3  A    between atoms: C_6  and  C_7
REMARK    4  A    between atoms: C_7  and  N_8
REMARK    5  A    between atoms: N_8  and  C_9
REMARK    6  A    between atoms: C_9  and  C_10
REMARK    7  A    between atoms: N_15  and  C_16
REMARK    8  A    between atoms: C_16  and  C_17
REMARK                            x       y       z     vdW  Elec       q    Type
REMARK                         _______ _______ _______ _____ _____    ______ ____
ROOT
ATOM      1  C   UNL     1       3.657   3.888  18.641  0.00  0.00    +0.000 C 
ATOM      2  C   UNL     1       3.038   2.481  18.566  0.00  0.00    +0.000 C 
ATOM      3  C   UNL     1       1.528   2.433  18.709  0.00  0.00    +0.000 C 
ATOM      4  C   UNL     1       1.107   2.743  20.129  0.00  0.00    +0.000 C 
ATOM      5  C   UNL     1       0.938   4.229  20.412  0.00  0.00    +0.000 C 
ATOM      6  N   UNL     1       1.999   5.163  20.033  0.00  0.00    +0.000 NA
ATOM      7  C   UNL     1       3.372   4.653  19.967  0.00  0.00    +0.000 C 
ENDROOT
BRANCH   1   8
ATOM      8  C   UNL     1       5.185   3.766  18.383  0.00  0.00    +0.000 C 
BRANCH   8   9
ATOM      9  N   UNL     1       6.015   4.533  19.331  0.00  0.00    +0.000 NA
ATOM     10  H   UNL     1       5.412   5.056  19.969  0.00  0.00    +0.000 HD
BRANCH   9  11
ATOM     11  C   UNL     1       6.886   5.498  18.650  0.00  0.00    +0.000 C 
BRANCH  11  15
ATOM     12  N   UNL     1       6.656   5.246  15.134  0.00  0.00    +0.000 N 
ATOM     13  N   UNL     1       5.681   6.173  15.220  0.00  0.00    +0.000 NA
ATOM     14  C   UNL     1       5.611   6.359  16.541  0.00  0.00    +0.000 A 
ATOM     15  C   UNL     1       6.562   5.550  17.195  0.00  0.00    +0.000 A 
ATOM     16  N   UNL     1       7.230   4.824  16.283  0.00  0.00    +0.000 NA
BRANCH  12  18
ATOM     17  C   UNL     1       6.113   3.751  13.268  0.00  0.00    +0.000 C 
ATOM     18  C   UNL     1       7.099   4.745  13.851  0.00  0.00    +0.000 C 
ENDBRANCH  12  18
ENDBRANCH  11  15
ENDBRANCH   9  11
ENDBRANCH   8   9
ENDBRANCH   1   8
BRANCH   6  19
ATOM     19  C   UNL     1       1.853   6.464  20.724  0.00  0.00    +0.000 C 
BRANCH  19  20
ATOM     20  C   UNL     1       1.783   7.698  19.842  0.00  0.00    +0.000 A 
ATOM     21  C   UNL     1       1.130   8.859  20.277  0.00  0.00    +0.000 A 
ATOM     22  C   UNL     1       1.035   9.976  19.443  0.00  0.00    +0.000 A 
ATOM     23  C   UNL     1       1.583   9.946  18.162  0.00  0.00    +0.000 A 
ATOM     24  C   UNL     1       2.252   8.808  17.721  0.00  0.00    +0.000 A 
ATOM     25  C   UNL     1       2.367   7.700  18.562  0.00  0.00    +0.000 A 
ENDBRANCH  19  20
ENDBRANCH   6  19
TORSDOF 7
ENDMDL
MODEL 5
REMARK VINA RESULT:      -7.3      2.421      6.560
REMARK  Name = 
REMARK  8 active torsions:
REMARK  status: ('A' for Active; 'I' for Inactive)
REMARK    1  A    between atoms: C_1  and  C_2
REMARK    2  A    between atoms: C_2  and  N_3
REMARK    3  A    between atoms: C_6  and  C_7
REMARK    4  A    between atoms: C_7  and  N_8
REMARK    5  A    between atoms: N_8  and  C_9
REMARK    6  A    between atoms: C_9  and  C_10
REMARK    7  A    between atoms: N_15  and  C_16
REMARK    8  A    between atoms: C_16  and  C_17
REMARK                            x       y       z     vdW  Elec       q    Type
REMARK                         _______ _______ _______ _____ _____    ______ ____
ROOT
ATOM      1  C   UNL     1       1.934   5.024  20.156  0.00  0.00    +0.000 C 
ATOM      2  C   UNL     1       1.134   3.744  20.458  0.00  0.00    +0.000 C 
ATOM      3  C   UNL     1       1.790   2.453  20.004  0.00  0.00    +0.000 C 
ATOM      4  C   UNL     1       1.767   2.333  18.496  0.00  0.00    +0.000 C 
ATOM      5  C   UNL     1       2.947   3.000  17.806  0.00  0.00    +0.000 C 
ATOM      6  N   UNL     1       3.304   4.377  18.151  0.00  0.00    +0.000 NA
ATOM      7  C   UNL     1       2.241   5.257  18.647  0.00  0.00    +0.000 C 
ENDROOT
BRANCH   1   8
ATOM      8  C   UNL     1       1.172   6.234  20.766  0.00  0.00    +0.000 C 
BRANCH   8   9
ATOM      9  N   UNL     1       2.009   7.432  20.959  0.00  0.00    +0.000 NA
ATOM     10  H   UNL     1       2.771   7.219  21.607  0.00  0.00    +0.000 HD
BRANCH   9  11
ATOM     11  C   UNL     1       1.249   8.556  21.521  0.00  0.00    +0.000 C 
BRANCH  11  15
ATOM     12  N   UNL     1      -0.396  10.818  19.364  0.00  0.00    +0.000 N 
ATOM     13  N   UNL     1       0.423  10.355  18.398  0.00  0.00    +0.000 NA
ATOM     14  C   UNL     1       1.169   9.483  19.082  0.00  0.00    +0.000 A 
ATOM     15  C   UNL     1       0.754   9.441  20.428  0.00  0.00    +0.000 A 
ATOM     16  N   UNL     1      -0.252  10.314  20.610  0.00  0.00    +0.000 NA
BRANCH  12  18
ATOM     17  C   UNL     1      -0.914  12.867  18.121  0.00  0.00    +0.000 C 
ATOM     18  C   UNL     1      -1.420  11.797  19.069  0.00  0.00    +0.000 C 
ENDBRANCH  12  18
ENDBRANCH  11  15
ENDBRANCH   9  11
ENDBRANCH   8   9
ENDBRANCH   1   8
BRANCH   6  19
ATOM     19  C   UNL     1       4.187   4.985  17.131  0.00  0.00    +0.000 C 
BRANCH  19  20
ATOM     20  C   UNL     1       5.469   5.625  17.634  0.00  0.00    +0.000 A 
ATOM     21  C   UNL     1       5.997   6.765  17.015  0.00  0.00    +0.000 A 
ATOM     22  C   UNL     1       7.199   7.323  17.459  0.00  0.00    +0.000 A 
ATOM     23  C   UNL     1       7.892   6.744  18.521  0.00  0.00    +0.000 A 
ATOM     24  C   UNL     1       7.373   5.622  19.159  0.00  0.00    +0.000 A 
ATOM     25  C   UNL     1       6.161   5.078  18.730  0.00  0.00    +0.000 A 
ENDBRANCH  19  20
ENDBRANCH   6  19
TORSDOF 7
ENDMDL
MODEL 6
REMARK VINA RESULT:      -7.2      2.426      4.939
REMARK  Name = 
REMARK  8 active torsions:
REMARK  status: ('A' for Active; 'I' for Inactive)
REMARK    1  A    between atoms: C_1  and  C_2
REMARK    2  A    between atoms: C_2  and  N_3
REMARK    3  A    between atoms: C_6  and  C_7
REMARK    4  A    between atoms: C_7  and  N_8
REMARK    5  A    between atoms: N_8  and  C_9
REMARK    6  A    between atoms: C_9  and  C_10
REMARK    7  A    between atoms: N_15  and  C_16
REMARK    8  A    between atoms: C_16  and  C_17
REMARK                            x       y       z     vdW  Elec       q    Type
REMARK                         _______ _______ _______ _____ _____    ______ ____
ROOT
ATOM      1  C   UNL     1       6.827   5.776  17.965  0.00  0.00    +0.000 C 
ATOM      2  C   UNL     1       7.508   4.779  17.010  0.00  0.00    +0.000 C 
ATOM      3  C   UNL     1       6.741   4.484  15.734  0.00  0.00    +0.000 C 
ATOM      4  C   UNL     1       5.510   3.653  16.019  0.00  0.00    +0.000 C 
ATOM      5  C   UNL     1       4.284   4.474  16.390  0.00  0.00    +0.000 C 
ATOM      6  N   UNL     1       4.389   5.508  17.420  0.00  0.00    +0.000 NA
ATOM      7  C   UNL     1       5.414   5.343  18.456  0.00  0.00    +0.000 C 
ENDROOT
BRANCH   1   8
ATOM      8  C   UNL     1       7.781   6.035  19.165  0.00  0.00    +0.000 C 
BRANCH   8   9
ATOM      9  N   UNL     1       8.629   7.232  19.007  0.00  0.00    +0.000 NA
ATOM     10  H   UNL     1       8.783   7.666  19.919  0.00  0.00    +0.000 HD
BRANCH   9  11
ATOM     11  C   UNL     1       8.012   8.237  18.133  0.00  0.00    +0.000 C 
BRANCH  11  15
ATOM     12  N   UNL     1       9.534  11.172  19.376  0.00  0.00    +0.000 N 
ATOM     13  N   UNL     1       9.049  11.783  18.276  0.00  0.00    +0.000 NA
ATOM     14  C   UNL     1       8.455  10.764  17.650  0.00  0.00    +0.000 A 
ATOM     15  C   UNL     1       8.588   9.584  18.410  0.00  0.00    +0.000 A 
ATOM     16  N   UNL     1       9.295   9.850  19.522  0.00  0.00    +0.000 NA
BRANCH  12  18
ATOM     17  C   UNL     1       9.376  12.239  21.579  0.00  0.00    +0.000 C 
ATOM     18  C   UNL     1      10.255  11.916  20.386  0.00  0.00    +0.000 C 
ENDBRANCH  12  18
ENDBRANCH  11  15
ENDBRANCH   9  11
ENDBRANCH   8   9
ENDBRANCH   1   8
BRANCH   6  19
ATOM     19  C   UNL     1       3.058   5.915  17.924  0.00  0.00    +0.000 C 
BRANCH  19  20
ATOM     20  C   UNL     1       2.349   4.936  18.842  0.00  0.00    +0.000 A 
ATOM     21  C   UNL     1       2.448   5.053  20.235  0.00  0.00    +0.000 A 
ATOM     22  C   UNL     1       1.826   4.123  21.072  0.00  0.00    +0.000 A 
ATOM     23  C   UNL     1       1.105   3.060  20.530  0.00  0.00    +0.000 A 
ATOM     24  C   UNL     1       0.982   2.939  19.149  0.00  0.00    +0.000 A 
ATOM     25  C   UNL     1       1.584   3.881  18.313  0.00  0.00    +0.000 A 
ENDBRANCH  19  20
ENDBRANCH   6  19
TORSDOF 7
ENDMDL
MODEL 7
REMARK VINA RESULT:      -7.1      2.641      6.726
REMARK  Name = 
REMARK  8 active torsions:
REMARK  status: ('A' for Active; 'I' for Inactive)
REMARK    1  A    between atoms: C_1  and  C_2
REMARK    2  A    between atoms: C_2  and  N_3
REMARK    3  A    between atoms: C_6  and  C_7
REMARK    4  A    between atoms: C_7  and  N_8
REMARK    5  A    between atoms: N_8  and  C_9
REMARK    6  A    between atoms: C_9  and  C_10
REMARK    7  A    between atoms: N_15  and  C_16
REMARK    8  A    between atoms: C_16  and  C_17
REMARK                            x       y       z     vdW  Elec       q    Type
REMARK                         _______ _______ _______ _____ _____    ______ ____
ROOT
ATOM      1  C   UNL     1       4.125   6.176  17.011  0.00  0.00    +0.000 C 
ATOM      2  C   UNL     1       5.216   6.629  16.026  0.00  0.00    +0.000 C 
ATOM      3  C   UNL     1       5.619   5.595  14.990  0.00  0.00    +0.000 C 
ATOM      4  C   UNL     1       6.403   4.468  15.626  0.00  0.00    +0.000 C 
ATOM      5  C   UNL     1       5.534   3.351  16.186  0.00  0.00    +0.000 C 
ATOM      6  N   UNL     1       4.410   3.680  17.063  0.00  0.00    +0.000 NA
ATOM      7  C   UNL     1       4.491   4.915  17.849  0.00  0.00    +0.000 C 
ENDROOT
BRANCH   1   8
ATOM      8  C   UNL     1       3.767   7.376  17.933  0.00  0.00    +0.000 C 
BRANCH   8   9
ATOM      9  N   UNL     1       2.326   7.504  18.215  0.00  0.00    +0.000 NA
ATOM     10  H   UNL     1       1.802   6.845  17.635  0.00  0.00    +0.000 HD
BRANCH   9  11
ATOM     11  C   UNL     1       1.821   8.851  17.924  0.00  0.00    +0.000 C 
BRANCH  11  15
ATOM     12  N   UNL     1       0.336   9.604  21.040  0.00  0.00    +0.000 N 
ATOM     13  N   UNL     1      -0.182  10.690  20.430  0.00  0.00    +0.000 NA
ATOM     14  C   UNL     1       0.334  10.574  19.204  0.00  0.00    +0.000 A 
ATOM     15  C   UNL     1       1.126   9.411  19.119  0.00  0.00    +0.000 A 
ATOM     16  N   UNL     1       1.133   8.791  20.312  0.00  0.00    +0.000 NA
BRANCH  12  18
ATOM     17  C   UNL     1      -0.825  10.388  23.052  0.00  0.00    +0.000 C 
ATOM     18  C   UNL     1       0.020   9.300  22.419  0.00  0.00    +0.000 C 
ENDBRANCH  12  18
ENDBRANCH  11  15
ENDBRANCH   9  11
ENDBRANCH   8   9
ENDBRANCH   1   8
BRANCH   6  19
ATOM     19  C   UNL     1       3.939   2.495  17.815  0.00  0.00    +0.000 C 
BRANCH  19  20
ATOM     20  C   UNL     1       2.995   2.756  18.975  0.00  0.00    +0.000 A 
ATOM     21  C   UNL     1       3.423   2.610  20.301  0.00  0.00    +0.000 A 
ATOM     22  C   UNL     1       2.536   2.812  21.361  0.00  0.00    +0.000 A 
ATOM     23  C   UNL     1       1.209   3.155  21.111  0.00  0.00    +0.000 A 
ATOM     24  C   UNL     1       0.771   3.322  19.801  0.00  0.00    +0.000 A 
ATOM     25  C   UNL     1       1.663   3.143  18.743  0.00  0.00    +0.000 A 
ENDBRANCH  19  20
ENDBRANCH   6  19
TORSDOF 7
ENDMDL
MODEL 8
REMARK VINA RESULT:      -7.0      2.711      4.197
REMARK  Name = 
REMARK  8 active torsions:
REMARK  status: ('A' for Active; 'I' for Inactive)
REMARK    1  A    between atoms: C_1  and  C_2
REMARK    2  A    between atoms: C_2  and  N_3
REMARK    3  A    between atoms: C_6  and  C_7
REMARK    4  A    between atoms: C_7  and  N_8
REMARK    5  A    between atoms: N_8  and  C_9
REMARK    6  A    between atoms: C_9  and  C_10
REMARK    7  A    between atoms: N_15  and  C_16
REMARK    8  A    between atoms: C_16  and  C_17
REMARK                            x       y       z     vdW  Elec       q    Type
REMARK                         _______ _______ _______ _____ _____    ______ ____
ROOT
ATOM      1  C   UNL     1       4.114   4.894  17.759  0.00  0.00    +0.000 C 
ATOM      2  C   UNL     1       3.734   3.440  17.423  0.00  0.00    +0.000 C 
ATOM      3  C   UNL     1       2.266   3.099  17.605  0.00  0.00    +0.000 C 
ATOM      4  C   UNL     1       1.897   3.051  19.071  0.00  0.00    +0.000 C 
ATOM      5  C   UNL     1       1.502   4.401  19.653  0.00  0.00    +0.000 C 
ATOM      6  N   UNL     1       2.364   5.563  19.434  0.00  0.00    +0.000 NA
ATOM      7  C   UNL     1       3.796   5.326  19.221  0.00  0.00    +0.000 C 
ENDROOT
BRANCH   1   8
ATOM      8  C   UNL     1       5.620   5.096  17.431  0.00  0.00    +0.000 C 
BRANCH   8   9
ATOM      9  N   UNL     1       5.874   5.554  16.052  0.00  0.00    +0.000 NA
ATOM     10  H   UNL     1       5.109   5.256  15.444  0.00  0.00    +0.000 HD
BRANCH   9  11
ATOM     11  C   UNL     1       7.119   5.000  15.505  0.00  0.00    +0.000 C 
BRANCH  11  15
ATOM     12  N   UNL     1       6.252   3.482  12.436  0.00  0.00    +0.000 N 
ATOM     13  N   UNL     1       7.168   4.298  11.875  0.00  0.00    +0.000 NA
ATOM     14  C   UNL     1       7.581   4.996  12.935  0.00  0.00    +0.000 A 
ATOM     15  C   UNL     1       6.911   4.558  14.096  0.00  0.00    +0.000 A 
ATOM     16  N   UNL     1       6.044   3.585  13.768  0.00  0.00    +0.000 NA
BRANCH  12  18
ATOM     17  C   UNL     1       6.454   1.387  11.176  0.00  0.00    +0.000 C 
ATOM     18  C   UNL     1       5.539   2.503  11.643  0.00  0.00    +0.000 C 
ENDBRANCH  12  18
ENDBRANCH  11  15
ENDBRANCH   9  11
ENDBRANCH   8   9
ENDBRANCH   1   8
BRANCH   6  19
ATOM     19  C   UNL     1       2.051   6.661  20.376  0.00  0.00    +0.000 C 
BRANCH  19  20
ATOM     20  C   UNL     1       1.700   8.005  19.763  0.00  0.00    +0.000 A 
ATOM     21  C   UNL     1       2.076   8.319  18.451  0.00  0.00    +0.000 A 
ATOM     22  C   UNL     1       1.785   9.573  17.909  0.00  0.00    +0.000 A 
ATOM     23  C   UNL     1       1.123  10.533  18.673  0.00  0.00    +0.000 A 
ATOM     24  C   UNL     1       0.727  10.231  19.972  0.00  0.00    +0.000 A 
ATOM     25  C   UNL     1       0.997   8.970  20.506  0.00  0.00    +0.000 A 
ENDBRANCH  19  20
ENDBRANCH   6  19
TORSDOF 7
ENDMDL
MODEL 9
REMARK VINA RESULT:      -7.0      2.782      6.691
REMARK  Name = 
REMARK  8 active torsions:
REMARK  status: ('A' for Active; 'I' for Inactive)
REMARK    1  A    between atoms: C_1  and  C_2
REMARK    2  A    between atoms: C_2  and  N_3
REMARK    3  A    between atoms: C_6  and  C_7
REMARK    4  A    between atoms: C_7  and  N_8
REMARK    5  A    between atoms: N_8  and  C_9
REMARK    6  A    between atoms: C_9  and  C_10
REMARK    7  A    between atoms: N_15  and  C_16
REMARK    8  A    between atoms: C_16  and  C_17
REMARK                            x       y       z     vdW  Elec       q    Type
REMARK                         _______ _______ _______ _____ _____    ______ ____
ROOT
ATOM      1  C   UNL     1       2.347   6.032  19.943  0.00  0.00    +0.000 C 
ATOM      2  C   UNL     1       1.178   5.162  20.437  0.00  0.00    +0.000 C 
ATOM      3  C   UNL     1       1.443   3.667  20.438  0.00  0.00    +0.000 C 
ATOM      4  C   UNL     1       1.492   3.124  19.027  0.00  0.00    +0.000 C 
ATOM      5  C   UNL     1       2.865   3.216  18.378  0.00  0.00    +0.000 C 
ATOM      6  N   UNL     1       3.596   4.484  18.407  0.00  0.00    +0.000 NA
ATOM      7  C   UNL     1       2.816   5.724  18.490  0.00  0.00    +0.000 C 
ENDROOT
BRANCH   1   8
ATOM      8  C   UNL     1       1.945   7.526  20.096  0.00  0.00    +0.000 C 
BRANCH   8   9
ATOM      9  N   UNL     1       1.539   7.899  21.463  0.00  0.00    +0.000 NA
ATOM     10  H   UNL     1       1.431   7.056  22.032  0.00  0.00    +0.000 HD
BRANCH   9  11
ATOM     11  C   UNL     1       0.258   8.616  21.486  0.00  0.00    +0.000 C 
BRANCH  11  15
ATOM     12  N   UNL     1       0.896  11.970  20.578  0.00  0.00    +0.000 N 
ATOM     13  N   UNL     1       0.153  11.721  19.481  0.00  0.00    +0.000 NA
ATOM     14  C   UNL     1      -0.148  10.432  19.654  0.00  0.00    +0.000 A 
ATOM     15  C   UNL     1       0.410   9.961  20.860  0.00  0.00    +0.000 A 
ATOM     16  N   UNL     1       1.093  10.956  21.451  0.00  0.00    +0.000 NA
BRANCH  12  18
ATOM     17  C   UNL     1       0.337  14.313  21.033  0.00  0.00    +0.000 C 
ATOM     18  C   UNL     1       1.436  13.288  20.831  0.00  0.00    +0.000 C 
ENDBRANCH  12  18
ENDBRANCH  11  15
ENDBRANCH   9  11
ENDBRANCH   8   9
ENDBRANCH   1   8
BRANCH   6  19
ATOM     19  C   UNL     1       4.692   4.506  17.413  0.00  0.00    +0.000 C 
BRANCH  19  20
ATOM     20  C   UNL     1       5.886   5.387  17.735  0.00  0.00    +0.000 A 
ATOM     21  C   UNL     1       6.729   5.092  18.814  0.00  0.00    +0.000 A 
ATOM     22  C   UNL     1       7.801   5.931  19.129  0.00  0.00    +0.000 A 
ATOM     23  C   UNL     1       8.040   7.079  18.376  0.00  0.00    +0.000 A 
ATOM     24  C   UNL     1       7.223   7.378  17.290  0.00  0.00    +0.000 A 
ATOM     25  C   UNL     1       6.166   6.528  16.962  0.00  0.00    +0.000 A 
ENDBRANCH  19  20
ENDBRANCH   6  19
TORSDOF 7
ENDMDL
