MODEL 1
REMARK VINA RESULT:      -7.8      0.000      0.000
REMARK  Name = 
REMARK  10 active torsions:
REMARK  status: ('A' for Active; 'I' for Inactive)
REMARK    1  A    between atoms: C_1  and  C_2
REMARK    2  A    between atoms: N_4  and  C_5
REMARK    3  A    between atoms: C_8  and  S_9
REMARK    4  A    between atoms: S_9  and  N_12
REMARK    5  A    between atoms: N_12  and  C_13
REMARK    6  A    between atoms: N_12  and  C_21
REMARK    7  A    between atoms: C_13  and  C_14
REMARK    8  A    between atoms: C_21  and  C_22
REMARK    9  A    between atoms: C_25  and  C_26
REMARK   10  A    between atoms: C_26  and  O_28
REMARK                            x       y       z     vdW  Elec       q    Type
REMARK                         _______ _______ _______ _____ _____    ______ ____
ROOT
ATOM      1  N   UNL     1      -0.574  11.901  19.729  0.00  0.00    +0.000 NA
ENDROOT
BRANCH   1   2
ATOM      2  S   UNL     1       0.214  10.920  20.957  0.00  0.00    +0.000 S 
ATOM      3  O   UNL     1      -0.803  10.483  21.889  0.00  0.00    +0.000 OA
ATOM      4  O   UNL     1       1.409  11.567  21.434  0.00  0.00    +0.000 OA
BRANCH   2   8
ATOM      5  C   UNL     1       2.423   7.475  18.908  0.00  0.00    +0.000 A 
ATOM      6  C   UNL     1       1.998   8.586  18.172  0.00  0.00    +0.000 A 
ATOM      7  C   UNL     1       1.207   9.587  18.763  0.00  0.00    +0.000 A 
ATOM      8  C   UNL     1       0.820   9.468  20.100  0.00  0.00    +0.000 A 
ATOM      9  C   UNL     1       1.183   8.333  20.830  0.00  0.00    +0.000 A 
ATOM     10  C   UNL     1       1.980   7.343  20.232  0.00  0.00    +0.000 A 
BRANCH   5  14
ATOM     11  C   UNL     1       4.212   4.535  17.328  0.00  0.00    +0.000 C 
ATOM     12  C   UNL     1       3.005   5.285  17.833  0.00  0.00    +0.000 C 
ATOM     13  O   UNL     1       1.883   4.810  17.699  0.00  0.00    +0.000 OA
ATOM     14  N   UNL     1       3.325   6.502  18.415  0.00  0.00    +0.000 N 
ATOM     15  H   UNL     1       4.308   6.748  18.436  0.00  0.00    +0.000 HD
ENDBRANCH   5  14
ENDBRANCH   2   8
ENDBRANCH   1   2
BRANCH   1  16
ATOM     16  C   UNL     1      -2.060  11.544  19.719  0.00  0.00    +0.000 C 
BRANCH  16  17
ATOM     17  C   UNL     1      -2.646  11.109  18.388  0.00  0.00    +0.000 A 
ATOM     18  C   UNL     1      -2.007  10.143  17.602  0.00  0.00    +0.000 A 
ATOM     19  C   UNL     1      -2.508   9.824  16.337  0.00  0.00    +0.000 A 
ATOM     20  C   UNL     1      -3.655  10.453  15.867  0.00  0.00    +0.000 A 
ATOM     21  F   UNL     1      -4.098  10.185  14.631  0.00  0.00    +0.000 F 
ATOM     22  C   UNL     1      -4.344  11.363  16.656  0.00  0.00    +0.000 A 
ATOM     23  C   UNL     1      -3.846  11.683  17.920  0.00  0.00    +0.000 A 
ENDBRANCH  16  17
ENDBRANCH   1  16
BRANCH   1  24
ATOM     24  C   UNL     1      -0.384  13.409  19.886  0.00  0.00    +0.000 C 
BRANCH  24  25
ATOM     25  C   UNL     1       0.248  14.163  18.686  0.00  0.00    +0.000 C 
ATOM     26  C   UNL     1       0.561  15.646  18.920  0.00  0.00    +0.000 C 
ATOM     27  C   UNL     1       1.817  15.917  19.748  0.00  0.00    +0.000 C 
ATOM     28  C   UNL     1       3.056  15.124  19.323  0.00  0.00    +0.000 C 
ATOM     29  C   UNL     1       2.766  13.663  18.960  0.00  0.00    +0.000 C 
ATOM     30  C   UNL     1       1.499  13.453  18.140  0.00  0.00    +0.000 C 
BRANCH  28  31
ATOM     31  C   UNL     1       3.819  15.841  18.215  0.00  0.00    +0.000 C 
ATOM     32  O   UNL     1       4.013  17.046  18.161  0.00  0.00    +0.000 OA
BRANCH  31  33
ATOM     33  O   UNL     1       4.285  14.999  17.261  0.00  0.00    +0.000 OA
ATOM     34  H   UNL     1       5.067  15.326  16.777  0.00  0.00    +0.000 HD
ENDBRANCH  31  33
ENDBRANCH  28  31
ENDBRANCH  24  25
ENDBRANCH   1  24
TORSDOF 9
ENDMDL
MODEL 2
REMARK VINA RESULT:      -7.6      5.307      9.262
REMARK  Name = 
REMARK  10 active torsions:
REMARK  status: ('A' for Active; 'I' for Inactive)
REMARK    1  A    between atoms: C_1  and  C_2
REMARK    2  A    between atoms: N_4  and  C_5
REMARK    3  A    between atoms: C_8  and  S_9
REMARK    4  A    between atoms: S_9  and  N_12
REMARK    5  A    between atoms: N_12  and  C_13
REMARK    6  A    between atoms: N_12  and  C_21
REMARK    7  A    between atoms: C_13  and  C_14
REMARK    8  A    between atoms: C_21  and  C_22
REMARK    9  A    between atoms: C_25  and  C_26
REMARK   10  A    between atoms: C_26  and  O_28
REMARK                            x       y       z     vdW  Elec       q    Type
REMARK                         _______ _______ _______ _____ _____    ______ ____
ROOT
ATOM      1  N   UNL     1       4.142   5.678  17.523  0.00  0.00    +0.000 NA
ENDROOT
BRANCH   1   2
ATOM      2  S   UNL     1       5.570   5.312  16.565  0.00  0.00    +0.000 S 
ATOM      3  O   UNL     1       5.307   5.733  15.206  0.00  0.00    +0.000 OA
ATOM      4  O   UNL     1       6.035   3.976  16.836  0.00  0.00    +0.000 OA
BRANCH   2   8
ATOM      5  C   UNL     1       8.370   8.266  18.657  0.00  0.00    +0.000 A 
ATOM      6  C   UNL     1       7.724   8.618  17.467  0.00  0.00    +0.000 A 
ATOM      7  C   UNL     1       6.966   7.677  16.749  0.00  0.00    +0.000 A 
ATOM      8  C   UNL     1       6.868   6.363  17.213  0.00  0.00    +0.000 A 
ATOM      9  C   UNL     1       7.560   5.980  18.366  0.00  0.00    +0.000 A 
ATOM     10  C   UNL     1       8.308   6.931  19.080  0.00  0.00    +0.000 A 
BRANCH   5  14
ATOM     11  C   UNL     1      10.118  11.200  20.295  0.00  0.00    +0.000 C 
ATOM     12  C   UNL     1       9.562  10.423  19.129  0.00  0.00    +0.000 C 
ATOM     13  O   UNL     1       9.595  10.898  17.999  0.00  0.00    +0.000 OA
ATOM     14  N   UNL     1       9.037   9.192  19.495  0.00  0.00    +0.000 N 
ATOM     15  H   UNL     1       9.083   8.957  20.479  0.00  0.00    +0.000 HD
ENDBRANCH   5  14
ENDBRANCH   2   8
ENDBRANCH   1   2
BRANCH   1  16
ATOM     16  C   UNL     1       3.770   7.140  17.281  0.00  0.00    +0.000 C 
BRANCH  16  17
ATOM     17  C   UNL     1       2.753   7.749  18.228  0.00  0.00    +0.000 A 
ATOM     18  C   UNL     1       1.971   8.843  17.838  0.00  0.00    +0.000 A 
ATOM     19  C   UNL     1       1.109   9.452  18.753  0.00  0.00    +0.000 A 
ATOM     20  C   UNL     1       1.013   8.958  20.049  0.00  0.00    +0.000 A 
ATOM     21  F   UNL     1       0.227   9.581  20.938  0.00  0.00    +0.000 F 
ATOM     22  C   UNL     1       1.726   7.833  20.438  0.00  0.00    +0.000 A 
ATOM     23  C   UNL     1       2.588   7.222  19.525  0.00  0.00    +0.000 A 
ENDBRANCH  16  17
ENDBRANCH   1  16
BRANCH   1  24
ATOM     24  C   UNL     1       2.941   4.768  17.266  0.00  0.00    +0.000 C 
BRANCH  24  25
ATOM     25  C   UNL     1       2.877   3.448  18.080  0.00  0.00    +0.000 C 
ATOM     26  C   UNL     1       3.901   3.314  19.214  0.00  0.00    +0.000 C 
ATOM     27  C   UNL     1       3.571   4.108  20.478  0.00  0.00    +0.000 C 
ATOM     28  C   UNL     1       2.131   3.959  20.978  0.00  0.00    +0.000 C 
ATOM     29  C   UNL     1       1.081   3.965  19.862  0.00  0.00    +0.000 C 
ATOM     30  C   UNL     1       1.466   3.163  18.625  0.00  0.00    +0.000 C 
BRANCH  28  31
ATOM     31  C   UNL     1       1.983   2.745  21.888  0.00  0.00    +0.000 C 
ATOM     32  O   UNL     1       0.930   2.342  22.357  0.00  0.00    +0.000 OA
BRANCH  31  33
ATOM     33  O   UNL     1       3.161   2.124  22.140  0.00  0.00    +0.000 OA
ATOM     34  H   UNL     1       3.924   2.724  22.242  0.00  0.00    +0.000 HD
ENDBRANCH  31  33
ENDBRANCH  28  31
ENDBRANCH  24  25
ENDBRANCH   1  24
TORSDOF 9
ENDMDL
MODEL 3
REMARK VINA RESULT:      -7.5      1.227      1.842
REMARK  Name = 
REMARK  10 active torsions:
REMARK  status: ('A' for Active; 'I' for Inactive)
REMARK    1  A    between atoms: C_1  and  C_2
REMARK    2  A    between atoms: N_4  and  C_5
REMARK    3  A    between atoms: C_8  and  S_9
REMARK    4  A    between atoms: S_9  and  N_12
REMARK    5  A    between atoms: N_12  and  C_13
REMARK    6  A    between atoms: N_12  and  C_21
REMARK    7  A    between atoms: C_13  and  C_14
REMARK    8  A    between atoms: C_21  and  C_22
REMARK    9  A    between atoms: C_25  and  C_26
REMARK   10  A    between atoms: C_26  and  O_28
REMARK                            x       y       z     vdW  Elec       q    Type
REMARK                         _______ _______ _______ _____ _____    ______ ____
ROOT
ATOM      1  N   UNL     1       0.052  10.944  19.645  0.00  0.00    +0.000 NA
ENDROOT
BRANCH   1   2
ATOM      2  S   UNL     1       0.442   9.730  20.856  0.00  0.00    +0.000 S 
ATOM      3  O   UNL     1      -0.777   9.013  21.167  0.00  0.00    +0.000 OA
ATOM      4  O   UNL     1       1.239  10.301  21.910  0.00  0.00    +0.000 OA
BRANCH   2   8
ATOM      5  C   UNL     1       2.672   6.477  18.535  0.00  0.00    +0.000 A 
ATOM      6  C   UNL     1       2.354   6.297  19.885  0.00  0.00    +0.000 A 
ATOM      7  C   UNL     1       1.787   7.338  20.640  0.00  0.00    +0.000 A 
ATOM      8  C   UNL     1       1.551   8.580  20.046  0.00  0.00    +0.000 A 
ATOM      9  C   UNL     1       1.921   8.794  18.715  0.00  0.00    +0.000 A 
ATOM     10  C   UNL     1       2.481   7.745  17.968  0.00  0.00    +0.000 A 
BRANCH   5  14
ATOM     11  C   UNL     1       4.555   3.861  16.545  0.00  0.00    +0.000 C 
ATOM     12  C   UNL     1       4.435   5.085  17.419  0.00  0.00    +0.000 C 
ATOM     13  O   UNL     1       5.442   5.655  17.823  0.00  0.00    +0.000 OA
ATOM     14  N   UNL     1       3.120   5.436  17.686  0.00  0.00    +0.000 N 
ATOM     15  H   UNL     1       2.405   4.848  17.278  0.00  0.00    +0.000 HD
ENDBRANCH   5  14
ENDBRANCH   2   8
ENDBRANCH   1   2
BRANCH   1  16
ATOM     16  C   UNL     1      -1.462  11.151  19.652  0.00  0.00    +0.000 C 
BRANCH  16  17
ATOM     17  C   UNL     1      -2.180  10.969  18.327  0.00  0.00    +0.000 A 
ATOM     18  C   UNL     1      -3.396  11.614  18.072  0.00  0.00    +0.000 A 
ATOM     19  C   UNL     1      -4.090  11.360  16.887  0.00  0.00    +0.000 A 
ATOM     20  C   UNL     1      -3.563  10.479  15.950  0.00  0.00    +0.000 A 
ATOM     21  F   UNL     1      -4.261  10.197  14.841  0.00  0.00    +0.000 F 
ATOM     22  C   UNL     1      -2.327   9.881  16.150  0.00  0.00    +0.000 A 
ATOM     23  C   UNL     1      -1.631  10.133  17.333  0.00  0.00    +0.000 A 
ENDBRANCH  16  17
ENDBRANCH   1  16
BRANCH   1  24
ATOM     24  C   UNL     1       0.778  12.279  19.812  0.00  0.00    +0.000 C 
BRANCH  24  25
ATOM     25  C   UNL     1       0.771  13.235  18.590  0.00  0.00    +0.000 C 
ATOM     26  C   UNL     1      -0.056  14.517  18.751  0.00  0.00    +0.000 C 
ATOM     27  C   UNL     1       0.603  15.606  19.596  0.00  0.00    +0.000 C 
ATOM     28  C   UNL     1       2.065  15.901  19.249  0.00  0.00    +0.000 C 
ATOM     29  C   UNL     1       2.900  14.648  18.960  0.00  0.00    +0.000 C 
ATOM     30  C   UNL     1       2.191  13.594  18.117  0.00  0.00    +0.000 C 
BRANCH  28  31
ATOM     31  C   UNL     1       2.172  16.924  18.125  0.00  0.00    +0.000 C 
ATOM     32  O   UNL     1       1.232  17.529  17.633  0.00  0.00    +0.000 OA
BRANCH  31  33
ATOM     33  O   UNL     1       3.445  17.119  17.703  0.00  0.00    +0.000 OA
ATOM     34  H   UNL     1       3.983  17.692  18.282  0.00  0.00    +0.000 HD
ENDBRANCH  31  33
ENDBRANCH  28  31
ENDBRANCH  24  25
ENDBRANCH   1  24
TORSDOF 9
ENDMDL
MODEL 4
REMARK VINA RESULT:      -7.4      2.618      4.870
REMARK  Name = 
REMARK  10 active torsions:
REMARK  status: ('A' for Active; 'I' for Inactive)
REMARK    1  A    between atoms: C_1  and  C_2
REMARK    2  A    between atoms: N_4  and  C_5
REMARK    3  A    between atoms: C_8  and  S_9
REMARK    4  A    between atoms: S_9  and  N_12
REMARK    5  A    between atoms: N_12  and  C_13
REMARK    6  A    between atoms: N_12  and  C_21
REMARK    7  A    between atoms: C_13  and  C_14
REMARK    8  A    between atoms: C_21  and  C_22
REMARK    9  A    between atoms: C_25  and  C_26
REMARK   10  A    between atoms: C_26  and  O_28
REMARK                            x       y       z     vdW  Elec       q    Type
REMARK                         _______ _______ _______ _____ _____    ______ ____
ROOT
ATOM      1  N   UNL     1      -0.844  12.239  19.460  0.00  0.00    +0.000 NA
ENDROOT
BRANCH   1   2
ATOM      2  S   UNL     1       0.852  11.932  19.806  0.00  0.00    +0.000 S 
ATOM      3  O   UNL     1       1.070  12.202  21.211  0.00  0.00    +0.000 OA
ATOM      4  O   UNL     1       1.692  12.544  18.809  0.00  0.00    +0.000 OA
BRANCH   2   8
ATOM      5  C   UNL     1       2.143   7.566  19.342  0.00  0.00    +0.000 A 
ATOM      6  C   UNL     1       2.146   8.430  18.241  0.00  0.00    +0.000 A 
ATOM      7  C   UNL     1       1.630   9.734  18.343  0.00  0.00    +0.000 A 
ATOM      8  C   UNL     1       1.086  10.174  19.552  0.00  0.00    +0.000 A 
ATOM      9  C   UNL     1       1.018   9.302  20.642  0.00  0.00    +0.000 A 
ATOM     10  C   UNL     1       1.543   8.004  20.532  0.00  0.00    +0.000 A 
BRANCH   5  14
ATOM     11  C   UNL     1       3.384   4.040  18.731  0.00  0.00    +0.000 C 
ATOM     12  C   UNL     1       2.458   5.214  18.530  0.00  0.00    +0.000 C 
ATOM     13  O   UNL     1       1.556   5.152  17.703  0.00  0.00    +0.000 OA
ATOM     14  N   UNL     1       2.763   6.294  19.345  0.00  0.00    +0.000 N 
ATOM     15  H   UNL     1       3.552   6.179  19.969  0.00  0.00    +0.000 HD
ENDBRANCH   5  14
ENDBRANCH   2   8
ENDBRANCH   1   2
BRANCH   1  16
ATOM     16  C   UNL     1      -1.525  10.896  19.199  0.00  0.00    +0.000 C 
BRANCH  16  17
ATOM     17  C   UNL     1      -2.251  10.747  17.874  0.00  0.00    +0.000 A 
ATOM     18  C   UNL     1      -3.419  11.471  17.608  0.00  0.00    +0.000 A 
ATOM     19  C   UNL     1      -4.127  11.250  16.423  0.00  0.00    +0.000 A 
ATOM     20  C   UNL     1      -3.659  10.323  15.499  0.00  0.00    +0.000 A 
ATOM     21  F   UNL     1      -4.372  10.075  14.392  0.00  0.00    +0.000 F 
ATOM     22  C   UNL     1      -2.468   9.644  15.710  0.00  0.00    +0.000 A 
ATOM     23  C   UNL     1      -1.758   9.862  16.893  0.00  0.00    +0.000 A 
ENDBRANCH  16  17
ENDBRANCH   1  16
BRANCH   1  24
ATOM     24  C   UNL     1      -1.593  13.021  20.539  0.00  0.00    +0.000 C 
BRANCH  24  25
ATOM     25  C   UNL     1      -2.696  12.257  21.318  0.00  0.00    +0.000 C 
ATOM     26  C   UNL     1      -2.522  12.203  22.841  0.00  0.00    +0.000 C 
ATOM     27  C   UNL     1      -2.895  13.489  23.578  0.00  0.00    +0.000 C 
ATOM     28  C   UNL     1      -4.238  14.102  23.170  0.00  0.00    +0.000 C 
ATOM     29  C   UNL     1      -4.507  14.064  21.662  0.00  0.00    +0.000 C 
ATOM     30  C   UNL     1      -4.110  12.761  20.978  0.00  0.00    +0.000 C 
BRANCH  28  31
ATOM     31  C   UNL     1      -5.388  13.495  23.965  0.00  0.00    +0.000 C 
ATOM     32  O   UNL     1      -5.534  12.304  24.192  0.00  0.00    +0.000 OA
BRANCH  31  33
ATOM     33  O   UNL     1      -6.267  14.421  24.420  0.00  0.00    +0.000 OA
ATOM     34  H   UNL     1      -6.336  15.222  23.867  0.00  0.00    +0.000 HD
ENDBRANCH  31  33
ENDBRANCH  28  31
ENDBRANCH  24  25
ENDBRANCH   1  24
TORSDOF 9
ENDMDL
MODEL 5
REMARK VINA RESULT:      -7.4      1.041      1.226
REMARK  Name = 
REMARK  10 active torsions:
REMARK  status: ('A' for Active; 'I' for Inactive)
REMARK    1  A    between atoms: C_1  and  C_2
REMARK    2  A    between atoms: N_4  and  C_5
REMARK    3  A    between atoms: C_8  and  S_9
REMARK    4  A    between atoms: S_9  and  N_12
REMARK    5  A    between atoms: N_12  and  C_13
REMARK    6  A    between atoms: N_12  and  C_21
REMARK    7  A    between atoms: C_13  and  C_14
REMARK    8  A    between atoms: C_21  and  C_22
REMARK    9  A    between atoms: C_25  and  C_26
REMARK   10  A    between atoms: C_26  and  O_28
REMARK                            x       y       z     vdW  Elec       q    Type
REMARK                         _______ _______ _______ _____ _____    ______ ____
ROOT
ATOM      1  N   UNL     1       0.251  11.074  19.644  0.00  0.00    +0.000 NA
ENDROOT
BRANCH   1   2
ATOM      2  S   UNL     1       0.599   9.750  20.747  0.00  0.00    +0.000 S 
ATOM      3  O   UNL     1      -0.666   9.227  21.218  0.00  0.00    +0.000 OA
ATOM      4  O   UNL     1       1.625  10.126  21.684  0.00  0.00    +0.000 OA
BRANCH   2   8
ATOM      5  C   UNL     1       3.194   6.801  18.399  0.00  0.00    +0.000 A 
ATOM      6  C   UNL     1       2.701   7.958  17.787  0.00  0.00    +0.000 A 
ATOM      7  C   UNL     1       1.799   8.803  18.458  0.00  0.00    +0.000 A 
ATOM      8  C   UNL     1       1.368   8.479  19.746  0.00  0.00    +0.000 A 
ATOM      9  C   UNL     1       1.802   7.293  20.346  0.00  0.00    +0.000 A 
ATOM     10  C   UNL     1       2.710   6.460  19.670  0.00  0.00    +0.000 A 
BRANCH   5  14
ATOM     11  C   UNL     1       5.306   4.166  16.683  0.00  0.00    +0.000 C 
ATOM     12  C   UNL     1       4.037   4.718  17.284  0.00  0.00    +0.000 C 
ATOM     13  O   UNL     1       3.001   4.065  17.244  0.00  0.00    +0.000 OA
ATOM     14  N   UNL     1       4.200   5.980  17.836  0.00  0.00    +0.000 N 
ATOM     15  H   UNL     1       5.128   6.382  17.775  0.00  0.00    +0.000 HD
ENDBRANCH   5  14
ENDBRANCH   2   8
ENDBRANCH   1   2
BRANCH   1  16
ATOM     16  C   UNL     1      -1.245  11.376  19.722  0.00  0.00    +0.000 C 
BRANCH  16  17
ATOM     17  C   UNL     1      -2.074  11.030  18.499  0.00  0.00    +0.000 A 
ATOM     18  C   UNL     1      -1.610  10.111  17.551  0.00  0.00    +0.000 A 
ATOM     19  C   UNL     1      -2.341   9.876  16.384  0.00  0.00    +0.000 A 
ATOM     20  C   UNL     1      -3.542  10.543  16.172  0.00  0.00    +0.000 A 
ATOM     21  F   UNL     1      -4.209  10.357  15.025  0.00  0.00    +0.000 F 
ATOM     22  C   UNL     1      -4.056  11.407  17.129  0.00  0.00    +0.000 A 
ATOM     23  C   UNL     1      -3.328  11.643  18.296  0.00  0.00    +0.000 A 
ENDBRANCH  16  17
ENDBRANCH   1  16
BRANCH   1  24
ATOM     24  C   UNL     1       1.069  12.344  19.880  0.00  0.00    +0.000 C 
BRANCH  24  25
ATOM     25  C   UNL     1       1.134  13.361  18.710  0.00  0.00    +0.000 C 
ATOM     26  C   UNL     1       0.323  14.649  18.900  0.00  0.00    +0.000 C 
ATOM     27  C   UNL     1       0.961  15.681  19.829  0.00  0.00    +0.000 C 
ATOM     28  C   UNL     1       2.442  15.964  19.563  0.00  0.00    +0.000 C 
ATOM     29  C   UNL     1       3.267  14.712  19.247  0.00  0.00    +0.000 C 
ATOM     30  C   UNL     1       2.580  13.716  18.320  0.00  0.00    +0.000 C 
BRANCH  28  31
ATOM     31  C   UNL     1       2.617  17.042  18.499  0.00  0.00    +0.000 C 
ATOM     32  O   UNL     1       1.769  17.862  18.183  0.00  0.00    +0.000 OA
BRANCH  31  33
ATOM     33  O   UNL     1       3.839  17.016  17.914  0.00  0.00    +0.000 OA
ATOM     34  H   UNL     1       4.127  16.134  17.611  0.00  0.00    +0.000 HD
ENDBRANCH  31  33
ENDBRANCH  28  31
ENDBRANCH  24  25
ENDBRANCH   1  24
TORSDOF 9
ENDMDL
MODEL 6
REMARK VINA RESULT:      -7.4      2.733      4.727
REMARK  Name = 
REMARK  10 active torsions:
REMARK  status: ('A' for Active; 'I' for Inactive)
REMARK    1  A    between atoms: C_1  and  C_2
REMARK    2  A    between atoms: N_4  and  C_5
REMARK    3  A    between atoms: C_8  and  S_9
REMARK    4  A    between atoms: S_9  and  N_12
REMARK    5  A    between atoms: N_12  and  C_13
REMARK    6  A    between atoms: N_12  and  C_21
REMARK    7  A    between atoms: C_13  and  C_14
REMARK    8  A    between atoms: C_21  and  C_22
REMARK    9  A    between atoms: C_25  and  C_26
REMARK   10  A    between atoms: C_26  and  O_28
REMARK                            x       y       z     vdW  Elec       q    Type
REMARK                         _______ _______ _______ _____ _____    ______ ____
ROOT
ATOM      1  N   UNL     1      -0.861  11.544  19.986  0.00  0.00    +0.000 NA
ENDROOT
BRANCH   1   2
ATOM      2  S   UNL     1       0.890  11.396  20.022  0.00  0.00    +0.000 S 
ATOM      3  O   UNL     1       1.308  11.450  21.407  0.00  0.00    +0.000 OA
ATOM      4  O   UNL     1       1.494  12.266  19.046  0.00  0.00    +0.000 OA
BRANCH   2   8
ATOM      5  C   UNL     1       2.499   7.353  18.604  0.00  0.00    +0.000 A 
ATOM      6  C   UNL     1       2.292   8.396  17.695  0.00  0.00    +0.000 A 
ATOM      7  C   UNL     1       1.678   9.595  18.096  0.00  0.00    +0.000 A 
ATOM      8  C   UNL     1       1.248   9.749  19.416  0.00  0.00    +0.000 A 
ATOM      9  C   UNL     1       1.390   8.693  20.320  0.00  0.00    +0.000 A 
ATOM     10  C   UNL     1       2.012   7.501  19.911  0.00  0.00    +0.000 A 
BRANCH   5  14
ATOM     11  C   UNL     1       3.779   3.954  17.532  0.00  0.00    +0.000 C 
ATOM     12  C   UNL     1       2.711   4.970  17.851  0.00  0.00    +0.000 C 
ATOM     13  O   UNL     1       1.528   4.690  17.696  0.00  0.00    +0.000 OA
ATOM     14  N   UNL     1       3.226   6.177  18.302  0.00  0.00    +0.000 N 
ATOM     15  H   UNL     1       4.234   6.242  18.364  0.00  0.00    +0.000 HD
ENDBRANCH   5  14
ENDBRANCH   2   8
ENDBRANCH   1   2
BRANCH   1  16
ATOM     16  C   UNL     1      -1.433  10.267  19.373  0.00  0.00    +0.000 C 
BRANCH  16  17
ATOM     17  C   UNL     1      -2.190  10.420  18.067  0.00  0.00    +0.000 A 
ATOM     18  C   UNL     1      -3.363  11.182  18.000  0.00  0.00    +0.000 A 
ATOM     19  C   UNL     1      -4.100  11.233  16.813  0.00  0.00    +0.000 A 
ATOM     20  C   UNL     1      -3.657  10.542  15.692  0.00  0.00    +0.000 A 
ATOM     21  F   UNL     1      -4.398  10.549  14.575  0.00  0.00    +0.000 F 
ATOM     22  C   UNL     1      -2.462   9.837  15.715  0.00  0.00    +0.000 A 
ATOM     23  C   UNL     1      -1.724   9.783  16.898  0.00  0.00    +0.000 A 
ENDBRANCH  16  17
ENDBRANCH   1  16
BRANCH   1  24
ATOM     24  C   UNL     1      -1.513  11.829  21.339  0.00  0.00    +0.000 C 
BRANCH  24  25
ATOM     25  C   UNL     1      -2.167  13.225  21.520  0.00  0.00    +0.000 C 
ATOM     26  C   UNL     1      -3.505  13.433  20.799  0.00  0.00    +0.000 C 
ATOM     27  C   UNL     1      -4.710  12.783  21.479  0.00  0.00    +0.000 C 
ATOM     28  C   UNL     1      -4.819  13.037  22.985  0.00  0.00    +0.000 C 
ATOM     29  C   UNL     1      -3.480  12.959  23.727  0.00  0.00    +0.000 C 
ATOM     30  C   UNL     1      -2.313  13.618  23.000  0.00  0.00    +0.000 C 
BRANCH  28  31
ATOM     31  C   UNL     1      -5.553  14.340  23.276  0.00  0.00    +0.000 C 
ATOM     32  O   UNL     1      -6.323  14.899  22.511  0.00  0.00    +0.000 OA
BRANCH  31  33
ATOM     33  O   UNL     1      -5.271  14.846  24.502  0.00  0.00    +0.000 OA
ATOM     34  H   UNL     1      -5.992  15.368  24.902  0.00  0.00    +0.000 HD
ENDBRANCH  31  33
ENDBRANCH  28  31
ENDBRANCH  24  25
ENDBRANCH   1  24
TORSDOF 9
ENDMDL
MODEL 7
REMARK VINA RESULT:      -7.3      1.492      1.849
REMARK  Name = 
REMARK  10 active torsions:
REMARK  status: ('A' for Active; 'I' for Inactive)
REMARK    1  A    between atoms: C_1  and  C_2
REMARK    2  A    between atoms: N_4  and  C_5
REMARK    3  A    between atoms: C_8  and  S_9
REMARK    4  A    between atoms: S_9  and  N_12
REMARK    5  A    between atoms: N_12  and  C_13
REMARK    6  A    between atoms: N_12  and  C_21
REMARK    7  A    between atoms: C_13  and  C_14
REMARK    8  A    between atoms: C_21  and  C_22
REMARK    9  A    between atoms: C_25  and  C_26
REMARK   10  A    between atoms: C_26  and  O_28
REMARK                            x       y       z     vdW  Elec       q    Type
REMARK                         _______ _______ _______ _____ _____    ______ ____
ROOT
ATOM      1  N   UNL     1       0.482  10.884  20.249  0.00  0.00    +0.000 NA
ENDROOT
BRANCH   1   2
ATOM      2  S   UNL     1       0.809   9.403  21.139  0.00  0.00    +0.000 S 
ATOM      3  O   UNL     1      -0.458   8.883  21.607  0.00  0.00    +0.000 OA
ATOM      4  O   UNL     1       1.902   9.593  22.058  0.00  0.00    +0.000 OA
BRANCH   2   8
ATOM      5  C   UNL     1       3.107   6.696  18.252  0.00  0.00    +0.000 A 
ATOM      6  C   UNL     1       2.626   7.940  17.831  0.00  0.00    +0.000 A 
ATOM      7  C   UNL     1       1.810   8.721  18.667  0.00  0.00    +0.000 A 
ATOM      8  C   UNL     1       1.453   8.247  19.932  0.00  0.00    +0.000 A 
ATOM      9  C   UNL     1       1.873   6.979  20.341  0.00  0.00    +0.000 A 
ATOM     10  C   UNL     1       2.695   6.210  19.501  0.00  0.00    +0.000 A 
BRANCH   5  14
ATOM     11  C   UNL     1       6.087   5.161  16.488  0.00  0.00    +0.000 C 
ATOM     12  C   UNL     1       5.342   6.264  17.197  0.00  0.00    +0.000 C 
ATOM     13  O   UNL     1       5.901   7.328  17.441  0.00  0.00    +0.000 OA
ATOM     14  N   UNL     1       4.037   5.921  17.517  0.00  0.00    +0.000 N 
ATOM     15  H   UNL     1       3.735   4.993  17.248  0.00  0.00    +0.000 HD
ENDBRANCH   5  14
ENDBRANCH   2   8
ENDBRANCH   1   2
BRANCH   1  16
ATOM     16  C   UNL     1      -1.019  11.159  20.322  0.00  0.00    +0.000 C 
BRANCH  16  17
ATOM     17  C   UNL     1      -1.795  11.043  19.022  0.00  0.00    +0.000 A 
ATOM     18  C   UNL     1      -2.989  11.749  18.832  0.00  0.00    +0.000 A 
ATOM     19  C   UNL     1      -3.740  11.557  17.669  0.00  0.00    +0.000 A 
ATOM     20  C   UNL     1      -3.290  10.678  16.691  0.00  0.00    +0.000 A 
ATOM     21  F   UNL     1      -4.042  10.457  15.604  0.00  0.00    +0.000 F 
ATOM     22  C   UNL     1      -2.075  10.021  16.826  0.00  0.00    +0.000 A 
ATOM     23  C   UNL     1      -1.323  10.211  17.987  0.00  0.00    +0.000 A 
ENDBRANCH  16  17
ENDBRANCH   1  16
BRANCH   1  24
ATOM     24  C   UNL     1       1.276  12.105  20.714  0.00  0.00    +0.000 C 
BRANCH  24  25
ATOM     25  C   UNL     1       1.064  13.420  19.918  0.00  0.00    +0.000 C 
ATOM     26  C   UNL     1       1.705  14.676  20.522  0.00  0.00    +0.000 C 
ATOM     27  C   UNL     1       3.214  14.795  20.311  0.00  0.00    +0.000 C 
ATOM     28  C   UNL     1       3.689  14.534  18.878  0.00  0.00    +0.000 C 
ATOM     29  C   UNL     1       2.983  13.359  18.193  0.00  0.00    +0.000 C 
ATOM     30  C   UNL     1       1.481  13.288  18.443  0.00  0.00    +0.000 C 
BRANCH  28  31
ATOM     31  C   UNL     1       3.627  15.802  18.035  0.00  0.00    +0.000 C 
ATOM     32  O   UNL     1       3.654  16.941  18.475  0.00  0.00    +0.000 OA
BRANCH  31  33
ATOM     33  O   UNL     1       3.540  15.551  16.706  0.00  0.00    +0.000 OA
ATOM     34  H   UNL     1       3.998  16.200  16.139  0.00  0.00    +0.000 HD
ENDBRANCH  31  33
ENDBRANCH  28  31
ENDBRANCH  24  25
ENDBRANCH   1  24
TORSDOF 9
ENDMDL
MODEL 8
REMARK VINA RESULT:      -7.3      5.466      9.474
REMARK  Name = 
REMARK  10 active torsions:
REMARK  status: ('A' for Active; 'I' for Inactive)
REMARK    1  A    between atoms: C_1  and  C_2
REMARK    2  A    between atoms: N_4  and  C_5
REMARK    3  A    between atoms: C_8  and  S_9
REMARK    4  A    between atoms: S_9  and  N_12
REMARK    5  A    between atoms: N_12  and  C_13
REMARK    6  A    between atoms: N_12  and  C_21
REMARK    7  A    between atoms: C_13  and  C_14
REMARK    8  A    between atoms: C_21  and  C_22
REMARK    9  A    between atoms: C_25  and  C_26
REMARK   10  A    between atoms: C_26  and  O_28
REMARK                            x       y       z     vdW  Elec       q    Type
REMARK                         _______ _______ _______ _____ _____    ______ ____
ROOT
ATOM      1  N   UNL     1       4.708   5.450  17.266  0.00  0.00    +0.000 NA
ENDROOT
BRANCH   1   2
ATOM      2  S   UNL     1       6.415   5.510  16.848  0.00  0.00    +0.000 S 
ATOM      3  O   UNL     1       6.512   5.747  15.424  0.00  0.00    +0.000 OA
ATOM      4  O   UNL     1       7.124   4.411  17.452  0.00  0.00    +0.000 OA
BRANCH   2   8
ATOM      5  C   UNL     1       8.652   9.127  18.538  0.00  0.00    +0.000 A 
ATOM      6  C   UNL     1       8.778   7.869  19.137  0.00  0.00    +0.000 A 
ATOM      7  C   UNL     1       7.998   6.781  18.707  0.00  0.00    +0.000 A 
ATOM      8  C   UNL     1       7.066   6.956  17.681  0.00  0.00    +0.000 A 
ATOM      9  C   UNL     1       6.884   8.222  17.117  0.00  0.00    +0.000 A 
ATOM     10  C   UNL     1       7.674   9.300  17.548  0.00  0.00    +0.000 A 
BRANCH   5  14
ATOM     11  C   UNL     1      10.694  11.944  20.035  0.00  0.00    +0.000 C 
ATOM     12  C   UNL     1       9.631  10.873  20.049  0.00  0.00    +0.000 C 
ATOM     13  O   UNL     1       8.998  10.646  21.074  0.00  0.00    +0.000 OA
ATOM     14  N   UNL     1       9.495  10.226  18.830  0.00  0.00    +0.000 N 
ATOM     15  H   UNL     1      10.108  10.534  18.085  0.00  0.00    +0.000 HD
ENDBRANCH   5  14
ENDBRANCH   2   8
ENDBRANCH   1   2
BRANCH   1  16
ATOM     16  C   UNL     1       4.064   6.760  16.813  0.00  0.00    +0.000 C 
BRANCH  16  17
ATOM     17  C   UNL     1       3.167   7.459  17.818  0.00  0.00    +0.000 A 
ATOM     18  C   UNL     1       3.026   6.968  19.121  0.00  0.00    +0.000 A 
ATOM     19  C   UNL     1       2.122   7.567  20.003  0.00  0.00    +0.000 A 
ATOM     20  C   UNL     1       1.376   8.665  19.591  0.00  0.00    +0.000 A 
ATOM     21  F   UNL     1       0.471   9.199  20.423  0.00  0.00    +0.000 F 
ATOM     22  C   UNL     1       1.549   9.211  18.328  0.00  0.00    +0.000 A 
ATOM     23  C   UNL     1       2.451   8.615  17.444  0.00  0.00    +0.000 A 
ENDBRANCH  16  17
ENDBRANCH   1  16
BRANCH   1  24
ATOM     24  C   UNL     1       3.946   4.252  16.699  0.00  0.00    +0.000 C 
BRANCH  24  25
ATOM     25  C   UNL     1       3.687   3.068  17.668  0.00  0.00    +0.000 C 
ATOM     26  C   UNL     1       4.444   3.119  19.001  0.00  0.00    +0.000 C 
ATOM     27  C   UNL     1       3.865   4.086  20.034  0.00  0.00    +0.000 C 
ATOM     28  C   UNL     1       2.349   3.991  20.231  0.00  0.00    +0.000 C 
ATOM     29  C   UNL     1       1.562   3.815  18.928  0.00  0.00    +0.000 C 
ATOM     30  C   UNL     1       2.188   2.844  17.934  0.00  0.00    +0.000 C 
BRANCH  28  31
ATOM     31  C   UNL     1       1.990   2.924  21.258  0.00  0.00    +0.000 C 
ATOM     32  O   UNL     1       2.776   2.400  22.032  0.00  0.00    +0.000 OA
BRANCH  31  33
ATOM     33  O   UNL     1       0.676   2.593  21.243  0.00  0.00    +0.000 OA
ATOM     34  H   UNL     1       0.222   2.766  20.396  0.00  0.00    +0.000 HD
ENDBRANCH  31  33
ENDBRANCH  28  31
ENDBRANCH  24  25
ENDBRANCH   1  24
TORSDOF 9
ENDMDL
MODEL 9
REMARK VINA RESULT:      -7.2      0.805      1.173
REMARK  Name = 
REMARK  10 active torsions:
REMARK  status: ('A' for Active; 'I' for Inactive)
REMARK    1  A    between atoms: C_1  and  C_2
REMARK    2  A    between atoms: N_4  and  C_5
REMARK    3  A    between atoms: C_8  and  S_9
REMARK    4  A    between atoms: S_9  and  N_12
REMARK    5  A    between atoms: N_12  and  C_13
REMARK    6  A    between atoms: N_12  and  C_21
REMARK    7  A    between atoms: C_13  and  C_14
REMARK    8  A    between atoms: C_21  and  C_22
REMARK    9  A    between atoms: C_25  and  C_26
REMARK   10  A    between atoms: C_26  and  O_28
REMARK                            x       y       z     vdW  Elec       q    Type
REMARK                         _______ _______ _______ _____ _____    ______ ____
ROOT
ATOM      1  N   UNL     1      -0.457  11.881  19.667  0.00  0.00    +0.000 NA
ENDROOT
BRANCH   1   2
ATOM      2  S   UNL     1       0.374  10.924  20.885  0.00  0.00    +0.000 S 
ATOM      3  O   UNL     1      -0.593  10.570  21.902  0.00  0.00    +0.000 OA
ATOM      4  O   UNL     1       1.622  11.541  21.252  0.00  0.00    +0.000 OA
BRANCH   2   8
ATOM      5  C   UNL     1       2.305   7.280  18.900  0.00  0.00    +0.000 A 
ATOM      6  C   UNL     1       1.951   8.400  18.141  0.00  0.00    +0.000 A 
ATOM      7  C   UNL     1       1.242   9.469  18.715  0.00  0.00    +0.000 A 
ATOM      8  C   UNL     1       0.863   9.411  20.058  0.00  0.00    +0.000 A 
ATOM      9  C   UNL     1       1.153   8.271  20.813  0.00  0.00    +0.000 A 
ATOM     10  C   UNL     1       1.869   7.212  20.232  0.00  0.00    +0.000 A 
BRANCH   5  14
ATOM     11  C   UNL     1       5.005   5.034  17.482  0.00  0.00    +0.000 C 
ATOM     12  C   UNL     1       4.342   6.360  17.762  0.00  0.00    +0.000 C 
ATOM     13  O   UNL     1       4.884   7.405  17.421  0.00  0.00    +0.000 OA
ATOM     14  N   UNL     1       3.129   6.233  18.423  0.00  0.00    +0.000 N 
ATOM     15  H   UNL     1       2.830   5.290  18.639  0.00  0.00    +0.000 HD
ENDBRANCH   5  14
ENDBRANCH   2   8
ENDBRANCH   1   2
BRANCH   1  16
ATOM     16  C   UNL     1      -1.913  11.419  19.612  0.00  0.00    +0.000 C 
BRANCH  16  17
ATOM     17  C   UNL     1      -2.481  11.122  18.236  0.00  0.00    +0.000 A 
ATOM     18  C   UNL     1      -3.691  11.690  17.820  0.00  0.00    +0.000 A 
ATOM     19  C   UNL     1      -4.247  11.331  16.589  0.00  0.00    +0.000 A 
ATOM     20  C   UNL     1      -3.588  10.423  15.769  0.00  0.00    +0.000 A 
ATOM     21  F   UNL     1      -4.155  10.040  14.616  0.00  0.00    +0.000 F 
ATOM     22  C   UNL     1      -2.355   9.900  16.130  0.00  0.00    +0.000 A 
ATOM     23  C   UNL     1      -1.796  10.257  17.359  0.00  0.00    +0.000 A 
ENDBRANCH  16  17
ENDBRANCH   1  16
BRANCH   1  24
ATOM     24  C   UNL     1      -0.381  13.394  19.872  0.00  0.00    +0.000 C 
BRANCH  24  25
ATOM     25  C   UNL     1       0.199  14.230  18.700  0.00  0.00    +0.000 C 
ATOM     26  C   UNL     1       0.558  15.684  19.031  0.00  0.00    +0.000 C 
ATOM     27  C   UNL     1       1.863  15.866  19.804  0.00  0.00    +0.000 C 
ATOM     28  C   UNL     1       3.059  15.088  19.247  0.00  0.00    +0.000 C 
ATOM     29  C   UNL     1       2.717  13.666  18.789  0.00  0.00    +0.000 C 
ATOM     30  C   UNL     1       1.402  13.543  18.029  0.00  0.00    +0.000 C 
BRANCH  28  31
ATOM     31  C   UNL     1       3.774  15.877  18.157  0.00  0.00    +0.000 C 
ATOM     32  O   UNL     1       3.740  17.091  18.031  0.00  0.00    +0.000 OA
BRANCH  31  33
ATOM     33  O   UNL     1       4.481  15.091  17.309  0.00  0.00    +0.000 OA
ATOM     34  H   UNL     1       5.080  14.457  17.746  0.00  0.00    +0.000 HD
ENDBRANCH  31  33
ENDBRANCH  28  31
ENDBRANCH  24  25
ENDBRANCH   1  24
TORSDOF 9
ENDMDL
