MODEL 1
REMARK VINA RESULT:      -8.4      0.000      0.000
REMARK  Name = 
REMARK  8 active torsions:
REMARK  status: ('A' for Active; 'I' for Inactive)
REMARK    1  A    between atoms: C_1  and  C_2
REMARK    2  A    between atoms: C_2  and  C_3
REMARK    3  A    between atoms: N_6  and  C_7
REMARK    4  A    between atoms: C_10  and  S_11
REMARK    5  A    between atoms: S_11  and  C_12
REMARK    6  A    between atoms: N_20  and  C_21
REMARK    7  A    between atoms: C_21  and  C_22
REMARK    8  A    between atoms: C_26  and  C_27
REMARK                            x       y       z     vdW  Elec       q    Type
REMARK                         _______ _______ _______ _____ _____    ______ ____
ROOT
ATOM      1  C   UNL     1       3.086   2.689  19.930  0.00  0.00    +0.000 C 
ATOM      2  C   UNL     1       2.467   3.895  19.244  0.00  0.00    +0.000 C 
ATOM      3  C   UNL     1       1.008   3.621  18.835  0.00  0.00    +0.000 C 
ATOM      4  C   UNL     1       2.417   5.130  20.150  0.00  0.00    +0.000 C 
ATOM      5  O   UNL     1       2.149   5.072  21.344  0.00  0.00    +0.000 OA
ATOM      6  N   UNL     1       2.530   6.239  19.332  0.00  0.00    +0.000 N 
ATOM      7  C   UNL     1       3.098   5.854  18.133  0.00  0.00    +0.000 C 
ATOM      8  O   UNL     1       3.491   6.557  17.213  0.00  0.00    +0.000 OA
ATOM      9  N   UNL     1       3.214   4.464  18.139  0.00  0.00    +0.000 N 
ENDROOT
BRANCH   6  10
ATOM     10  C   UNL     1       2.007   7.524  19.633  0.00  0.00    +0.000 A 
ATOM     11  C   UNL     1       1.392   7.800  20.865  0.00  0.00    +0.000 A 
ATOM     12  C   UNL     1       0.700   8.995  21.084  0.00  0.00    +0.000 A 
ATOM     13  C   UNL     1       0.609   9.956  20.079  0.00  0.00    +0.000 A 
ATOM     14  C   UNL     1       1.244   9.715  18.861  0.00  0.00    +0.000 A 
ATOM     15  C   UNL     1       1.951   8.524  18.650  0.00  0.00    +0.000 A 
BRANCH  13  16
ATOM     16  S   UNL     1      -0.413  11.386  20.335  0.00  0.00    +0.000 S 
BRANCH  16  17
ATOM     17  C   UNL     1      -1.616  11.206  19.012  0.00  0.00    +0.000 C 
ATOM     18  F   UNL     1      -1.876   9.922  18.677  0.00  0.00    +0.000 F 
ATOM     19  F   UNL     1      -2.797  11.771  19.366  0.00  0.00    +0.000 F 
ATOM     20  F   UNL     1      -1.192  11.836  17.891  0.00  0.00    +0.000 F 
ENDBRANCH  16  17
ENDBRANCH  13  16
ENDBRANCH   6  10
BRANCH   9  21
ATOM     21  C   UNL     1       3.790   3.700  17.044  0.00  0.00    +0.000 C 
BRANCH  21  22
ATOM     22  C   UNL     1       5.209   4.126  16.742  0.00  0.00    +0.000 A 
ATOM     23  C   UNL     1       6.171   4.194  17.757  0.00  0.00    +0.000 A 
ATOM     24  C   UNL     1       7.471   4.550  17.431  0.00  0.00    +0.000 A 
ATOM     25  N   UNL     1       7.876   4.836  16.176  0.00  0.00    +0.000 NA
ATOM     26  C   UNL     1       6.935   4.779  15.204  0.00  0.00    +0.000 A 
ATOM     27  C   UNL     1       5.603   4.452  15.440  0.00  0.00    +0.000 A 
BRANCH  26  28
ATOM     28  C   UNL     1       7.392   5.047  13.866  0.00  0.00    +0.000 C 
ATOM     29  N   UNL     1       7.752   5.320  12.797  0.00  0.00    +0.000 NA
ENDBRANCH  26  28
ENDBRANCH  21  22
ENDBRANCH   9  21
TORSDOF 6
ENDMDL
MODEL 2
REMARK VINA RESULT:      -8.2      5.033      9.649
REMARK  Name = 
REMARK  8 active torsions:
REMARK  status: ('A' for Active; 'I' for Inactive)
REMARK    1  A    between atoms: C_1  and  C_2
REMARK    2  A    between atoms: C_2  and  C_3
REMARK    3  A    between atoms: N_6  and  C_7
REMARK    4  A    between atoms: C_10  and  S_11
REMARK    5  A    between atoms: S_11  and  C_12
REMARK    6  A    between atoms: N_20  and  C_21
REMARK    7  A    between atoms: C_21  and  C_22
REMARK    8  A    between atoms: C_26  and  C_27
REMARK                            x       y       z     vdW  Elec       q    Type
REMARK                         _______ _______ _______ _____ _____    ______ ____
ROOT
ATOM      1  C   UNL     1      -0.471  12.583  21.841  0.00  0.00    +0.000 C 
ATOM      2  C   UNL     1       0.290  11.870  20.737  0.00  0.00    +0.000 C 
ATOM      3  C   UNL     1       1.615  12.583  20.416  0.00  0.00    +0.000 C 
ATOM      4  C   UNL     1       0.673  10.435  21.115  0.00  0.00    +0.000 C 
ATOM      5  O   UNL     1       1.053  10.118  22.235  0.00  0.00    +0.000 OA
ATOM      6  N   UNL     1       0.687   9.696  19.946  0.00  0.00    +0.000 N 
ATOM      7  C   UNL     1      -0.071  10.351  18.994  0.00  0.00    +0.000 C 
ATOM      8  O   UNL     1      -0.419   9.957  17.891  0.00  0.00    +0.000 OA
ATOM      9  N   UNL     1      -0.450  11.585  19.522  0.00  0.00    +0.000 N 
ENDROOT
BRANCH   6  10
ATOM     10  C   UNL     1       1.476   8.536  19.729  0.00  0.00    +0.000 A 
ATOM     11  C   UNL     1       2.231   8.366  18.558  0.00  0.00    +0.000 A 
ATOM     12  C   UNL     1       2.842   7.146  18.254  0.00  0.00    +0.000 A 
ATOM     13  C   UNL     1       2.723   6.059  19.117  0.00  0.00    +0.000 A 
ATOM     14  C   UNL     1       2.007   6.219  20.303  0.00  0.00    +0.000 A 
ATOM     15  C   UNL     1       1.410   7.449  20.614  0.00  0.00    +0.000 A 
BRANCH  13  16
ATOM     16  S   UNL     1       3.372   4.481  18.622  0.00  0.00    +0.000 S 
BRANCH  16  17
ATOM     17  C   UNL     1       1.889   3.656  18.030  0.00  0.00    +0.000 C 
ATOM     18  F   UNL     1       1.100   3.171  19.015  0.00  0.00    +0.000 F 
ATOM     19  F   UNL     1       1.132   4.510  17.298  0.00  0.00    +0.000 F 
ATOM     20  F   UNL     1       2.210   2.616  17.224  0.00  0.00    +0.000 F 
ENDBRANCH  16  17
ENDBRANCH  13  16
ENDBRANCH   6  10
BRANCH   9  21
ATOM     21  C   UNL     1      -1.277  12.545  18.808  0.00  0.00    +0.000 C 
BRANCH  21  22
ATOM     22  C   UNL     1      -2.746  12.198  18.891  0.00  0.00    +0.000 A 
ATOM     23  C   UNL     1      -3.386  11.524  17.844  0.00  0.00    +0.000 A 
ATOM     24  C   UNL     1      -4.725  11.188  17.976  0.00  0.00    +0.000 A 
ATOM     25  N   UNL     1      -5.463  11.472  19.070  0.00  0.00    +0.000 NA
ATOM     26  C   UNL     1      -4.838  12.135  20.072  0.00  0.00    +0.000 A 
ATOM     27  C   UNL     1      -3.504  12.530  20.019  0.00  0.00    +0.000 A 
BRANCH  26  28
ATOM     28  C   UNL     1      -5.627  12.393  21.247  0.00  0.00    +0.000 C 
ATOM     29  N   UNL     1      -6.220  12.577  22.227  0.00  0.00    +0.000 NA
ENDBRANCH  26  28
ENDBRANCH  21  22
ENDBRANCH   9  21
TORSDOF 6
ENDMDL
MODEL 3
REMARK VINA RESULT:      -8.1      1.126      1.383
REMARK  Name = 
REMARK  8 active torsions:
REMARK  status: ('A' for Active; 'I' for Inactive)
REMARK    1  A    between atoms: C_1  and  C_2
REMARK    2  A    between atoms: C_2  and  C_3
REMARK    3  A    between atoms: N_6  and  C_7
REMARK    4  A    between atoms: C_10  and  S_11
REMARK    5  A    between atoms: S_11  and  C_12
REMARK    6  A    between atoms: N_20  and  C_21
REMARK    7  A    between atoms: C_21  and  C_22
REMARK    8  A    between atoms: C_26  and  C_27
REMARK                            x       y       z     vdW  Elec       q    Type
REMARK                         _______ _______ _______ _____ _____    ______ ____
ROOT
ATOM      1  C   UNL     1       2.166   2.517  19.671  0.00  0.00    +0.000 C 
ATOM      2  C   UNL     1       2.445   3.874  19.048  0.00  0.00    +0.000 C 
ATOM      3  C   UNL     1       1.919   3.946  17.602  0.00  0.00    +0.000 C 
ATOM      4  C   UNL     1       1.756   5.021  19.796  0.00  0.00    +0.000 C 
ATOM      5  O   UNL     1       0.626   4.932  20.259  0.00  0.00    +0.000 OA
ATOM      6  N   UNL     1       2.558   6.138  19.653  0.00  0.00    +0.000 N 
ATOM      7  C   UNL     1       3.838   5.732  19.328  0.00  0.00    +0.000 C 
ATOM      8  O   UNL     1       4.858   6.401  19.261  0.00  0.00    +0.000 OA
ATOM      9  N   UNL     1       3.811   4.352  19.125  0.00  0.00    +0.000 N 
ENDROOT
BRANCH   6  10
ATOM     10  C   UNL     1       2.093   7.479  19.690  0.00  0.00    +0.000 A 
ATOM     11  C   UNL     1       1.502   8.023  20.842  0.00  0.00    +0.000 A 
ATOM     12  C   UNL     1       0.864   9.267  20.817  0.00  0.00    +0.000 A 
ATOM     13  C   UNL     1       0.804  10.009  19.640  0.00  0.00    +0.000 A 
ATOM     14  C   UNL     1       1.416   9.501  18.495  0.00  0.00    +0.000 A 
ATOM     15  C   UNL     1       2.070   8.263  18.527  0.00  0.00    +0.000 A 
BRANCH  13  16
ATOM     16  S   UNL     1      -0.154  11.505  19.605  0.00  0.00    +0.000 S 
BRANCH  16  17
ATOM     17  C   UNL     1      -1.593  10.984  18.663  0.00  0.00    +0.000 C 
ATOM     18  F   UNL     1      -2.770  11.399  19.183  0.00  0.00    +0.000 F 
ATOM     19  F   UNL     1      -1.527  11.463  17.396  0.00  0.00    +0.000 F 
ATOM     20  F   UNL     1      -1.645   9.634  18.577  0.00  0.00    +0.000 F 
ENDBRANCH  16  17
ENDBRANCH  13  16
ENDBRANCH   6  10
BRANCH   9  21
ATOM     21  C   UNL     1       4.987   3.567  18.784  0.00  0.00    +0.000 C 
BRANCH  21  22
ATOM     22  C   UNL     1       5.727   4.142  17.598  0.00  0.00    +0.000 A 
ATOM     23  C   UNL     1       6.814   5.007  17.778  0.00  0.00    +0.000 A 
ATOM     24  C   UNL     1       7.491   5.481  16.665  0.00  0.00    +0.000 A 
ATOM     25  N   UNL     1       7.166   5.154  15.397  0.00  0.00    +0.000 NA
ATOM     26  C   UNL     1       6.106   4.326  15.232  0.00  0.00    +0.000 A 
ATOM     27  C   UNL     1       5.356   3.818  16.289  0.00  0.00    +0.000 A 
BRANCH  26  28
ATOM     28  C   UNL     1       5.799   3.955  13.877  0.00  0.00    +0.000 C 
ATOM     29  N   UNL     1       5.606   3.636  12.778  0.00  0.00    +0.000 NA
ENDBRANCH  26  28
ENDBRANCH  21  22
ENDBRANCH   9  21
TORSDOF 6
ENDMDL
MODEL 4
REMARK VINA RESULT:      -8.0      1.210      1.748
REMARK  Name = 
REMARK  8 active torsions:
REMARK  status: ('A' for Active; 'I' for Inactive)
REMARK    1  A    between atoms: C_1  and  C_2
REMARK    2  A    between atoms: C_2  and  C_3
REMARK    3  A    between atoms: N_6  and  C_7
REMARK    4  A    between atoms: C_10  and  S_11
REMARK    5  A    between atoms: S_11  and  C_12
REMARK    6  A    between atoms: N_20  and  C_21
REMARK    7  A    between atoms: C_21  and  C_22
REMARK    8  A    between atoms: C_26  and  C_27
REMARK                            x       y       z     vdW  Elec       q    Type
REMARK                         _______ _______ _______ _____ _____    ______ ____
ROOT
ATOM      1  C   UNL     1       2.869   2.161  19.222  0.00  0.00    +0.000 C 
ATOM      2  C   UNL     1       2.952   3.576  18.677  0.00  0.00    +0.000 C 
ATOM      3  C   UNL     1       2.462   3.645  17.219  0.00  0.00    +0.000 C 
ATOM      4  C   UNL     1       2.074   4.562  19.456  0.00  0.00    +0.000 C 
ATOM      5  O   UNL     1       0.958   4.277  19.873  0.00  0.00    +0.000 OA
ATOM      6  N   UNL     1       2.696   5.795  19.397  0.00  0.00    +0.000 N 
ATOM      7  C   UNL     1       4.033   5.607  19.098  0.00  0.00    +0.000 C 
ATOM      8  O   UNL     1       4.938   6.428  19.100  0.00  0.00    +0.000 OA
ATOM      9  N   UNL     1       4.226   4.253  18.826  0.00  0.00    +0.000 N 
ENDROOT
BRANCH   6  10
ATOM     10  C   UNL     1       2.029   7.045  19.483  0.00  0.00    +0.000 A 
ATOM     11  C   UNL     1       1.987   7.935  18.398  0.00  0.00    +0.000 A 
ATOM     12  C   UNL     1       1.511   9.241  18.543  0.00  0.00    +0.000 A 
ATOM     13  C   UNL     1       1.053   9.696  19.778  0.00  0.00    +0.000 A 
ATOM     14  C   UNL     1       1.053   8.815  20.859  0.00  0.00    +0.000 A 
ATOM     15  C   UNL     1       1.515   7.501  20.706  0.00  0.00    +0.000 A 
BRANCH  13  16
ATOM     16  S   UNL     1       0.610  11.406  19.964  0.00  0.00    +0.000 S 
BRANCH  16  17
ATOM     17  C   UNL     1      -1.088  11.400  19.376  0.00  0.00    +0.000 C 
ATOM     18  F   UNL     1      -1.970  11.956  20.238  0.00  0.00    +0.000 F 
ATOM     19  F   UNL     1      -1.188  12.083  18.209  0.00  0.00    +0.000 F 
ATOM     20  F   UNL     1      -1.506  10.134  19.135  0.00  0.00    +0.000 F 
ENDBRANCH  16  17
ENDBRANCH  13  16
ENDBRANCH   6  10
BRANCH   9  21
ATOM     21  C   UNL     1       5.518   3.677  18.489  0.00  0.00    +0.000 C 
BRANCH  21  22
ATOM     22  C   UNL     1       6.093   4.277  17.227  0.00  0.00    +0.000 A 
ATOM     23  C   UNL     1       7.004   5.339  17.285  0.00  0.00    +0.000 A 
ATOM     24  C   UNL     1       7.540   5.834  16.106  0.00  0.00    +0.000 A 
ATOM     25  N   UNL     1       7.236   5.348  14.885  0.00  0.00    +0.000 NA
ATOM     26  C   UNL     1       6.344   4.330  14.838  0.00  0.00    +0.000 A 
ATOM     27  C   UNL     1       5.741   3.782  15.967  0.00  0.00    +0.000 A 
BRANCH  26  28
ATOM     28  C   UNL     1       6.063   3.796  13.532  0.00  0.00    +0.000 C 
ATOM     29  N   UNL     1       5.783   3.390  12.481  0.00  0.00    +0.000 NA
ENDBRANCH  26  28
ENDBRANCH  21  22
ENDBRANCH   9  21
TORSDOF 6
ENDMDL
MODEL 5
REMARK VINA RESULT:      -8.0      1.682      1.835
REMARK  Name = 
REMARK  8 active torsions:
REMARK  status: ('A' for Active; 'I' for Inactive)
REMARK    1  A    between atoms: C_1  and  C_2
REMARK    2  A    between atoms: C_2  and  C_3
REMARK    3  A    between atoms: N_6  and  C_7
REMARK    4  A    between atoms: C_10  and  S_11
REMARK    5  A    between atoms: S_11  and  C_12
REMARK    6  A    between atoms: N_20  and  C_21
REMARK    7  A    between atoms: C_21  and  C_22
REMARK    8  A    between atoms: C_26  and  C_27
REMARK                            x       y       z     vdW  Elec       q    Type
REMARK                         _______ _______ _______ _____ _____    ______ ____
ROOT
ATOM      1  C   UNL     1       2.400   2.311  19.470  0.00  0.00    +0.000 C 
ATOM      2  C   UNL     1       2.615   3.719  18.943  0.00  0.00    +0.000 C 
ATOM      3  C   UNL     1       2.114   3.860  17.495  0.00  0.00    +0.000 C 
ATOM      4  C   UNL     1       1.851   4.776  19.750  0.00  0.00    +0.000 C 
ATOM      5  O   UNL     1       0.719   4.596  20.180  0.00  0.00    +0.000 OA
ATOM      6  N   UNL     1       2.593   5.941  19.699  0.00  0.00    +0.000 N 
ATOM      7  C   UNL     1       3.900   5.626  19.376  0.00  0.00    +0.000 C 
ATOM      8  O   UNL     1       4.883   6.352  19.375  0.00  0.00    +0.000 OA
ATOM      9  N   UNL     1       3.952   4.264  19.082  0.00  0.00    +0.000 N 
ENDROOT
BRANCH   6  10
ATOM     10  C   UNL     1       2.055   7.250  19.813  0.00  0.00    +0.000 A 
ATOM     11  C   UNL     1       1.408   7.681  20.982  0.00  0.00    +0.000 A 
ATOM     12  C   UNL     1       0.704   8.889  21.024  0.00  0.00    +0.000 A 
ATOM     13  C   UNL     1       0.632   9.706  19.898  0.00  0.00    +0.000 A 
ATOM     14  C   UNL     1       1.298   9.311  18.738  0.00  0.00    +0.000 A 
ATOM     15  C   UNL     1       2.017   8.109  18.705  0.00  0.00    +0.000 A 
BRANCH  13  16
ATOM     16  S   UNL     1      -0.405  11.148  19.937  0.00  0.00    +0.000 S 
BRANCH  16  17
ATOM     17  C   UNL     1       0.805  12.463  19.750  0.00  0.00    +0.000 C 
ATOM     18  F   UNL     1       1.286  12.592  18.493  0.00  0.00    +0.000 F 
ATOM     19  F   UNL     1       0.264  13.657  20.094  0.00  0.00    +0.000 F 
ATOM     20  F   UNL     1       1.866  12.256  20.567  0.00  0.00    +0.000 F 
ENDBRANCH  16  17
ENDBRANCH  13  16
ENDBRANCH   6  10
BRANCH   9  21
ATOM     21  C   UNL     1       5.176   3.567  18.717  0.00  0.00    +0.000 C 
BRANCH  21  22
ATOM     22  C   UNL     1       5.849   4.196  17.519  0.00  0.00    +0.000 A 
ATOM     23  C   UNL     1       6.811   5.201  17.679  0.00  0.00    +0.000 A 
ATOM     24  C   UNL     1       7.434   5.723  16.556  0.00  0.00    +0.000 A 
ATOM     25  N   UNL     1       7.170   5.316  15.297  0.00  0.00    +0.000 NA
ATOM     26  C   UNL     1       6.229   4.353  15.151  0.00  0.00    +0.000 A 
ATOM     27  C   UNL     1       5.539   3.785  16.218  0.00  0.00    +0.000 A 
BRANCH  26  28
ATOM     28  C   UNL     1       5.990   3.901  13.806  0.00  0.00    +0.000 C 
ATOM     29  N   UNL     1       5.854   3.523  12.718  0.00  0.00    +0.000 NA
ENDBRANCH  26  28
ENDBRANCH  21  22
ENDBRANCH   9  21
TORSDOF 6
ENDMDL
MODEL 6
REMARK VINA RESULT:      -7.9      0.728      1.364
REMARK  Name = 
REMARK  8 active torsions:
REMARK  status: ('A' for Active; 'I' for Inactive)
REMARK    1  A    between atoms: C_1  and  C_2
REMARK    2  A    between atoms: C_2  and  C_3
REMARK    3  A    between atoms: N_6  and  C_7
REMARK    4  A    between atoms: C_10  and  S_11
REMARK    5  A    between atoms: S_11  and  C_12
REMARK    6  A    between atoms: N_20  and  C_21
REMARK    7  A    between atoms: C_21  and  C_22
REMARK    8  A    between atoms: C_26  and  C_27
REMARK                            x       y       z     vdW  Elec       q    Type
REMARK                         _______ _______ _______ _____ _____    ______ ____
ROOT
ATOM      1  C   UNL     1       3.270   2.680  20.122  0.00  0.00    +0.000 C 
ATOM      2  C   UNL     1       2.533   3.809  19.423  0.00  0.00    +0.000 C 
ATOM      3  C   UNL     1       1.083   3.411  19.089  0.00  0.00    +0.000 C 
ATOM      4  C   UNL     1       2.426   5.071  20.287  0.00  0.00    +0.000 C 
ATOM      5  O   UNL     1       2.214   5.038  21.493  0.00  0.00    +0.000 OA
ATOM      6  N   UNL     1       2.420   6.153  19.427  0.00  0.00    +0.000 N 
ATOM      7  C   UNL     1       2.965   5.766  18.217  0.00  0.00    +0.000 C 
ATOM      8  O   UNL     1       3.263   6.461  17.257  0.00  0.00    +0.000 OA
ATOM      9  N   UNL     1       3.187   4.391  18.267  0.00  0.00    +0.000 N 
ENDROOT
BRANCH   6  10
ATOM     10  C   UNL     1       1.813   7.406  19.706  0.00  0.00    +0.000 A 
ATOM     11  C   UNL     1       1.802   8.446  18.763  0.00  0.00    +0.000 A 
ATOM     12  C   UNL     1       1.389   9.737  19.105  0.00  0.00    +0.000 A 
ATOM     13  C   UNL     1       0.966  10.026  20.401  0.00  0.00    +0.000 A 
ATOM     14  C   UNL     1       0.937   8.997  21.342  0.00  0.00    +0.000 A 
ATOM     15  C   UNL     1       1.334   7.700  20.991  0.00  0.00    +0.000 A 
BRANCH  13  16
ATOM     16  S   UNL     1       0.606  11.709  20.842  0.00  0.00    +0.000 S 
BRANCH  16  17
ATOM     17  C   UNL     1      -1.123  11.839  20.371  0.00  0.00    +0.000 C 
ATOM     18  F   UNL     1      -1.394  12.885  19.560  0.00  0.00    +0.000 F 
ATOM     19  F   UNL     1      -1.522  10.717  19.722  0.00  0.00    +0.000 F 
ATOM     20  F   UNL     1      -1.908  11.966  21.468  0.00  0.00    +0.000 F 
ENDBRANCH  16  17
ENDBRANCH  13  16
ENDBRANCH   6  10
BRANCH   9  21
ATOM     21  C   UNL     1       3.773   3.631  17.174  0.00  0.00    +0.000 C 
BRANCH  21  22
ATOM     22  C   UNL     1       5.182   4.083  16.862  0.00  0.00    +0.000 A 
ATOM     23  C   UNL     1       6.145   4.186  17.873  0.00  0.00    +0.000 A 
ATOM     24  C   UNL     1       7.436   4.566  17.538  0.00  0.00    +0.000 A 
ATOM     25  N   UNL     1       7.831   4.844  16.279  0.00  0.00    +0.000 NA
ATOM     26  C   UNL     1       6.889   4.754  15.310  0.00  0.00    +0.000 A 
ATOM     27  C   UNL     1       5.565   4.400  15.554  0.00  0.00    +0.000 A 
BRANCH  26  28
ATOM     28  C   UNL     1       7.336   5.013  13.967  0.00  0.00    +0.000 C 
ATOM     29  N   UNL     1       7.717   5.275  12.903  0.00  0.00    +0.000 NA
ENDBRANCH  26  28
ENDBRANCH  21  22
ENDBRANCH   9  21
TORSDOF 6
ENDMDL
MODEL 7
REMARK VINA RESULT:      -7.9      1.670      1.819
REMARK  Name = 
REMARK  8 active torsions:
REMARK  status: ('A' for Active; 'I' for Inactive)
REMARK    1  A    between atoms: C_1  and  C_2
REMARK    2  A    between atoms: C_2  and  C_3
REMARK    3  A    between atoms: N_6  and  C_7
REMARK    4  A    between atoms: C_10  and  S_11
REMARK    5  A    between atoms: S_11  and  C_12
REMARK    6  A    between atoms: N_20  and  C_21
REMARK    7  A    between atoms: C_21  and  C_22
REMARK    8  A    between atoms: C_26  and  C_27
REMARK                            x       y       z     vdW  Elec       q    Type
REMARK                         _______ _______ _______ _____ _____    ______ ____
ROOT
ATOM      1  C   UNL     1       3.303   2.673  20.078  0.00  0.00    +0.000 C 
ATOM      2  C   UNL     1       2.496   3.828  19.511  0.00  0.00    +0.000 C 
ATOM      3  C   UNL     1       1.038   3.415  19.241  0.00  0.00    +0.000 C 
ATOM      4  C   UNL     1       2.417   5.022  20.470  0.00  0.00    +0.000 C 
ATOM      5  O   UNL     1       2.284   4.897  21.681  0.00  0.00    +0.000 OA
ATOM      6  N   UNL     1       2.330   6.162  19.693  0.00  0.00    +0.000 N 
ATOM      7  C   UNL     1       2.804   5.878  18.426  0.00  0.00    +0.000 C 
ATOM      8  O   UNL     1       3.024   6.647  17.502  0.00  0.00    +0.000 OA
ATOM      9  N   UNL     1       3.061   4.509  18.361  0.00  0.00    +0.000 N 
ENDROOT
BRANCH   6  10
ATOM     10  C   UNL     1       1.713   7.375  20.100  0.00  0.00    +0.000 A 
ATOM     11  C   UNL     1       0.835   7.424  21.195  0.00  0.00    +0.000 A 
ATOM     12  C   UNL     1       0.075   8.565  21.470  0.00  0.00    +0.000 A 
ATOM     13  C   UNL     1       0.177   9.696  20.663  0.00  0.00    +0.000 A 
ATOM     14  C   UNL     1       1.070   9.678  19.592  0.00  0.00    +0.000 A 
ATOM     15  C   UNL     1       1.843   8.539  19.329  0.00  0.00    +0.000 A 
BRANCH  13  16
ATOM     16  S   UNL     1      -0.921  11.064  20.943  0.00  0.00    +0.000 S 
BRANCH  16  17
ATOM     17  C   UNL     1      -0.858  11.210  22.733  0.00  0.00    +0.000 C 
ATOM     18  F   UNL     1       0.052  10.401  23.319  0.00  0.00    +0.000 F 
ATOM     19  F   UNL     1      -0.551  12.481  23.094  0.00  0.00    +0.000 F 
ATOM     20  F   UNL     1      -2.064  10.921  23.279  0.00  0.00    +0.000 F 
ENDBRANCH  16  17
ENDBRANCH  13  16
ENDBRANCH   6  10
BRANCH   9  21
ATOM     21  C   UNL     1       3.592   3.845  17.181  0.00  0.00    +0.000 C 
BRANCH  21  22
ATOM     22  C   UNL     1       5.032   4.224  16.919  0.00  0.00    +0.000 A 
ATOM     23  C   UNL     1       5.968   4.258  17.960  0.00  0.00    +0.000 A 
ATOM     24  C   UNL     1       7.287   4.571  17.671  0.00  0.00    +0.000 A 
ATOM     25  N   UNL     1       7.735   4.847  16.429  0.00  0.00    +0.000 NA
ATOM     26  C   UNL     1       6.820   4.824  15.431  0.00  0.00    +0.000 A 
ATOM     27  C   UNL     1       5.472   4.540  15.630  0.00  0.00    +0.000 A 
BRANCH  26  28
ATOM     28  C   UNL     1       7.322   5.080  14.107  0.00  0.00    +0.000 C 
ATOM     29  N   UNL     1       7.719   5.230  13.027  0.00  0.00    +0.000 NA
ENDBRANCH  26  28
ENDBRANCH  21  22
ENDBRANCH   9  21
TORSDOF 6
ENDMDL
MODEL 8
REMARK VINA RESULT:      -7.8      4.948      8.706
REMARK  Name = 
REMARK  8 active torsions:
REMARK  status: ('A' for Active; 'I' for Inactive)
REMARK    1  A    between atoms: C_1  and  C_2
REMARK    2  A    between atoms: C_2  and  C_3
REMARK    3  A    between atoms: N_6  and  C_7
REMARK    4  A    between atoms: C_10  and  S_11
REMARK    5  A    between atoms: S_11  and  C_12
REMARK    6  A    between atoms: N_20  and  C_21
REMARK    7  A    between atoms: C_21  and  C_22
REMARK    8  A    between atoms: C_26  and  C_27
REMARK                            x       y       z     vdW  Elec       q    Type
REMARK                         _______ _______ _______ _____ _____    ______ ____
ROOT
ATOM      1  C   UNL     1      -0.922  11.619  21.661  0.00  0.00    +0.000 C 
ATOM      2  C   UNL     1       0.170  11.054  20.768  0.00  0.00    +0.000 C 
ATOM      3  C   UNL     1       1.510  11.776  20.996  0.00  0.00    +0.000 C 
ATOM      4  C   UNL     1       0.448   9.571  21.039  0.00  0.00    +0.000 C 
ATOM      5  O   UNL     1       0.456   9.089  22.165  0.00  0.00    +0.000 OA
ATOM      6  N   UNL     1       0.854   9.009  19.843  0.00  0.00    +0.000 N 
ATOM      7  C   UNL     1       0.425   9.811  18.803  0.00  0.00    +0.000 C 
ATOM      8  O   UNL     1       0.459   9.588  17.602  0.00  0.00    +0.000 OA
ATOM      9  N   UNL     1      -0.134  10.964  19.353  0.00  0.00    +0.000 N 
ENDROOT
BRANCH   6  10
ATOM     10  C   UNL     1       1.700   7.874  19.728  0.00  0.00    +0.000 A 
ATOM     11  C   UNL     1       2.573   7.714  18.640  0.00  0.00    +0.000 A 
ATOM     12  C   UNL     1       3.252   6.511  18.421  0.00  0.00    +0.000 A 
ATOM     13  C   UNL     1       3.084   5.434  19.287  0.00  0.00    +0.000 A 
ATOM     14  C   UNL     1       2.247   5.586  20.393  0.00  0.00    +0.000 A 
ATOM     15  C   UNL     1       1.582   6.798  20.620  0.00  0.00    +0.000 A 
BRANCH  13  16
ATOM     16  S   UNL     1       3.832   3.873  18.888  0.00  0.00    +0.000 S 
BRANCH  16  17
ATOM     17  C   UNL     1       2.402   2.915  18.369  0.00  0.00    +0.000 C 
ATOM     18  F   UNL     1       1.704   2.373  19.391  0.00  0.00    +0.000 F 
ATOM     19  F   UNL     1       1.541   3.693  17.667  0.00  0.00    +0.000 F 
ATOM     20  F   UNL     1       2.777   1.900  17.554  0.00  0.00    +0.000 F 
ENDBRANCH  16  17
ENDBRANCH  13  16
ENDBRANCH   6  10
BRANCH   9  21
ATOM     21  C   UNL     1      -0.712  12.036  18.557  0.00  0.00    +0.000 C 
BRANCH  21  22
ATOM     22  C   UNL     1      -2.073  11.665  18.013  0.00  0.00    +0.000 A 
ATOM     23  C   UNL     1      -3.229  11.844  18.783  0.00  0.00    +0.000 A 
ATOM     24  C   UNL     1      -4.462  11.530  18.232  0.00  0.00    +0.000 A 
ATOM     25  N   UNL     1      -4.622  11.056  16.979  0.00  0.00    +0.000 NA
ATOM     26  C   UNL     1      -3.497  10.875  16.246  0.00  0.00    +0.000 A 
ATOM     27  C   UNL     1      -2.217  11.144  16.723  0.00  0.00    +0.000 A 
BRANCH  26  28
ATOM     28  C   UNL     1      -3.689  10.409  14.899  0.00  0.00    +0.000 C 
ATOM     29  N   UNL     1      -3.800  10.069  13.795  0.00  0.00    +0.000 NA
ENDBRANCH  26  28
ENDBRANCH  21  22
ENDBRANCH   9  21
TORSDOF 6
ENDMDL
MODEL 9
REMARK VINA RESULT:      -7.7      1.319      1.534
REMARK  Name = 
REMARK  8 active torsions:
REMARK  status: ('A' for Active; 'I' for Inactive)
REMARK    1  A    between atoms: C_1  and  C_2
REMARK    2  A    between atoms: C_2  and  C_3
REMARK    3  A    between atoms: N_6  and  C_7
REMARK    4  A    between atoms: C_10  and  S_11
REMARK    5  A    between atoms: S_11  and  C_12
REMARK    6  A    between atoms: N_20  and  C_21
REMARK    7  A    between atoms: C_21  and  C_22
REMARK    8  A    between atoms: C_26  and  C_27
REMARK                            x       y       z     vdW  Elec       q    Type
REMARK                         _______ _______ _______ _____ _____    ______ ____
ROOT
ATOM      1  C   UNL     1       2.376   2.184  19.255  0.00  0.00    +0.000 C 
ATOM      2  C   UNL     1       2.606   3.628  18.844  0.00  0.00    +0.000 C 
ATOM      3  C   UNL     1       2.130   3.883  17.402  0.00  0.00    +0.000 C 
ATOM      4  C   UNL     1       1.831   4.622  19.717  0.00  0.00    +0.000 C 
ATOM      5  O   UNL     1       0.691   4.415  20.113  0.00  0.00    +0.000 OA
ATOM      6  N   UNL     1       2.578   5.785  19.769  0.00  0.00    +0.000 N 
ATOM      7  C   UNL     1       3.889   5.489  19.445  0.00  0.00    +0.000 C 
ATOM      8  O   UNL     1       4.874   6.209  19.517  0.00  0.00    +0.000 OA
ATOM      9  N   UNL     1       3.942   4.154  19.046  0.00  0.00    +0.000 N 
ENDROOT
BRANCH   6  10
ATOM     10  C   UNL     1       2.042   7.083  19.976  0.00  0.00    +0.000 A 
ATOM     11  C   UNL     1       1.402   7.434  21.175  0.00  0.00    +0.000 A 
ATOM     12  C   UNL     1       0.700   8.636  21.303  0.00  0.00    +0.000 A 
ATOM     13  C   UNL     1       0.623   9.529  20.237  0.00  0.00    +0.000 A 
ATOM     14  C   UNL     1       1.283   9.214  19.049  0.00  0.00    +0.000 A 
ATOM     15  C   UNL     1       2.001   8.017  18.929  0.00  0.00    +0.000 A 
BRANCH  13  16
ATOM     16  S   UNL     1      -0.412  10.966  20.380  0.00  0.00    +0.000 S 
BRANCH  16  17
ATOM     17  C   UNL     1      -0.334  11.629  18.712  0.00  0.00    +0.000 C 
ATOM     18  F   UNL     1       0.914  11.962  18.311  0.00  0.00    +0.000 F 
ATOM     19  F   UNL     1      -0.810  10.725  17.820  0.00  0.00    +0.000 F 
ATOM     20  F   UNL     1      -1.101  12.740  18.602  0.00  0.00    +0.000 F 
ENDBRANCH  16  17
ENDBRANCH  13  16
ENDBRANCH   6  10
BRANCH   9  21
ATOM     21  C   UNL     1       5.169   3.482  18.649  0.00  0.00    +0.000 C 
BRANCH  21  22
ATOM     22  C   UNL     1       5.829   4.160  17.470  0.00  0.00    +0.000 A 
ATOM     23  C   UNL     1       6.725   5.219  17.657  0.00  0.00    +0.000 A 
ATOM     24  C   UNL     1       7.339   5.787  16.552  0.00  0.00    +0.000 A 
ATOM     25  N   UNL     1       7.127   5.376  15.285  0.00  0.00    +0.000 NA
ATOM     26  C   UNL     1       6.249   4.359  15.112  0.00  0.00    +0.000 A 
ATOM     27  C   UNL     1       5.571   3.742  16.160  0.00  0.00    +0.000 A 
BRANCH  26  28
ATOM     28  C   UNL     1       6.066   3.905  13.759  0.00  0.00    +0.000 C 
ATOM     29  N   UNL     1       5.868   3.514  12.685  0.00  0.00    +0.000 NA
ENDBRANCH  26  28
ENDBRANCH  21  22
ENDBRANCH   9  21
TORSDOF 6
ENDMDL
