MODEL 1
REMARK VINA RESULT:      -8.6      0.000      0.000
REMARK  Name = 
REMARK  4 active torsions:
REMARK  status: ('A' for Active; 'I' for Inactive)
REMARK    1  A    between atoms: C_1  and  C_2
REMARK    2  A    between atoms: C_2  and  C_3
REMARK    3  A    between atoms: C_2  and  N_4
REMARK    4  A    between atoms: C_6  and  C_7
REMARK                            x       y       z     vdW  Elec       q    Type
REMARK                         _______ _______ _______ _____ _____    ______ ____
ROOT
ATOM      1  N   UNL     1       4.558   4.576  17.116  0.00  0.00    +0.000 N 
ATOM      2  N   UNL     1       4.121   5.839  17.301  0.00  0.00    +0.000 NA
ATOM      3  C   UNL     1       3.085   5.717  18.158  0.00  0.00    +0.000 A 
ATOM      4  C   UNL     1       2.818   4.339  18.450  0.00  0.00    +0.000 A 
ATOM      5  C   UNL     1       1.917   3.565  19.202  0.00  0.00    +0.000 A 
ATOM      6  N   UNL     1       0.843   4.050  19.934  0.00  0.00    +0.000 N 
ATOM      7  N   UNL     1       2.082   2.225  19.232  0.00  0.00    +0.000 NA
ATOM      8  C   UNL     1       3.094   1.683  18.533  0.00  0.00    +0.000 A 
ATOM      9  N   UNL     1       3.998   2.311  17.772  0.00  0.00    +0.000 NA
ATOM     10  C   UNL     1       3.804   3.642  17.771  0.00  0.00    +0.000 A 
ATOM     11  H   UNL     1       0.374   4.851  19.530  0.00  0.00    +0.000 HD
ATOM     12  H   UNL     1       0.238   3.291  20.228  0.00  0.00    +0.000 HD
ENDROOT
BRANCH   3  13
ATOM     13  C   UNL     1       2.430   6.923  18.681  0.00  0.00    +0.000 A 
ATOM     14  C   UNL     1       2.138   7.039  20.067  0.00  0.00    +0.000 A 
ATOM     15  C   UNL     1       1.534   8.174  20.614  0.00  0.00    +0.000 A 
ATOM     16  C   UNL     1       1.316   9.217  19.754  0.00  0.00    +0.000 A 
ATOM     17  N   UNL     1       0.856  10.497  20.026  0.00  0.00    +0.000 N 
ATOM     18  C   UNL     1       0.914  11.248  18.845  0.00  0.00    +0.000 A 
ATOM     19  O   UNL     1       0.640  12.432  18.724  0.00  0.00    +0.000 OA
ATOM     20  N   UNL     1       1.364  10.386  17.837  0.00  0.00    +0.000 N 
ATOM     21  C   UNL     1       1.629   9.140  18.399  0.00  0.00    +0.000 A 
ATOM     22  C   UNL     1       2.159   8.008  17.826  0.00  0.00    +0.000 A 
ATOM     23  H   UNL     1       0.611  10.880  20.924  0.00  0.00    +0.000 HD
ATOM     24  H   UNL     1       1.544  10.677  16.889  0.00  0.00    +0.000 HD
ENDBRANCH   3  13
BRANCH   1  26
ATOM     25  C   UNL     1       5.705   5.018  14.964  0.00  0.00    +0.000 C 
ATOM     26  C   UNL     1       5.755   4.316  16.319  0.00  0.00    +0.000 C 
ATOM     27  C   UNL     1       7.027   4.683  17.084  0.00  0.00    +0.000 C 
ENDBRANCH   1  26
TORSDOF 2
ENDMDL
MODEL 2
REMARK VINA RESULT:      -8.6      1.147      1.753
REMARK  Name = 
REMARK  4 active torsions:
REMARK  status: ('A' for Active; 'I' for Inactive)
REMARK    1  A    between atoms: C_1  and  C_2
REMARK    2  A    between atoms: C_2  and  C_3
REMARK    3  A    between atoms: C_2  and  N_4
REMARK    4  A    between atoms: C_6  and  C_7
REMARK                            x       y       z     vdW  Elec       q    Type
REMARK                         _______ _______ _______ _____ _____    ______ ____
ROOT
ATOM      1  N   UNL     1       4.523   4.573  17.141  0.00  0.00    +0.000 N 
ATOM      2  N   UNL     1       4.137   5.855  17.313  0.00  0.00    +0.000 NA
ATOM      3  C   UNL     1       3.105   5.785  18.181  0.00  0.00    +0.000 A 
ATOM      4  C   UNL     1       2.789   4.422  18.496  0.00  0.00    +0.000 A 
ATOM      5  C   UNL     1       1.867   3.693  19.266  0.00  0.00    +0.000 A 
ATOM      6  N   UNL     1       0.820   4.229  20.002  0.00  0.00    +0.000 N 
ATOM      7  N   UNL     1       1.981   2.349  19.314  0.00  0.00    +0.000 NA
ATOM      8  C   UNL     1       2.965   1.758  18.612  0.00  0.00    +0.000 A 
ATOM      9  N   UNL     1       3.884   2.340  17.834  0.00  0.00    +0.000 NA
ATOM     10  C   UNL     1       3.741   3.678  17.817  0.00  0.00    +0.000 A 
ATOM     11  H   UNL     1       0.378   5.042  19.592  0.00  0.00    +0.000 HD
ATOM     12  H   UNL     1       0.189   3.498  20.313  0.00  0.00    +0.000 HD
ENDROOT
BRANCH   3  13
ATOM     13  C   UNL     1       2.503   7.022  18.693  0.00  0.00    +0.000 A 
ATOM     14  C   UNL     1       2.120   8.059  17.800  0.00  0.00    +0.000 A 
ATOM     15  C   UNL     1       1.526   9.245  18.238  0.00  0.00    +0.000 A 
ATOM     16  C   UNL     1       1.247   9.324  19.576  0.00  0.00    +0.000 A 
ATOM     17  N   UNL     1       0.559  10.305  20.273  0.00  0.00    +0.000 N 
ATOM     18  C   UNL     1       0.420   9.889  21.603  0.00  0.00    +0.000 A 
ATOM     19  O   UNL     1      -0.181  10.478  22.489  0.00  0.00    +0.000 OA
ATOM     20  N   UNL     1       1.085   8.661  21.716  0.00  0.00    +0.000 N 
ATOM     21  C   UNL     1       1.579   8.304  20.465  0.00  0.00    +0.000 A 
ATOM     22  C   UNL     1       2.227   7.158  20.067  0.00  0.00    +0.000 A 
ATOM     23  H   UNL     1       0.133  11.137  19.897  0.00  0.00    +0.000 HD
ATOM     24  H   UNL     1       1.104   8.110  22.559  0.00  0.00    +0.000 HD
ENDBRANCH   3  13
BRANCH   1  26
ATOM     25  C   UNL     1       5.587   4.803  14.914  0.00  0.00    +0.000 C 
ATOM     26  C   UNL     1       5.702   4.257  16.336  0.00  0.00    +0.000 C 
ATOM     27  C   UNL     1       6.986   4.739  17.011  0.00  0.00    +0.000 C 
ENDBRANCH   1  26
TORSDOF 2
ENDMDL
MODEL 3
REMARK VINA RESULT:      -8.3      1.479      1.985
REMARK  Name = 
REMARK  4 active torsions:
REMARK  status: ('A' for Active; 'I' for Inactive)
REMARK    1  A    between atoms: C_1  and  C_2
REMARK    2  A    between atoms: C_2  and  C_3
REMARK    3  A    between atoms: C_2  and  N_4
REMARK    4  A    between atoms: C_6  and  C_7
REMARK                            x       y       z     vdW  Elec       q    Type
REMARK                         _______ _______ _______ _____ _____    ______ ____
ROOT
ATOM      1  N   UNL     1       5.312   5.023  18.473  0.00  0.00    +0.000 N 
ATOM      2  N   UNL     1       4.734   6.221  18.249  0.00  0.00    +0.000 NA
ATOM      3  C   UNL     1       3.547   6.151  18.888  0.00  0.00    +0.000 A 
ATOM      4  C   UNL     1       3.345   4.850  19.456  0.00  0.00    +0.000 A 
ATOM      5  C   UNL     1       2.369   4.145  20.183  0.00  0.00    +0.000 A 
ATOM      6  N   UNL     1       1.121   4.627  20.546  0.00  0.00    +0.000 N 
ATOM      7  N   UNL     1       2.641   2.883  20.578  0.00  0.00    +0.000 NA
ATOM      8  C   UNL     1       3.829   2.345  20.249  0.00  0.00    +0.000 A 
ATOM      9  N   UNL     1       4.821   2.906  19.548  0.00  0.00    +0.000 NA
ATOM     10  C   UNL     1       4.515   4.163  19.179  0.00  0.00    +0.000 A 
ATOM     11  H   UNL     1       0.685   5.245  19.872  0.00  0.00    +0.000 HD
ATOM     12  H   UNL     1       0.534   3.877  20.894  0.00  0.00    +0.000 HD
ENDROOT
BRANCH   3  13
ATOM     13  C   UNL     1       2.688   7.340  18.955  0.00  0.00    +0.000 A 
ATOM     14  C   UNL     1       2.396   8.084  17.780  0.00  0.00    +0.000 A 
ATOM     15  C   UNL     1       1.570   9.210  17.791  0.00  0.00    +0.000 A 
ATOM     16  C   UNL     1       0.976   9.513  18.987  0.00  0.00    +0.000 A 
ATOM     17  N   UNL     1       0.024  10.480  19.275  0.00  0.00    +0.000 N 
ATOM     18  C   UNL     1      -0.369  10.330  20.610  0.00  0.00    +0.000 A 
ATOM     19  O   UNL     1      -1.232  10.973  21.190  0.00  0.00    +0.000 OA
ATOM     20  N   UNL     1       0.402   9.291  21.147  0.00  0.00    +0.000 N 
ATOM     21  C   UNL     1       1.218   8.776  20.144  0.00  0.00    +0.000 A 
ATOM     22  C   UNL     1       2.082   7.707  20.171  0.00  0.00    +0.000 A 
ATOM     23  H   UNL     1      -0.405  11.126  18.632  0.00  0.00    +0.000 HD
ATOM     24  H   UNL     1       0.293   8.939  22.085  0.00  0.00    +0.000 HD
ENDBRANCH   3  13
BRANCH   1  26
ATOM     25  C   UNL     1       6.735   4.490  16.516  0.00  0.00    +0.000 C 
ATOM     26  C   UNL     1       6.676   4.760  18.018  0.00  0.00    +0.000 C 
ATOM     27  C   UNL     1       7.624   5.892  18.413  0.00  0.00    +0.000 C 
ENDBRANCH   1  26
TORSDOF 2
ENDMDL
MODEL 4
REMARK VINA RESULT:      -8.1      1.321      1.414
REMARK  Name = 
REMARK  4 active torsions:
REMARK  status: ('A' for Active; 'I' for Inactive)
REMARK    1  A    between atoms: C_1  and  C_2
REMARK    2  A    between atoms: C_2  and  C_3
REMARK    3  A    between atoms: C_2  and  N_4
REMARK    4  A    between atoms: C_6  and  C_7
REMARK                            x       y       z     vdW  Elec       q    Type
REMARK                         _______ _______ _______ _____ _____    ______ ____
ROOT
ATOM      1  N   UNL     1       5.237   5.305  18.584  0.00  0.00    +0.000 N 
ATOM      2  N   UNL     1       4.526   6.450  18.521  0.00  0.00    +0.000 NA
ATOM      3  C   UNL     1       3.392   6.185  19.203  0.00  0.00    +0.000 A 
ATOM      4  C   UNL     1       3.360   4.817  19.633  0.00  0.00    +0.000 A 
ATOM      5  C   UNL     1       2.507   3.938  20.324  0.00  0.00    +0.000 A 
ATOM      6  N   UNL     1       1.239   4.240  20.797  0.00  0.00    +0.000 N 
ATOM      7  N   UNL     1       2.931   2.679  20.565  0.00  0.00    +0.000 NA
ATOM      8  C   UNL     1       4.147   2.311  20.123  0.00  0.00    +0.000 A 
ATOM      9  N   UNL     1       5.033   3.047  19.442  0.00  0.00    +0.000 NA
ATOM     10  C   UNL     1       4.577   4.295  19.228  0.00  0.00    +0.000 A 
ATOM     11  H   UNL     1       0.702   4.873  20.215  0.00  0.00    +0.000 HD
ATOM     12  H   UNL     1       0.755   3.398  21.088  0.00  0.00    +0.000 HD
ENDROOT
BRANCH   3  13
ATOM     13  C   UNL     1       2.420   7.259  19.441  0.00  0.00    +0.000 A 
ATOM     14  C   UNL     1       1.884   7.468  20.741  0.00  0.00    +0.000 A 
ATOM     15  C   UNL     1       0.971   8.488  21.020  0.00  0.00    +0.000 A 
ATOM     16  C   UNL     1       0.683   9.341  19.988  0.00  0.00    +0.000 A 
ATOM     17  N   UNL     1      -0.076  10.502  19.995  0.00  0.00    +0.000 N 
ATOM     18  C   UNL     1       0.017  11.099  18.732  0.00  0.00    +0.000 A 
ATOM     19  O   UNL     1      -0.478  12.164  18.394  0.00  0.00    +0.000 OA
ATOM     20  N   UNL     1       0.800  10.252  17.938  0.00  0.00    +0.000 N 
ATOM     21  C   UNL     1       1.225   9.178  18.716  0.00  0.00    +0.000 A 
ATOM     22  C   UNL     1       2.071   8.140  18.401  0.00  0.00    +0.000 A 
ATOM     23  H   UNL     1      -0.542  10.923  20.783  0.00  0.00    +0.000 HD
ATOM     24  H   UNL     1       1.069  10.461  16.990  0.00  0.00    +0.000 HD
ENDBRANCH   3  13
BRANCH   1  26
ATOM     25  C   UNL     1       6.648   5.724  16.590  0.00  0.00    +0.000 C 
ATOM     26  C   UNL     1       6.592   5.243  18.039  0.00  0.00    +0.000 C 
ATOM     27  C   UNL     1       7.583   6.010  18.914  0.00  0.00    +0.000 C 
ENDBRANCH   1  26
TORSDOF 2
ENDMDL
MODEL 5
REMARK VINA RESULT:      -8.1      0.703      1.021
REMARK  Name = 
REMARK  4 active torsions:
REMARK  status: ('A' for Active; 'I' for Inactive)
REMARK    1  A    between atoms: C_1  and  C_2
REMARK    2  A    between atoms: C_2  and  C_3
REMARK    3  A    between atoms: C_2  and  N_4
REMARK    4  A    between atoms: C_6  and  C_7
REMARK                            x       y       z     vdW  Elec       q    Type
REMARK                         _______ _______ _______ _____ _____    ______ ____
ROOT
ATOM      1  N   UNL     1       4.779   5.462  16.909  0.00  0.00    +0.000 N 
ATOM      2  N   UNL     1       4.203   6.641  17.225  0.00  0.00    +0.000 NA
ATOM      3  C   UNL     1       3.168   6.310  18.025  0.00  0.00    +0.000 A 
ATOM      4  C   UNL     1       3.047   4.887  18.147  0.00  0.00    +0.000 A 
ATOM      5  C   UNL     1       2.218   3.938  18.772  0.00  0.00    +0.000 A 
ATOM      6  N   UNL     1       1.083   4.216  19.519  0.00  0.00    +0.000 N 
ATOM      7  N   UNL     1       2.528   2.629  18.653  0.00  0.00    +0.000 NA
ATOM      8  C   UNL     1       3.608   2.283  17.931  0.00  0.00    +0.000 A 
ATOM      9  N   UNL     1       4.454   3.089  17.279  0.00  0.00    +0.000 NA
ATOM     10  C   UNL     1       4.117   4.383  17.426  0.00  0.00    +0.000 A 
ATOM     11  H   UNL     1       0.538   5.006  19.195  0.00  0.00    +0.000 HD
ATOM     12  H   UNL     1       0.557   3.369  19.702  0.00  0.00    +0.000 HD
ENDROOT
BRANCH   3  13
ATOM     13  C   UNL     1       2.375   7.370  18.661  0.00  0.00    +0.000 A 
ATOM     14  C   UNL     1       2.128   7.341  20.061  0.00  0.00    +0.000 A 
ATOM     15  C   UNL     1       1.396   8.335  20.714  0.00  0.00    +0.000 A 
ATOM     16  C   UNL     1       0.999   9.397  19.946  0.00  0.00    +0.000 A 
ATOM     17  N   UNL     1       0.378  10.576  20.331  0.00  0.00    +0.000 N 
ATOM     18  C   UNL     1       0.281  11.412  19.212  0.00  0.00    +0.000 A 
ATOM     19  O   UNL     1      -0.160  12.551  19.193  0.00  0.00    +0.000 OA
ATOM     20  N   UNL     1       0.804  10.699  18.126  0.00  0.00    +0.000 N 
ATOM     21  C   UNL     1       1.262   9.466  18.580  0.00  0.00    +0.000 A 
ATOM     22  C   UNL     1       1.920   8.465  17.903  0.00  0.00    +0.000 A 
ATOM     23  H   UNL     1       0.120  10.854  21.264  0.00  0.00    +0.000 HD
ATOM     24  H   UNL     1       0.901  11.081  17.199  0.00  0.00    +0.000 HD
ENDBRANCH   3  13
BRANCH   1  26
ATOM     25  C   UNL     1       7.144   4.725  16.881  0.00  0.00    +0.000 C 
ATOM     26  C   UNL     1       6.014   5.426  16.129  0.00  0.00    +0.000 C 
ATOM     27  C   UNL     1       5.790   4.795  14.755  0.00  0.00    +0.000 C 
ENDBRANCH   1  26
TORSDOF 2
ENDMDL
MODEL 6
REMARK VINA RESULT:      -7.9      1.550      3.593
REMARK  Name = 
REMARK  4 active torsions:
REMARK  status: ('A' for Active; 'I' for Inactive)
REMARK    1  A    between atoms: C_1  and  C_2
REMARK    2  A    between atoms: C_2  and  C_3
REMARK    3  A    between atoms: C_2  and  N_4
REMARK    4  A    between atoms: C_6  and  C_7
REMARK                            x       y       z     vdW  Elec       q    Type
REMARK                         _______ _______ _______ _____ _____    ______ ____
ROOT
ATOM      1  N   UNL     1       2.919   3.766  17.923  0.00  0.00    +0.000 N 
ATOM      2  N   UNL     1       2.242   4.743  18.562  0.00  0.00    +0.000 NA
ATOM      3  C   UNL     1       2.926   5.872  18.279  0.00  0.00    +0.000 A 
ATOM      4  C   UNL     1       4.102   5.581  17.511  0.00  0.00    +0.000 A 
ATOM      5  C   UNL     1       5.197   6.256  16.943  0.00  0.00    +0.000 A 
ATOM      6  N   UNL     1       5.464   7.612  17.059  0.00  0.00    +0.000 N 
ATOM      7  N   UNL     1       6.087   5.549  16.215  0.00  0.00    +0.000 NA
ATOM      8  C   UNL     1       5.899   4.225  16.071  0.00  0.00    +0.000 A 
ATOM      9  N   UNL     1       4.914   3.475  16.577  0.00  0.00    +0.000 NA
ATOM     10  C   UNL     1       4.045   4.215  17.290  0.00  0.00    +0.000 A 
ATOM     11  H   UNL     1       5.214   8.026  17.949  0.00  0.00    +0.000 HD
ATOM     12  H   UNL     1       6.399   7.823  16.727  0.00  0.00    +0.000 HD
ENDROOT
BRANCH   3  13
ATOM     13  C   UNL     1       2.401   7.169  18.723  0.00  0.00    +0.000 A 
ATOM     14  C   UNL     1       2.077   8.176  17.773  0.00  0.00    +0.000 A 
ATOM     15  C   UNL     1       1.558   9.419  18.145  0.00  0.00    +0.000 A 
ATOM     16  C   UNL     1       1.289   9.587  19.477  0.00  0.00    +0.000 A 
ATOM     17  N   UNL     1       0.664  10.646  20.119  0.00  0.00    +0.000 N 
ATOM     18  C   UNL     1       0.505  10.313  21.470  0.00  0.00    +0.000 A 
ATOM     19  O   UNL     1      -0.056  10.985  22.322  0.00  0.00    +0.000 OA
ATOM     20  N   UNL     1       1.096   9.056  21.651  0.00  0.00    +0.000 N 
ATOM     21  C   UNL     1       1.563   8.601  20.421  0.00  0.00    +0.000 A 
ATOM     22  C   UNL     1       2.139   7.398  20.086  0.00  0.00    +0.000 A 
ATOM     23  H   UNL     1       0.287  11.480  19.697  0.00  0.00    +0.000 HD
ATOM     24  H   UNL     1       1.085   8.551  22.523  0.00  0.00    +0.000 HD
ENDBRANCH   3  13
BRANCH   1  26
ATOM     25  C   UNL     1       3.410   1.408  18.503  0.00  0.00    +0.000 C 
ATOM     26  C   UNL     1       2.408   2.397  17.911  0.00  0.00    +0.000 C 
ATOM     27  C   UNL     1       1.054   2.298  18.614  0.00  0.00    +0.000 C 
ENDBRANCH   1  26
TORSDOF 2
ENDMDL
MODEL 7
REMARK VINA RESULT:      -7.9      3.275      6.306
REMARK  Name = 
REMARK  4 active torsions:
REMARK  status: ('A' for Active; 'I' for Inactive)
REMARK    1  A    between atoms: C_1  and  C_2
REMARK    2  A    between atoms: C_2  and  C_3
REMARK    3  A    between atoms: C_2  and  N_4
REMARK    4  A    between atoms: C_6  and  C_7
REMARK                            x       y       z     vdW  Elec       q    Type
REMARK                         _______ _______ _______ _____ _____    ______ ____
ROOT
ATOM      1  N   UNL     1       2.394   6.698  19.730  0.00  0.00    +0.000 N 
ATOM      2  N   UNL     1       3.284   6.963  18.750  0.00  0.00    +0.000 NA
ATOM      3  C   UNL     1       3.945   5.800  18.569  0.00  0.00    +0.000 A 
ATOM      4  C   UNL     1       3.512   4.810  19.512  0.00  0.00    +0.000 A 
ATOM      5  C   UNL     1       3.795   3.478  19.863  0.00  0.00    +0.000 A 
ATOM      6  N   UNL     1       4.780   2.681  19.299  0.00  0.00    +0.000 N 
ATOM      7  N   UNL     1       3.061   2.894  20.834  0.00  0.00    +0.000 NA
ATOM      8  C   UNL     1       2.096   3.612  21.436  0.00  0.00    +0.000 A 
ATOM      9  N   UNL     1       1.751   4.883  21.203  0.00  0.00    +0.000 NA
ATOM     10  C   UNL     1       2.499   5.428  20.227  0.00  0.00    +0.000 A 
ATOM     11  H   UNL     1       5.628   3.167  19.035  0.00  0.00    +0.000 HD
ATOM     12  H   UNL     1       4.913   1.835  19.844  0.00  0.00    +0.000 HD
ENDROOT
BRANCH   3  13
ATOM     13  C   UNL     1       4.925   5.684  17.482  0.00  0.00    +0.000 A 
ATOM     14  C   UNL     1       6.275   6.078  17.686  0.00  0.00    +0.000 A 
ATOM     15  C   UNL     1       7.247   5.970  16.688  0.00  0.00    +0.000 A 
ATOM     16  C   UNL     1       6.851   5.375  15.520  0.00  0.00    +0.000 A 
ATOM     17  N   UNL     1       7.609   5.020  14.414  0.00  0.00    +0.000 N 
ATOM     18  C   UNL     1       6.786   4.328  13.517  0.00  0.00    +0.000 A 
ATOM     19  O   UNL     1       7.131   3.818  12.461  0.00  0.00    +0.000 OA
ATOM     20  N   UNL     1       5.500   4.318  14.070  0.00  0.00    +0.000 N 
ATOM     21  C   UNL     1       5.542   4.946  15.311  0.00  0.00    +0.000 A 
ATOM     22  C   UNL     1       4.553   5.107  16.253  0.00  0.00    +0.000 A 
ATOM     23  H   UNL     1       8.602   5.136  14.292  0.00  0.00    +0.000 HD
ATOM     24  H   UNL     1       4.714   3.843  13.654  0.00  0.00    +0.000 HD
ENDBRANCH   3  13
BRANCH   1  26
ATOM     25  C   UNL     1       1.637   8.183  21.564  0.00  0.00    +0.000 C 
ATOM     26  C   UNL     1       1.413   7.704  20.131  0.00  0.00    +0.000 C 
ATOM     27  C   UNL     1       1.386   8.880  19.154  0.00  0.00    +0.000 C 
ENDBRANCH   1  26
TORSDOF 2
ENDMDL
MODEL 8
REMARK VINA RESULT:      -7.9      1.440      3.658
REMARK  Name = 
REMARK  4 active torsions:
REMARK  status: ('A' for Active; 'I' for Inactive)
REMARK    1  A    between atoms: C_1  and  C_2
REMARK    2  A    between atoms: C_2  and  C_3
REMARK    3  A    between atoms: C_2  and  N_4
REMARK    4  A    between atoms: C_6  and  C_7
REMARK                            x       y       z     vdW  Elec       q    Type
REMARK                         _______ _______ _______ _____ _____    ______ ____
ROOT
ATOM      1  N   UNL     1       2.405   3.946  19.257  0.00  0.00    +0.000 N 
ATOM      2  N   UNL     1       1.886   5.108  19.704  0.00  0.00    +0.000 NA
ATOM      3  C   UNL     1       2.504   6.060  18.973  0.00  0.00    +0.000 A 
ATOM      4  C   UNL     1       3.490   5.483  18.106  0.00  0.00    +0.000 A 
ATOM      5  C   UNL     1       4.446   5.892  17.159  0.00  0.00    +0.000 A 
ATOM      6  N   UNL     1       4.742   7.203  16.818  0.00  0.00    +0.000 N 
ATOM      7  N   UNL     1       5.157   4.948  16.508  0.00  0.00    +0.000 NA
ATOM      8  C   UNL     1       4.933   3.654  16.798  0.00  0.00    +0.000 A 
ATOM      9  N   UNL     1       4.071   3.148  17.687  0.00  0.00    +0.000 NA
ATOM     10  C   UNL     1       3.377   4.118  18.310  0.00  0.00    +0.000 A 
ATOM     11  H   UNL     1       4.687   7.869  17.579  0.00  0.00    +0.000 HD
ATOM     12  H   UNL     1       5.587   7.246  16.259  0.00  0.00    +0.000 HD
ENDROOT
BRANCH   3  13
ATOM     13  C   UNL     1       2.094   7.463  19.112  0.00  0.00    +0.000 A 
ATOM     14  C   UNL     1       1.988   8.298  17.967  0.00  0.00    +0.000 A 
ATOM     15  C   UNL     1       1.584   9.633  18.047  0.00  0.00    +0.000 A 
ATOM     16  C   UNL     1       1.204  10.077  19.286  0.00  0.00    +0.000 A 
ATOM     17  N   UNL     1       0.647  11.294  19.650  0.00  0.00    +0.000 N 
ATOM     18  C   UNL     1       0.314  11.240  21.009  0.00  0.00    +0.000 A 
ATOM     19  O   UNL     1      -0.247  12.112  21.654  0.00  0.00    +0.000 OA
ATOM     20  N   UNL     1       0.731   9.988  21.480  0.00  0.00    +0.000 N 
ATOM     21  C   UNL     1       1.263   9.265  20.416  0.00  0.00    +0.000 A 
ATOM     22  C   UNL     1       1.724   7.970  20.372  0.00  0.00    +0.000 A 
ATOM     23  H   UNL     1       0.415  12.065  19.044  0.00  0.00    +0.000 HD
ATOM     24  H   UNL     1       0.573   9.662  22.420  0.00  0.00    +0.000 HD
ENDBRANCH   3  13
BRANCH   1  26
ATOM     25  C   UNL     1       1.492   2.740  21.220  0.00  0.00    +0.000 C 
ATOM     26  C   UNL     1       1.893   2.668  19.748  0.00  0.00    +0.000 C 
ATOM     27  C   UNL     1       0.738   2.160  18.885  0.00  0.00    +0.000 C 
ENDBRANCH   1  26
TORSDOF 2
ENDMDL
MODEL 9
REMARK VINA RESULT:      -7.8      3.295      6.520
REMARK  Name = 
REMARK  4 active torsions:
REMARK  status: ('A' for Active; 'I' for Inactive)
REMARK    1  A    between atoms: C_1  and  C_2
REMARK    2  A    between atoms: C_2  and  C_3
REMARK    3  A    between atoms: C_2  and  N_4
REMARK    4  A    between atoms: C_6  and  C_7
REMARK                            x       y       z     vdW  Elec       q    Type
REMARK                         _______ _______ _______ _____ _____    ______ ____
ROOT
ATOM      1  N   UNL     1       2.853   4.322  20.223  0.00  0.00    +0.000 N 
ATOM      2  N   UNL     1       3.713   4.030  19.225  0.00  0.00    +0.000 NA
ATOM      3  C   UNL     1       3.841   5.184  18.537  0.00  0.00    +0.000 A 
ATOM      4  C   UNL     1       2.980   6.199  19.071  0.00  0.00    +0.000 A 
ATOM      5  C   UNL     1       2.629   7.537  18.820  0.00  0.00    +0.000 A 
ATOM      6  N   UNL     1       3.090   8.315  17.769  0.00  0.00    +0.000 N 
ATOM      7  N   UNL     1       1.766   8.148  19.660  0.00  0.00    +0.000 NA
ATOM      8  C   UNL     1       1.267   7.450  20.695  0.00  0.00    +0.000 A 
ATOM      9  N   UNL     1       1.510   6.176  21.021  0.00  0.00    +0.000 NA
ATOM     10  C   UNL     1       2.377   5.604  20.167  0.00  0.00    +0.000 A 
ATOM     11  H   UNL     1       3.240   7.818  16.899  0.00  0.00    +0.000 HD
ATOM     12  H   UNL     1       2.553   9.172  17.695  0.00  0.00    +0.000 HD
ENDROOT
BRANCH   3  13
ATOM     13  C   UNL     1       4.807   5.268  17.434  0.00  0.00    +0.000 A 
ATOM     14  C   UNL     1       6.085   5.855  17.640  0.00  0.00    +0.000 A 
ATOM     15  C   UNL     1       7.043   5.941  16.627  0.00  0.00    +0.000 A 
ATOM     16  C   UNL     1       6.720   5.345  15.437  0.00  0.00    +0.000 A 
ATOM     17  N   UNL     1       7.503   5.159  14.308  0.00  0.00    +0.000 N 
ATOM     18  C   UNL     1       6.779   4.390  13.388  0.00  0.00    +0.000 A 
ATOM     19  O   UNL     1       7.177   3.986  12.306  0.00  0.00    +0.000 OA
ATOM     20  N   UNL     1       5.519   4.158  13.956  0.00  0.00    +0.000 N 
ATOM     21  C   UNL     1       5.488   4.730  15.224  0.00  0.00    +0.000 A 
ATOM     22  C   UNL     1       4.504   4.696  16.184  0.00  0.00    +0.000 A 
ATOM     23  H   UNL     1       8.464   5.431  14.179  0.00  0.00    +0.000 HD
ATOM     24  H   UNL     1       4.808   3.588  13.527  0.00  0.00    +0.000 HD
ENDBRANCH   3  13
BRANCH   1  26
ATOM     25  C   UNL     1       1.111   2.826  21.153  0.00  0.00    +0.000 C 
ATOM     26  C   UNL     1       2.549   3.332  21.253  0.00  0.00    +0.000 C 
ATOM     27  C   UNL     1       3.544   2.172  21.227  0.00  0.00    +0.000 C 
ENDBRANCH   1  26
TORSDOF 2
ENDMDL
