MODEL 1
REMARK VINA RESULT:      -8.0      0.000      0.000
REMARK  Name = 
REMARK  10 active torsions:
REMARK  status: ('A' for Active; 'I' for Inactive)
REMARK    1  A    between atoms: C_1  and  S_2
REMARK    2  A    between atoms: S_2  and  C_3
REMARK    3  A    between atoms: N_11  and  C_12
REMARK    4  A    between atoms: N_16  and  C_17
REMARK    5  A    between atoms: C_17  and  C_18
REMARK    6  A    between atoms: C_18  and  C_19
REMARK    7  A    between atoms: N_20  and  N_21
REMARK    8  A    between atoms: N_21  and  C_22
REMARK    9  A    between atoms: C_22  and  N_24
REMARK   10  A    between atoms: N_24  and  C_25
REMARK                            x       y       z     vdW  Elec       q    Type
REMARK                         _______ _______ _______ _____ _____    ______ ____
ROOT
ATOM      1  C   UNL     1       4.559   4.859  16.781  0.00  0.00    +0.000 A 
ATOM      2  C   UNL     1       3.847   3.723  17.104  0.00  0.00    +0.000 A 
ATOM      3  S   UNL     1       2.540   4.126  18.127  0.00  0.00    +0.000 S 
ATOM      4  C   UNL     1       2.992   5.788  18.051  0.00  0.00    +0.000 A 
ATOM      5  N   UNL     1       2.229   6.694  18.697  0.00  0.00    +0.000 N 
ATOM      6  N   UNL     1       4.084   6.035  17.358  0.00  0.00    +0.000 NA
ATOM      7  H   UNL     1       1.337   6.350  19.063  0.00  0.00    +0.000 HD
ENDROOT
BRANCH   1  16
ATOM      8  C   UNL     1       6.967   5.469  16.196  0.00  0.00    +0.000 A 
ATOM      9  N   UNL     1       7.799   5.366  15.187  0.00  0.00    +0.000 NA
ATOM     10  C   UNL     1       7.089   4.734  14.204  0.00  0.00    +0.000 A 
ATOM     11  C   UNL     1       7.506   4.396  12.907  0.00  0.00    +0.000 A 
ATOM     12  C   UNL     1       6.590   3.796  12.038  0.00  0.00    +0.000 A 
ATOM     13  C   UNL     1       5.283   3.542  12.452  0.00  0.00    +0.000 A 
ATOM     14  C   UNL     1       4.855   3.855  13.748  0.00  0.00    +0.000 A 
ATOM     15  C   UNL     1       5.794   4.441  14.620  0.00  0.00    +0.000 A 
ATOM     16  N   UNL     1       5.714   4.919  15.928  0.00  0.00    +0.000 N 
BRANCH   8  18
ATOM     17  C   UNL     1       7.444   7.863  17.437  0.00  0.00    +0.000 C 
ATOM     18  S   UNL     1       7.458   6.085  17.751  0.00  0.00    +0.000 S 
ENDBRANCH   8  18
ENDBRANCH   1  16
BRANCH   5  19
ATOM     19  C   UNL     1       2.107   8.047  18.179  0.00  0.00    +0.000 C 
BRANCH  19  20
ATOM     20  C   UNL     1       1.445   8.932  19.249  0.00  0.00    +0.000 C 
ATOM     21  C   UNL     1       1.350   8.386  20.650  0.00  0.00    +0.000 C 
ATOM     22  N   UNL     1       1.047  10.119  18.887  0.00  0.00    +0.000 NA
BRANCH  22  23
ATOM     23  N   UNL     1       0.515  10.981  19.797  0.00  0.00    +0.000 N 
ATOM     24  H   UNL     1       0.708  10.871  20.786  0.00  0.00    +0.000 HD
BRANCH  23  25
ATOM     25  C   UNL     1      -0.483  11.886  19.417  0.00  0.00    +0.000 C 
ATOM     26  S   UNL     1      -0.220  13.538  19.240  0.00  0.00    +0.000 S 
BRANCH  25  27
ATOM     27  N   UNL     1      -1.717  11.236  19.319  0.00  0.00    +0.000 N 
ATOM     28  H   UNL     1      -2.255  11.300  20.177  0.00  0.00    +0.000 HD
BRANCH  27  29
ATOM     29  C   UNL     1      -2.478  11.063  18.142  0.00  0.00    +0.000 A 
ATOM     30  C   UNL     1      -3.748  11.635  18.003  0.00  0.00    +0.000 A 
ATOM     31  C   UNL     1      -4.497  11.424  16.844  0.00  0.00    +0.000 A 
ATOM     32  C   UNL     1      -3.974  10.652  15.809  0.00  0.00    +0.000 A 
ATOM     33  C   UNL     1      -2.689  10.122  15.919  0.00  0.00    +0.000 A 
ATOM     34  C   UNL     1      -1.934  10.343  17.074  0.00  0.00    +0.000 A 
ENDBRANCH  27  29
ENDBRANCH  25  27
ENDBRANCH  23  25
ENDBRANCH  22  23
ENDBRANCH  19  20
ENDBRANCH   5  19
TORSDOF 8
ENDMDL
MODEL 2
REMARK VINA RESULT:      -7.9      2.113      9.728
REMARK  Name = 
REMARK  10 active torsions:
REMARK  status: ('A' for Active; 'I' for Inactive)
REMARK    1  A    between atoms: C_1  and  S_2
REMARK    2  A    between atoms: S_2  and  C_3
REMARK    3  A    between atoms: N_11  and  C_12
REMARK    4  A    between atoms: N_16  and  C_17
REMARK    5  A    between atoms: C_17  and  C_18
REMARK    6  A    between atoms: C_18  and  C_19
REMARK    7  A    between atoms: N_20  and  N_21
REMARK    8  A    between atoms: N_21  and  C_22
REMARK    9  A    between atoms: C_22  and  N_24
REMARK   10  A    between atoms: N_24  and  C_25
REMARK                            x       y       z     vdW  Elec       q    Type
REMARK                         _______ _______ _______ _____ _____    ______ ____
ROOT
ATOM      1  C   UNL     1       0.431   9.911  18.880  0.00  0.00    +0.000 A 
ATOM      2  C   UNL     1       1.370  10.032  17.878  0.00  0.00    +0.000 A 
ATOM      3  S   UNL     1       2.615   8.885  18.105  0.00  0.00    +0.000 S 
ATOM      4  C   UNL     1       1.809   8.287  19.507  0.00  0.00    +0.000 A 
ATOM      5  N   UNL     1       2.350   7.239  20.163  0.00  0.00    +0.000 N 
ATOM      6  N   UNL     1       0.709   8.932  19.832  0.00  0.00    +0.000 NA
ATOM      7  H   UNL     1       3.126   6.767  19.692  0.00  0.00    +0.000 HD
ENDROOT
BRANCH   1  16
ATOM      8  C   UNL     1      -1.125  11.569  20.039  0.00  0.00    +0.000 A 
ATOM      9  N   UNL     1      -2.304  12.116  19.858  0.00  0.00    +0.000 NA
ATOM     10  C   UNL     1      -2.761  11.592  18.681  0.00  0.00    +0.000 A 
ATOM     11  C   UNL     1      -3.986  11.830  18.038  0.00  0.00    +0.000 A 
ATOM     12  C   UNL     1      -4.276  11.139  16.858  0.00  0.00    +0.000 A 
ATOM     13  C   UNL     1      -3.365  10.223  16.333  0.00  0.00    +0.000 A 
ATOM     14  C   UNL     1      -2.131   9.986  16.951  0.00  0.00    +0.000 A 
ATOM     15  C   UNL     1      -1.843  10.705  18.127  0.00  0.00    +0.000 A 
ATOM     16  N   UNL     1      -0.767  10.692  19.015  0.00  0.00    +0.000 N 
BRANCH   8  18
ATOM     17  C   UNL     1      -0.626  10.917  22.651  0.00  0.00    +0.000 C 
ATOM     18  S   UNL     1      -0.072  12.036  21.347  0.00  0.00    +0.000 S 
ENDBRANCH   8  18
ENDBRANCH   1  16
BRANCH   5  19
ATOM     19  C   UNL     1       1.493   6.294  20.860  0.00  0.00    +0.000 C 
BRANCH  19  20
ATOM     20  C   UNL     1       2.030   4.871  20.630  0.00  0.00    +0.000 C 
ATOM     21  C   UNL     1       1.113   3.717  20.941  0.00  0.00    +0.000 C 
ATOM     22  N   UNL     1       3.230   4.753  20.137  0.00  0.00    +0.000 NA
BRANCH  22  23
ATOM     23  N   UNL     1       3.743   3.526  19.843  0.00  0.00    +0.000 N 
ATOM     24  H   UNL     1       4.296   3.021  20.526  0.00  0.00    +0.000 HD
BRANCH  23  25
ATOM     25  C   UNL     1       3.716   3.042  18.530  0.00  0.00    +0.000 C 
ATOM     26  S   UNL     1       3.631   1.406  18.145  0.00  0.00    +0.000 S 
BRANCH  25  27
ATOM     27  N   UNL     1       3.875   4.093  17.621  0.00  0.00    +0.000 N 
ATOM     28  H   UNL     1       3.335   4.911  17.881  0.00  0.00    +0.000 HD
BRANCH  27  29
ATOM     29  C   UNL     1       5.021   4.351  16.836  0.00  0.00    +0.000 A 
ATOM     30  C   UNL     1       6.231   4.745  17.419  0.00  0.00    +0.000 A 
ATOM     31  C   UNL     1       7.342   5.028  16.622  0.00  0.00    +0.000 A 
ATOM     32  C   UNL     1       7.255   4.901  15.238  0.00  0.00    +0.000 A 
ATOM     33  C   UNL     1       6.069   4.457  14.654  0.00  0.00    +0.000 A 
ATOM     34  C   UNL     1       4.959   4.164  15.452  0.00  0.00    +0.000 A 
ENDBRANCH  27  29
ENDBRANCH  25  27
ENDBRANCH  23  25
ENDBRANCH  22  23
ENDBRANCH  19  20
ENDBRANCH   5  19
TORSDOF 8
ENDMDL
MODEL 3
REMARK VINA RESULT:      -7.8      2.581      4.417
REMARK  Name = 
REMARK  10 active torsions:
REMARK  status: ('A' for Active; 'I' for Inactive)
REMARK    1  A    between atoms: C_1  and  S_2
REMARK    2  A    between atoms: S_2  and  C_3
REMARK    3  A    between atoms: N_11  and  C_12
REMARK    4  A    between atoms: N_16  and  C_17
REMARK    5  A    between atoms: C_17  and  C_18
REMARK    6  A    between atoms: C_18  and  C_19
REMARK    7  A    between atoms: N_20  and  N_21
REMARK    8  A    between atoms: N_21  and  C_22
REMARK    9  A    between atoms: C_22  and  N_24
REMARK   10  A    between atoms: N_24  and  C_25
REMARK                            x       y       z     vdW  Elec       q    Type
REMARK                         _______ _______ _______ _____ _____    ______ ____
ROOT
ATOM      1  C   UNL     1       2.622   6.404  19.090  0.00  0.00    +0.000 A 
ATOM      2  C   UNL     1       2.266   6.229  20.410  0.00  0.00    +0.000 A 
ATOM      3  S   UNL     1       1.511   7.642  21.002  0.00  0.00    +0.000 S 
ATOM      4  C   UNL     1       1.686   8.384  19.455  0.00  0.00    +0.000 A 
ATOM      5  N   UNL     1       1.189   9.625  19.276  0.00  0.00    +0.000 N 
ATOM      6  N   UNL     1       2.319   7.656  18.559  0.00  0.00    +0.000 NA
ATOM      7  H   UNL     1       0.600   9.986  20.031  0.00  0.00    +0.000 HD
ENDROOT
BRANCH   1  16
ATOM      8  C   UNL     1       2.832   4.143  17.926  0.00  0.00    +0.000 A 
ATOM      9  N   UNL     1       3.666   3.506  17.138  0.00  0.00    +0.000 NA
ATOM     10  C   UNL     1       4.693   4.382  16.926  0.00  0.00    +0.000 A 
ATOM     11  C   UNL     1       5.860   4.192  16.169  0.00  0.00    +0.000 A 
ATOM     12  C   UNL     1       6.816   5.212  16.132  0.00  0.00    +0.000 A 
ATOM     13  C   UNL     1       6.615   6.396  16.841  0.00  0.00    +0.000 A 
ATOM     14  C   UNL     1       5.448   6.611  17.586  0.00  0.00    +0.000 A 
ATOM     15  C   UNL     1       4.485   5.583  17.598  0.00  0.00    +0.000 A 
ATOM     16  N   UNL     1       3.262   5.429  18.251  0.00  0.00    +0.000 N 
BRANCH   8  18
ATOM     17  C   UNL     1       1.781   2.029  19.315  0.00  0.00    +0.000 C 
ATOM     18  S   UNL     1       1.281   3.483  18.369  0.00  0.00    +0.000 S 
ENDBRANCH   8  18
ENDBRANCH   1  16
BRANCH   5  19
ATOM     19  C   UNL     1       0.694  10.032  17.971  0.00  0.00    +0.000 C 
BRANCH  19  20
ATOM     20  C   UNL     1      -0.773  10.471  18.109  0.00  0.00    +0.000 C 
ATOM     21  C   UNL     1      -1.049  11.795  18.774  0.00  0.00    +0.000 C 
ATOM     22  N   UNL     1      -1.686   9.692  17.603  0.00  0.00    +0.000 NA
BRANCH  22  23
ATOM     23  N   UNL     1      -2.999  10.050  17.628  0.00  0.00    +0.000 N 
ATOM     24  H   UNL     1      -3.629   9.653  18.316  0.00  0.00    +0.000 HD
BRANCH  23  25
ATOM     25  C   UNL     1      -3.554  10.788  16.576  0.00  0.00    +0.000 C 
ATOM     26  S   UNL     1      -3.214  10.494  14.955  0.00  0.00    +0.000 S 
BRANCH  25  27
ATOM     27  N   UNL     1      -4.324  11.844  17.076  0.00  0.00    +0.000 N 
ATOM     28  H   UNL     1      -4.634  12.474  16.344  0.00  0.00    +0.000 HD
BRANCH  27  29
ATOM     29  C   UNL     1      -5.142  11.808  18.228  0.00  0.00    +0.000 A 
ATOM     30  C   UNL     1      -6.339  11.084  18.250  0.00  0.00    +0.000 A 
ATOM     31  C   UNL     1      -7.149  11.090  19.387  0.00  0.00    +0.000 A 
ATOM     32  C   UNL     1      -6.758  11.806  20.516  0.00  0.00    +0.000 A 
ATOM     33  C   UNL     1      -5.541  12.487  20.519  0.00  0.00    +0.000 A 
ATOM     34  C   UNL     1      -4.724  12.473  19.384  0.00  0.00    +0.000 A 
ENDBRANCH  27  29
ENDBRANCH  25  27
ENDBRANCH  23  25
ENDBRANCH  22  23
ENDBRANCH  19  20
ENDBRANCH   5  19
TORSDOF 8
ENDMDL
MODEL 4
REMARK VINA RESULT:      -7.8      2.131     10.969
REMARK  Name = 
REMARK  10 active torsions:
REMARK  status: ('A' for Active; 'I' for Inactive)
REMARK    1  A    between atoms: C_1  and  S_2
REMARK    2  A    between atoms: S_2  and  C_3
REMARK    3  A    between atoms: N_11  and  C_12
REMARK    4  A    between atoms: N_16  and  C_17
REMARK    5  A    between atoms: C_17  and  C_18
REMARK    6  A    between atoms: C_18  and  C_19
REMARK    7  A    between atoms: N_20  and  N_21
REMARK    8  A    between atoms: N_21  and  C_22
REMARK    9  A    between atoms: C_22  and  N_24
REMARK   10  A    between atoms: N_24  and  C_25
REMARK                            x       y       z     vdW  Elec       q    Type
REMARK                         _______ _______ _______ _____ _____    ______ ____
ROOT
ATOM      1  C   UNL     1      -2.200  12.002  19.118  0.00  0.00    +0.000 A 
ATOM      2  C   UNL     1      -1.732  13.192  19.634  0.00  0.00    +0.000 A 
ATOM      3  S   UNL     1      -0.153  12.978  20.249  0.00  0.00    +0.000 S 
ATOM      4  C   UNL     1      -0.188  11.323  19.767  0.00  0.00    +0.000 A 
ATOM      5  N   UNL     1       0.910  10.567  19.975  0.00  0.00    +0.000 N 
ATOM      6  N   UNL     1      -1.323  10.925  19.231  0.00  0.00    +0.000 NA
ATOM      7  H   UNL     1       1.752  11.071  20.266  0.00  0.00    +0.000 HD
ENDROOT
BRANCH   1  16
ATOM      8  C   UNL     1      -3.760  11.369  17.200  0.00  0.00    +0.000 A 
ATOM      9  N   UNL     1      -5.046  11.295  16.950  0.00  0.00    +0.000 NA
ATOM     10  C   UNL     1      -5.656  11.687  18.110  0.00  0.00    +0.000 A 
ATOM     11  C   UNL     1      -7.029  11.808  18.375  0.00  0.00    +0.000 A 
ATOM     12  C   UNL     1      -7.437  12.285  19.624  0.00  0.00    +0.000 A 
ATOM     13  C   UNL     1      -6.494  12.640  20.588  0.00  0.00    +0.000 A 
ATOM     14  C   UNL     1      -5.120  12.508  20.348  0.00  0.00    +0.000 A 
ATOM     15  C   UNL     1      -4.724  12.007  19.092  0.00  0.00    +0.000 A 
ATOM     16  N   UNL     1      -3.480  11.794  18.498  0.00  0.00    +0.000 N 
BRANCH   8  18
ATOM     17  C   UNL     1      -3.600  10.273  14.696  0.00  0.00    +0.000 C 
ATOM     18  S   UNL     1      -2.557  10.827  16.062  0.00  0.00    +0.000 S 
ENDBRANCH   8  18
ENDBRANCH   1  16
BRANCH   5  19
ATOM     19  C   UNL     1       1.227   9.476  19.069  0.00  0.00    +0.000 C 
BRANCH  19  20
ATOM     20  C   UNL     1       1.696   8.265  19.893  0.00  0.00    +0.000 C 
ATOM     21  C   UNL     1       1.331   8.227  21.354  0.00  0.00    +0.000 C 
ATOM     22  N   UNL     1       2.342   7.323  19.266  0.00  0.00    +0.000 NA
BRANCH  22  23
ATOM     23  N   UNL     1       2.727   6.191  19.918  0.00  0.00    +0.000 N 
ATOM     24  H   UNL     1       2.900   6.204  20.916  0.00  0.00    +0.000 HD
BRANCH  23  25
ATOM     25  C   UNL     1       3.112   5.054  19.198  0.00  0.00    +0.000 C 
ATOM     26  S   UNL     1       3.334   3.542  19.899  0.00  0.00    +0.000 S 
BRANCH  25  27
ATOM     27  N   UNL     1       3.381   5.390  17.867  0.00  0.00    +0.000 N 
ATOM     28  H   UNL     1       2.838   6.188  17.554  0.00  0.00    +0.000 HD
BRANCH  27  29
ATOM     29  C   UNL     1       4.602   5.187  17.185  0.00  0.00    +0.000 A 
ATOM     30  C   UNL     1       5.670   6.080  17.320  0.00  0.00    +0.000 A 
ATOM     31  C   UNL     1       6.856   5.879  16.611  0.00  0.00    +0.000 A 
ATOM     32  C   UNL     1       6.987   4.772  15.774  0.00  0.00    +0.000 A 
ATOM     33  C   UNL     1       5.946   3.850  15.676  0.00  0.00    +0.000 A 
ATOM     34  C   UNL     1       4.762   4.046  16.394  0.00  0.00    +0.000 A 
ENDBRANCH  27  29
ENDBRANCH  25  27
ENDBRANCH  23  25
ENDBRANCH  22  23
ENDBRANCH  19  20
ENDBRANCH   5  19
TORSDOF 8
ENDMDL
MODEL 5
REMARK VINA RESULT:      -7.7      2.476     10.155
REMARK  Name = 
REMARK  10 active torsions:
REMARK  status: ('A' for Active; 'I' for Inactive)
REMARK    1  A    between atoms: C_1  and  S_2
REMARK    2  A    between atoms: S_2  and  C_3
REMARK    3  A    between atoms: N_11  and  C_12
REMARK    4  A    between atoms: N_16  and  C_17
REMARK    5  A    between atoms: C_17  and  C_18
REMARK    6  A    between atoms: C_18  and  C_19
REMARK    7  A    between atoms: N_20  and  N_21
REMARK    8  A    between atoms: N_21  and  C_22
REMARK    9  A    between atoms: C_22  and  N_24
REMARK   10  A    between atoms: N_24  and  C_25
REMARK                            x       y       z     vdW  Elec       q    Type
REMARK                         _______ _______ _______ _____ _____    ______ ____
ROOT
ATOM      1  C   UNL     1       0.506   9.920  18.970  0.00  0.00    +0.000 A 
ATOM      2  C   UNL     1       1.301   9.968  17.844  0.00  0.00    +0.000 A 
ATOM      3  S   UNL     1       2.481   8.735  17.912  0.00  0.00    +0.000 S 
ATOM      4  C   UNL     1       1.840   8.204  19.422  0.00  0.00    +0.000 A 
ATOM      5  N   UNL     1       2.392   7.123  20.013  0.00  0.00    +0.000 N 
ATOM      6  N   UNL     1       0.845   8.929  19.888  0.00  0.00    +0.000 NA
ATOM      7  H   UNL     1       3.059   6.594  19.444  0.00  0.00    +0.000 HD
ENDROOT
BRANCH   1  16
ATOM      8  C   UNL     1      -1.837  10.867  18.613  0.00  0.00    +0.000 A 
ATOM      9  N   UNL     1      -2.626  11.781  19.126  0.00  0.00    +0.000 NA
ATOM     10  C   UNL     1      -1.906  12.341  20.145  0.00  0.00    +0.000 A 
ATOM     11  C   UNL     1      -2.279  13.385  21.006  0.00  0.00    +0.000 A 
ATOM     12  C   UNL     1      -1.358  13.844  21.952  0.00  0.00    +0.000 A 
ATOM     13  C   UNL     1      -0.086  13.277  22.033  0.00  0.00    +0.000 A 
ATOM     14  C   UNL     1       0.297  12.222  21.195  0.00  0.00    +0.000 A 
ATOM     15  C   UNL     1      -0.648  11.757  20.260  0.00  0.00    +0.000 A 
ATOM     16  N   UNL     1      -0.603  10.787  19.259  0.00  0.00    +0.000 N 
BRANCH   8  18
ATOM     17  C   UNL     1      -2.632  10.918  15.993  0.00  0.00    +0.000 C 
ATOM     18  S   UNL     1      -2.366   9.773  17.364  0.00  0.00    +0.000 S 
ENDBRANCH   8  18
ENDBRANCH   1  16
BRANCH   5  19
ATOM     19  C   UNL     1       1.578   6.246  20.837  0.00  0.00    +0.000 C 
BRANCH  19  20
ATOM     20  C   UNL     1       1.643   4.821  20.264  0.00  0.00    +0.000 C 
ATOM     21  C   UNL     1       1.634   3.672  21.238  0.00  0.00    +0.000 C 
ATOM     22  N   UNL     1       1.657   4.693  18.967  0.00  0.00    +0.000 NA
BRANCH  22  23
ATOM     23  N   UNL     1       1.645   3.460  18.390  0.00  0.00    +0.000 N 
ATOM     24  H   UNL     1       0.817   2.877  18.435  0.00  0.00    +0.000 HD
BRANCH  23  25
ATOM     25  C   UNL     1       2.833   2.881  17.928  0.00  0.00    +0.000 C 
ATOM     26  S   UNL     1       3.474   1.455  18.550  0.00  0.00    +0.000 S 
BRANCH  25  27
ATOM     27  N   UNL     1       3.438   3.707  16.975  0.00  0.00    +0.000 N 
ATOM     28  H   UNL     1       2.789   4.382  16.584  0.00  0.00    +0.000 HD
BRANCH  27  29
ATOM     29  C   UNL     1       4.797   4.090  16.945  0.00  0.00    +0.000 A 
ATOM     30  C   UNL     1       5.546   4.032  15.764  0.00  0.00    +0.000 A 
ATOM     31  C   UNL     1       6.896   4.383  15.764  0.00  0.00    +0.000 A 
ATOM     32  C   UNL     1       7.504   4.811  16.942  0.00  0.00    +0.000 A 
ATOM     33  C   UNL     1       6.752   4.922  18.111  0.00  0.00    +0.000 A 
ATOM     34  C   UNL     1       5.396   4.581  18.109  0.00  0.00    +0.000 A 
ENDBRANCH  27  29
ENDBRANCH  25  27
ENDBRANCH  23  25
ENDBRANCH  22  23
ENDBRANCH  19  20
ENDBRANCH   5  19
TORSDOF 8
ENDMDL
MODEL 6
REMARK VINA RESULT:      -7.7      2.814      4.058
REMARK  Name = 
REMARK  10 active torsions:
REMARK  status: ('A' for Active; 'I' for Inactive)
REMARK    1  A    between atoms: C_1  and  S_2
REMARK    2  A    between atoms: S_2  and  C_3
REMARK    3  A    between atoms: N_11  and  C_12
REMARK    4  A    between atoms: N_16  and  C_17
REMARK    5  A    between atoms: C_17  and  C_18
REMARK    6  A    between atoms: C_18  and  C_19
REMARK    7  A    between atoms: N_20  and  N_21
REMARK    8  A    between atoms: N_21  and  C_22
REMARK    9  A    between atoms: C_22  and  N_24
REMARK   10  A    between atoms: N_24  and  C_25
REMARK                            x       y       z     vdW  Elec       q    Type
REMARK                         _______ _______ _______ _____ _____    ______ ____
ROOT
ATOM      1  C   UNL     1       3.115   6.511  18.582  0.00  0.00    +0.000 A 
ATOM      2  C   UNL     1       3.435   7.370  17.552  0.00  0.00    +0.000 A 
ATOM      3  S   UNL     1       2.640   8.865  17.772  0.00  0.00    +0.000 S 
ATOM      4  C   UNL     1       1.944   8.280  19.237  0.00  0.00    +0.000 A 
ATOM      5  N   UNL     1       1.166   9.113  19.959  0.00  0.00    +0.000 N 
ATOM      6  N   UNL     1       2.230   7.028  19.526  0.00  0.00    +0.000 NA
ATOM      7  H   UNL     1       1.168  10.094  19.666  0.00  0.00    +0.000 HD
ENDROOT
BRANCH   1  16
ATOM      8  C   UNL     1       4.924   4.736  18.880  0.00  0.00    +0.000 A 
ATOM      9  N   UNL     1       5.026   3.434  19.005  0.00  0.00    +0.000 NA
ATOM     10  C   UNL     1       3.740   2.971  18.952  0.00  0.00    +0.000 A 
ATOM     11  C   UNL     1       3.287   1.644  19.018  0.00  0.00    +0.000 A 
ATOM     12  C   UNL     1       1.919   1.389  18.887  0.00  0.00    +0.000 A 
ATOM     13  C   UNL     1       1.020   2.437  18.688  0.00  0.00    +0.000 A 
ATOM     14  C   UNL     1       1.452   3.768  18.639  0.00  0.00    +0.000 A 
ATOM     15  C   UNL     1       2.831   4.012  18.792  0.00  0.00    +0.000 A 
ATOM     16  N   UNL     1       3.606   5.171  18.749  0.00  0.00    +0.000 N 
BRANCH   8  18
ATOM     17  C   UNL     1       6.957   5.749  17.350  0.00  0.00    +0.000 C 
ATOM     18  S   UNL     1       6.299   5.796  19.031  0.00  0.00    +0.000 S 
ENDBRANCH   8  18
ENDBRANCH   1  16
BRANCH   5  19
ATOM     19  C   UNL     1       1.109   8.987  21.406  0.00  0.00    +0.000 C 
BRANCH  19  20
ATOM     20  C   UNL     1       0.217  10.107  21.969  0.00  0.00    +0.000 C 
ATOM     21  C   UNL     1      -0.507   9.843  23.263  0.00  0.00    +0.000 C 
ATOM     22  N   UNL     1       0.179  11.233  21.314  0.00  0.00    +0.000 NA
BRANCH  22  23
ATOM     23  N   UNL     1      -0.534  12.290  21.790  0.00  0.00    +0.000 N 
ATOM     24  H   UNL     1      -0.242  12.772  22.633  0.00  0.00    +0.000 HD
BRANCH  23  25
ATOM     25  C   UNL     1      -1.797  12.588  21.267  0.00  0.00    +0.000 C 
ATOM     26  S   UNL     1      -3.198  12.651  22.197  0.00  0.00    +0.000 S 
BRANCH  25  27
ATOM     27  N   UNL     1      -1.730  12.712  19.875  0.00  0.00    +0.000 N 
ATOM     28  H   UNL     1      -0.928  13.257  19.576  0.00  0.00    +0.000 HD
BRANCH  27  29
ATOM     29  C   UNL     1      -2.211  11.779  18.929  0.00  0.00    +0.000 A 
ATOM     30  C   UNL     1      -3.574  11.678  18.633  0.00  0.00    +0.000 A 
ATOM     31  C   UNL     1      -4.032  10.727  17.720  0.00  0.00    +0.000 A 
ATOM     32  C   UNL     1      -3.126   9.881  17.084  0.00  0.00    +0.000 A 
ATOM     33  C   UNL     1      -1.761  10.011  17.334  0.00  0.00    +0.000 A 
ATOM     34  C   UNL     1      -1.301  10.971  18.241  0.00  0.00    +0.000 A 
ENDBRANCH  27  29
ENDBRANCH  25  27
ENDBRANCH  23  25
ENDBRANCH  22  23
ENDBRANCH  19  20
ENDBRANCH   5  19
TORSDOF 8
ENDMDL
MODEL 7
REMARK VINA RESULT:      -7.7      2.724     10.369
REMARK  Name = 
REMARK  10 active torsions:
REMARK  status: ('A' for Active; 'I' for Inactive)
REMARK    1  A    between atoms: C_1  and  S_2
REMARK    2  A    between atoms: S_2  and  C_3
REMARK    3  A    between atoms: N_11  and  C_12
REMARK    4  A    between atoms: N_16  and  C_17
REMARK    5  A    between atoms: C_17  and  C_18
REMARK    6  A    between atoms: C_18  and  C_19
REMARK    7  A    between atoms: N_20  and  N_21
REMARK    8  A    between atoms: N_21  and  C_22
REMARK    9  A    between atoms: C_22  and  N_24
REMARK   10  A    between atoms: N_24  and  C_25
REMARK                            x       y       z     vdW  Elec       q    Type
REMARK                         _______ _______ _______ _____ _____    ______ ____
ROOT
ATOM      1  C   UNL     1       0.210  10.273  19.176  0.00  0.00    +0.000 A 
ATOM      2  C   UNL     1       1.027  10.459  18.082  0.00  0.00    +0.000 A 
ATOM      3  S   UNL     1       2.272   9.290  18.079  0.00  0.00    +0.000 S 
ATOM      4  C   UNL     1       1.626   8.598  19.520  0.00  0.00    +0.000 A 
ATOM      5  N   UNL     1       2.223   7.501  20.032  0.00  0.00    +0.000 N 
ATOM      6  N   UNL     1       0.581   9.225  20.017  0.00  0.00    +0.000 NA
ATOM      7  H   UNL     1       2.932   7.059  19.441  0.00  0.00    +0.000 HD
ENDROOT
BRANCH   1  16
ATOM      8  C   UNL     1      -2.149  11.171  18.798  0.00  0.00    +0.000 A 
ATOM      9  N   UNL     1      -3.007  11.978  19.374  0.00  0.00    +0.000 NA
ATOM     10  C   UNL     1      -2.375  12.422  20.502  0.00  0.00    +0.000 A 
ATOM     11  C   UNL     1      -2.845  13.325  21.468  0.00  0.00    +0.000 A 
ATOM     12  C   UNL     1      -2.003  13.687  22.523  0.00  0.00    +0.000 A 
ATOM     13  C   UNL     1      -0.714  13.162  22.611  0.00  0.00    +0.000 A 
ATOM     14  C   UNL     1      -0.234  12.245  21.667  0.00  0.00    +0.000 A 
ATOM     15  C   UNL     1      -1.101  11.875  20.620  0.00  0.00    +0.000 A 
ATOM     16  N   UNL     1      -0.953  11.050  19.505  0.00  0.00    +0.000 N 
BRANCH   8  18
ATOM     17  C   UNL     1      -3.849  11.260  16.653  0.00  0.00    +0.000 C 
ATOM     18  S   UNL     1      -2.553  10.236  17.383  0.00  0.00    +0.000 S 
ENDBRANCH   8  18
ENDBRANCH   1  16
BRANCH   5  19
ATOM     19  C   UNL     1       1.439   6.514  20.756  0.00  0.00    +0.000 C 
BRANCH  19  20
ATOM     20  C   UNL     1       2.050   5.123  20.521  0.00  0.00    +0.000 C 
ATOM     21  C   UNL     1       1.192   3.920  20.818  0.00  0.00    +0.000 C 
ATOM     22  N   UNL     1       3.259   5.070  20.037  0.00  0.00    +0.000 NA
BRANCH  22  23
ATOM     23  N   UNL     1       3.837   3.873  19.740  0.00  0.00    +0.000 N 
ATOM     24  H   UNL     1       4.313   3.338  20.458  0.00  0.00    +0.000 HD
BRANCH  23  25
ATOM     25  C   UNL     1       3.988   3.469  18.409  0.00  0.00    +0.000 C 
ATOM     26  S   UNL     1       2.742   2.808  17.492  0.00  0.00    +0.000 S 
BRANCH  25  27
ATOM     27  N   UNL     1       5.323   3.597  18.011  0.00  0.00    +0.000 N 
ATOM     28  H   UNL     1       5.603   2.866  17.367  0.00  0.00    +0.000 HD
BRANCH  27  29
ATOM     29  C   UNL     1       6.052   4.803  17.909  0.00  0.00    +0.000 A 
ATOM     30  C   UNL     1       7.143   5.068  18.744  0.00  0.00    +0.000 A 
ATOM     31  C   UNL     1       7.829   6.280  18.650  0.00  0.00    +0.000 A 
ATOM     32  C   UNL     1       7.438   7.229  17.707  0.00  0.00    +0.000 A 
ATOM     33  C   UNL     1       6.385   6.950  16.837  0.00  0.00    +0.000 A 
ATOM     34  C   UNL     1       5.705   5.731  16.924  0.00  0.00    +0.000 A 
ENDBRANCH  27  29
ENDBRANCH  25  27
ENDBRANCH  23  25
ENDBRANCH  22  23
ENDBRANCH  19  20
ENDBRANCH   5  19
TORSDOF 8
ENDMDL
MODEL 8
REMARK VINA RESULT:      -7.6      3.149      4.674
REMARK  Name = 
REMARK  10 active torsions:
REMARK  status: ('A' for Active; 'I' for Inactive)
REMARK    1  A    between atoms: C_1  and  S_2
REMARK    2  A    between atoms: S_2  and  C_3
REMARK    3  A    between atoms: N_11  and  C_12
REMARK    4  A    between atoms: N_16  and  C_17
REMARK    5  A    between atoms: C_17  and  C_18
REMARK    6  A    between atoms: C_18  and  C_19
REMARK    7  A    between atoms: N_20  and  N_21
REMARK    8  A    between atoms: N_21  and  C_22
REMARK    9  A    between atoms: C_22  and  N_24
REMARK   10  A    between atoms: N_24  and  C_25
REMARK                            x       y       z     vdW  Elec       q    Type
REMARK                         _______ _______ _______ _____ _____    ______ ____
ROOT
ATOM      1  C   UNL     1       2.931   6.991  18.802  0.00  0.00    +0.000 A 
ATOM      2  C   UNL     1       3.202   7.763  17.692  0.00  0.00    +0.000 A 
ATOM      3  S   UNL     1       2.324   9.225  17.771  0.00  0.00    +0.000 S 
ATOM      4  C   UNL     1       1.661   8.746  19.288  0.00  0.00    +0.000 A 
ATOM      5  N   UNL     1       0.837   9.601  19.931  0.00  0.00    +0.000 N 
ATOM      6  N   UNL     1       2.017   7.546  19.696  0.00  0.00    +0.000 NA
ATOM      7  H   UNL     1       0.783  10.547  19.545  0.00  0.00    +0.000 HD
ENDROOT
BRANCH   1  16
ATOM      8  C   UNL     1       4.719   5.175  18.684  0.00  0.00    +0.000 A 
ATOM      9  N   UNL     1       4.926   3.956  19.122  0.00  0.00    +0.000 NA
ATOM     10  C   UNL     1       3.809   3.646  19.847  0.00  0.00    +0.000 A 
ATOM     11  C   UNL     1       3.508   2.449  20.517  0.00  0.00    +0.000 A 
ATOM     12  C   UNL     1       2.271   2.324  21.156  0.00  0.00    +0.000 A 
ATOM     13  C   UNL     1       1.350   3.371  21.124  0.00  0.00    +0.000 A 
ATOM     14  C   UNL     1       1.640   4.579  20.477  0.00  0.00    +0.000 A 
ATOM     15  C   UNL     1       2.898   4.698  19.854  0.00  0.00    +0.000 A 
ATOM     16  N   UNL     1       3.496   5.703  19.095  0.00  0.00    +0.000 N 
BRANCH   8  18
ATOM     17  C   UNL     1       7.444   5.422  18.570  0.00  0.00    +0.000 C 
ATOM     18  S   UNL     1       5.937   6.073  17.818  0.00  0.00    +0.000 S 
ENDBRANCH   8  18
ENDBRANCH   1  16
BRANCH   5  19
ATOM     19  C   UNL     1       0.786   9.612  21.383  0.00  0.00    +0.000 C 
BRANCH  19  20
ATOM     20  C   UNL     1      -0.318  10.583  21.835  0.00  0.00    +0.000 C 
ATOM     21  C   UNL     1      -0.919  10.374  23.201  0.00  0.00    +0.000 C 
ATOM     22  N   UNL     1      -0.635  11.554  21.027  0.00  0.00    +0.000 NA
BRANCH  22  23
ATOM     23  N   UNL     1      -1.554  12.490  21.390  0.00  0.00    +0.000 N 
ATOM     24  H   UNL     1      -1.541  12.891  22.321  0.00  0.00    +0.000 HD
BRANCH  23  25
ATOM     25  C   UNL     1      -2.665  12.746  20.579  0.00  0.00    +0.000 C 
ATOM     26  S   UNL     1      -4.234  12.890  21.169  0.00  0.00    +0.000 S 
BRANCH  25  27
ATOM     27  N   UNL     1      -2.290  12.755  19.231  0.00  0.00    +0.000 N 
ATOM     28  H   UNL     1      -1.425  13.261  19.076  0.00  0.00    +0.000 HD
BRANCH  27  29
ATOM     29  C   UNL     1      -2.584  11.756  18.276  0.00  0.00    +0.000 A 
ATOM     30  C   UNL     1      -1.636  10.794  17.912  0.00  0.00    +0.000 A 
ATOM     31  C   UNL     1      -1.935   9.836  16.942  0.00  0.00    +0.000 A 
ATOM     32  C   UNL     1      -3.193   9.823  16.342  0.00  0.00    +0.000 A 
ATOM     33  C   UNL     1      -4.160  10.746  16.738  0.00  0.00    +0.000 A 
ATOM     34  C   UNL     1      -3.864  11.699  17.717  0.00  0.00    +0.000 A 
ENDBRANCH  27  29
ENDBRANCH  25  27
ENDBRANCH  23  25
ENDBRANCH  22  23
ENDBRANCH  19  20
ENDBRANCH   5  19
TORSDOF 8
ENDMDL
MODEL 9
REMARK VINA RESULT:      -7.6      0.750      1.170
REMARK  Name = 
REMARK  10 active torsions:
REMARK  status: ('A' for Active; 'I' for Inactive)
REMARK    1  A    between atoms: C_1  and  S_2
REMARK    2  A    between atoms: S_2  and  C_3
REMARK    3  A    between atoms: N_11  and  C_12
REMARK    4  A    between atoms: N_16  and  C_17
REMARK    5  A    between atoms: C_17  and  C_18
REMARK    6  A    between atoms: C_18  and  C_19
REMARK    7  A    between atoms: N_20  and  N_21
REMARK    8  A    between atoms: N_21  and  C_22
REMARK    9  A    between atoms: C_22  and  N_24
REMARK   10  A    between atoms: N_24  and  C_25
REMARK                            x       y       z     vdW  Elec       q    Type
REMARK                         _______ _______ _______ _____ _____    ______ ____
ROOT
ATOM      1  C   UNL     1       4.570   4.790  16.891  0.00  0.00    +0.000 A 
ATOM      2  C   UNL     1       3.856   3.630  17.104  0.00  0.00    +0.000 A 
ATOM      3  S   UNL     1       2.570   3.929  18.187  0.00  0.00    +0.000 S 
ATOM      4  C   UNL     1       3.033   5.587  18.280  0.00  0.00    +0.000 A 
ATOM      5  N   UNL     1       2.288   6.423  19.033  0.00  0.00    +0.000 N 
ATOM      6  N   UNL     1       4.114   5.901  17.598  0.00  0.00    +0.000 NA
ATOM      7  H   UNL     1       1.401   6.046  19.377  0.00  0.00    +0.000 HD
ENDROOT
BRANCH   1  16
ATOM      8  C   UNL     1       6.927   5.563  16.291  0.00  0.00    +0.000 A 
ATOM      9  N   UNL     1       7.754   5.526  15.273  0.00  0.00    +0.000 NA
ATOM     10  C   UNL     1       7.078   4.858  14.290  0.00  0.00    +0.000 A 
ATOM     11  C   UNL     1       7.503   4.562  12.986  0.00  0.00    +0.000 A 
ATOM     12  C   UNL     1       6.621   3.912  12.118  0.00  0.00    +0.000 A 
ATOM     13  C   UNL     1       5.337   3.569  12.541  0.00  0.00    +0.000 A 
ATOM     14  C   UNL     1       4.903   3.840  13.845  0.00  0.00    +0.000 A 
ATOM     15  C   UNL     1       5.809   4.477  14.714  0.00  0.00    +0.000 A 
ATOM     16  N   UNL     1       5.710   4.935  16.028  0.00  0.00    +0.000 N 
BRANCH   8  18
ATOM     17  C   UNL     1       7.589   7.947  17.464  0.00  0.00    +0.000 C 
ATOM     18  S   UNL     1       7.392   6.194  17.847  0.00  0.00    +0.000 S 
ENDBRANCH   8  18
ENDBRANCH   1  16
BRANCH   5  19
ATOM     19  C   UNL     1       2.167   7.824  18.666  0.00  0.00    +0.000 C 
BRANCH  19  20
ATOM     20  C   UNL     1       1.467   8.580  19.807  0.00  0.00    +0.000 C 
ATOM     21  C   UNL     1       1.348   7.886  21.139  0.00  0.00    +0.000 C 
ATOM     22  N   UNL     1       1.057   9.793  19.565  0.00  0.00    +0.000 NA
BRANCH  22  23
ATOM     23  N   UNL     1       0.491  10.546  20.548  0.00  0.00    +0.000 N 
ATOM     24  H   UNL     1       0.314  10.149  21.464  0.00  0.00    +0.000 HD
BRANCH  23  25
ATOM     25  C   UNL     1      -0.064  11.796  20.254  0.00  0.00    +0.000 C 
ATOM     26  S   UNL     1      -0.269  13.014  21.396  0.00  0.00    +0.000 S 
BRANCH  25  27
ATOM     27  N   UNL     1      -0.507  11.831  18.927  0.00  0.00    +0.000 N 
ATOM     28  H   UNL     1       0.252  11.715  18.265  0.00  0.00    +0.000 HD
BRANCH  27  29
ATOM     29  C   UNL     1      -1.780  11.431  18.462  0.00  0.00    +0.000 A 
ATOM     30  C   UNL     1      -1.923  10.405  17.521  0.00  0.00    +0.000 A 
ATOM     31  C   UNL     1      -3.187  10.048  17.048  0.00  0.00    +0.000 A 
ATOM     32  C   UNL     1      -4.319  10.704  17.528  0.00  0.00    +0.000 A 
ATOM     33  C   UNL     1      -4.188  11.691  18.505  0.00  0.00    +0.000 A 
ATOM     34  C   UNL     1      -2.923  12.041  18.985  0.00  0.00    +0.000 A 
ENDBRANCH  27  29
ENDBRANCH  25  27
ENDBRANCH  23  25
ENDBRANCH  22  23
ENDBRANCH  19  20
ENDBRANCH   5  19
TORSDOF 8
ENDMDL
