MODEL 1
REMARK VINA RESULT:      -7.5      0.000      0.000
REMARK  Name = 
REMARK  4 active torsions:
REMARK  status: ('A' for Active; 'I' for Inactive)
REMARK    1  A    between atoms: N_2  and  C_4
REMARK    2  A    between atoms: C_8  and  S_9
REMARK    3  A    between atoms: S_9  and  N_12
REMARK    4  A    between atoms: N_12  and  C_13
REMARK                            x       y       z     vdW  Elec       q    Type
REMARK                         _______ _______ _______ _____ _____    ______ ____
ROOT
ATOM      1  S   UNL     1       6.447   4.751  16.330  0.00  0.00    +0.000 S 
ATOM      2  O   UNL     1       7.707   4.464  16.979  0.00  0.00    +0.000 OA
ATOM      3  O   UNL     1       5.754   6.001  16.563  0.00  0.00    +0.000 OA
ENDROOT
BRANCH   1   8
ATOM      4  C   UNL     1       6.081   3.580  12.467  0.00  0.00    +0.000 A 
ATOM      5  C   UNL     1       7.087   4.319  11.825  0.00  0.00    +0.000 A 
ATOM      6  C   UNL     1       7.889   5.189  12.565  0.00  0.00    +0.000 A 
ATOM      7  C   UNL     1       7.697   5.319  13.943  0.00  0.00    +0.000 A 
ATOM      8  C   UNL     1       6.696   4.573  14.576  0.00  0.00    +0.000 A 
ATOM      9  C   UNL     1       5.871   3.710  13.844  0.00  0.00    +0.000 A 
BRANCH   4  11
ATOM     10  O   UNL     1       5.729   1.547  11.404  0.00  0.00    +0.000 OA
ATOM     11  N   UNL     1       5.250   2.656  11.684  0.00  0.00    +0.000 N 
ATOM     12  O   UNL     1       4.117   3.034  11.357  0.00  0.00    +0.000 OA
ENDBRANCH   4  11
ENDBRANCH   1   8
BRANCH   1  13
ATOM     13  N   UNL     1       5.430   3.465  16.684  0.00  0.00    +0.000 N 
ATOM     14  H   UNL     1       5.812   2.534  16.526  0.00  0.00    +0.000 HD
BRANCH  13  15
ATOM     15  C   UNL     1       4.338   3.653  17.560  0.00  0.00    +0.000 A 
ATOM     16  C   UNL     1       3.053   3.665  17.020  0.00  0.00    +0.000 A 
ATOM     17  C   UNL     1       1.956   3.911  17.843  0.00  0.00    +0.000 A 
ATOM     18  C   UNL     1       2.148   4.123  19.209  0.00  0.00    +0.000 A 
ATOM     19  C   UNL     1       3.433   4.076  19.752  0.00  0.00    +0.000 A 
ATOM     20  C   UNL     1       4.534   3.839  18.926  0.00  0.00    +0.000 A 
ENDBRANCH  13  15
ENDBRANCH   1  13
TORSDOF 4
ENDMDL
MODEL 2
REMARK VINA RESULT:      -7.5      0.078      1.321
REMARK  Name = 
REMARK  4 active torsions:
REMARK  status: ('A' for Active; 'I' for Inactive)
REMARK    1  A    between atoms: N_2  and  C_4
REMARK    2  A    between atoms: C_8  and  S_9
REMARK    3  A    between atoms: S_9  and  N_12
REMARK    4  A    between atoms: N_12  and  C_13
REMARK                            x       y       z     vdW  Elec       q    Type
REMARK                         _______ _______ _______ _____ _____    ______ ____
ROOT
ATOM      1  S   UNL     1       6.455   4.762  16.328  0.00  0.00    +0.000 S 
ATOM      2  O   UNL     1       7.724   4.506  16.973  0.00  0.00    +0.000 OA
ATOM      3  O   UNL     1       5.737   5.998  16.557  0.00  0.00    +0.000 OA
ENDROOT
BRANCH   1   8
ATOM      4  C   UNL     1       6.080   3.579  12.470  0.00  0.00    +0.000 A 
ATOM      5  C   UNL     1       7.086   4.316  11.823  0.00  0.00    +0.000 A 
ATOM      6  C   UNL     1       7.889   5.188  12.559  0.00  0.00    +0.000 A 
ATOM      7  C   UNL     1       7.700   5.322  13.937  0.00  0.00    +0.000 A 
ATOM      8  C   UNL     1       6.701   4.579  14.575  0.00  0.00    +0.000 A 
ATOM      9  C   UNL     1       5.873   3.714  13.847  0.00  0.00    +0.000 A 
BRANCH   4  11
ATOM     10  O   UNL     1       4.110   3.029  11.375  0.00  0.00    +0.000 OA
ATOM     11  N   UNL     1       5.248   2.653  11.691  0.00  0.00    +0.000 N 
ATOM     12  O   UNL     1       5.735   1.556  11.387  0.00  0.00    +0.000 OA
ENDBRANCH   4  11
ENDBRANCH   1   8
BRANCH   1  13
ATOM     13  N   UNL     1       5.468   3.457  16.694  0.00  0.00    +0.000 N 
ATOM     14  H   UNL     1       5.883   2.534  16.582  0.00  0.00    +0.000 HD
BRANCH  13  15
ATOM     15  C   UNL     1       4.341   3.640  17.527  0.00  0.00    +0.000 A 
ATOM     16  C   UNL     1       4.548   3.762  18.900  0.00  0.00    +0.000 A 
ATOM     17  C   UNL     1       3.458   3.880  19.759  0.00  0.00    +0.000 A 
ATOM     18  C   UNL     1       2.164   3.899  19.238  0.00  0.00    +0.000 A 
ATOM     19  C   UNL     1       1.962   3.811  17.860  0.00  0.00    +0.000 A 
ATOM     20  C   UNL     1       3.054   3.683  16.998  0.00  0.00    +0.000 A 
ENDBRANCH  13  15
ENDBRANCH   1  13
TORSDOF 4
ENDMDL
MODEL 3
REMARK VINA RESULT:      -7.3      2.712      3.652
REMARK  Name = 
REMARK  4 active torsions:
REMARK  status: ('A' for Active; 'I' for Inactive)
REMARK    1  A    between atoms: N_2  and  C_4
REMARK    2  A    between atoms: C_8  and  S_9
REMARK    3  A    between atoms: S_9  and  N_12
REMARK    4  A    between atoms: N_12  and  C_13
REMARK                            x       y       z     vdW  Elec       q    Type
REMARK                         _______ _______ _______ _____ _____    ______ ____
ROOT
ATOM      1  S   UNL     1       5.457   4.766  19.257  0.00  0.00    +0.000 S 
ATOM      2  O   UNL     1       5.315   3.333  19.127  0.00  0.00    +0.000 OA
ATOM      3  O   UNL     1       6.583   5.344  19.960  0.00  0.00    +0.000 OA
ENDROOT
BRANCH   1   8
ATOM      4  C   UNL     1       6.089   5.397  15.303  0.00  0.00    +0.000 A 
ATOM      5  C   UNL     1       5.319   6.543  15.047  0.00  0.00    +0.000 A 
ATOM      6  C   UNL     1       4.593   7.136  16.081  0.00  0.00    +0.000 A 
ATOM      7  C   UNL     1       4.637   6.596  17.369  0.00  0.00    +0.000 A 
ATOM      8  C   UNL     1       5.413   5.458  17.617  0.00  0.00    +0.000 A 
ATOM      9  C   UNL     1       6.132   4.840  16.586  0.00  0.00    +0.000 A 
BRANCH   4  11
ATOM     10  O   UNL     1       6.433   3.731  13.725  0.00  0.00    +0.000 OA
ATOM     11  N   UNL     1       6.861   4.786  14.213  0.00  0.00    +0.000 N 
ATOM     12  O   UNL     1       7.889   5.367  13.840  0.00  0.00    +0.000 OA
ENDBRANCH   4  11
ENDBRANCH   1   8
BRANCH   1  13
ATOM     13  N   UNL     1       4.024   5.325  19.925  0.00  0.00    +0.000 N 
ATOM     14  H   UNL     1       3.948   6.333  20.046  0.00  0.00    +0.000 HD
BRANCH  13  15
ATOM     15  C   UNL     1       2.865   4.519  19.875  0.00  0.00    +0.000 A 
ATOM     16  C   UNL     1       2.414   3.937  21.058  0.00  0.00    +0.000 A 
ATOM     17  C   UNL     1       1.312   3.085  21.038  0.00  0.00    +0.000 A 
ATOM     18  C   UNL     1       0.650   2.837  19.835  0.00  0.00    +0.000 A 
ATOM     19  C   UNL     1       1.084   3.448  18.657  0.00  0.00    +0.000 A 
ATOM     20  C   UNL     1       2.195   4.294  18.675  0.00  0.00    +0.000 A 
ENDBRANCH  13  15
ENDBRANCH   1  13
TORSDOF 4
ENDMDL
MODEL 4
REMARK VINA RESULT:      -7.3      2.712      3.511
REMARK  Name = 
REMARK  4 active torsions:
REMARK  status: ('A' for Active; 'I' for Inactive)
REMARK    1  A    between atoms: N_2  and  C_4
REMARK    2  A    between atoms: C_8  and  S_9
REMARK    3  A    between atoms: S_9  and  N_12
REMARK    4  A    between atoms: N_12  and  C_13
REMARK                            x       y       z     vdW  Elec       q    Type
REMARK                         _______ _______ _______ _____ _____    ______ ____
ROOT
ATOM      1  S   UNL     1       5.501   4.771  19.265  0.00  0.00    +0.000 S 
ATOM      2  O   UNL     1       5.382   3.336  19.137  0.00  0.00    +0.000 OA
ATOM      3  O   UNL     1       6.619   5.368  19.965  0.00  0.00    +0.000 OA
ENDROOT
BRANCH   1   8
ATOM      4  C   UNL     1       6.097   5.400  15.306  0.00  0.00    +0.000 A 
ATOM      5  C   UNL     1       5.319   6.543  15.055  0.00  0.00    +0.000 A 
ATOM      6  C   UNL     1       4.599   7.133  16.095  0.00  0.00    +0.000 A 
ATOM      7  C   UNL     1       4.656   6.595  17.383  0.00  0.00    +0.000 A 
ATOM      8  C   UNL     1       5.439   5.461  17.625  0.00  0.00    +0.000 A 
ATOM      9  C   UNL     1       6.153   4.845  16.589  0.00  0.00    +0.000 A 
BRANCH   4  11
ATOM     10  O   UNL     1       7.901   5.365  13.847  0.00  0.00    +0.000 OA
ATOM     11  N   UNL     1       6.863   4.793  14.211  0.00  0.00    +0.000 N 
ATOM     12  O   UNL     1       6.435   3.739  13.722  0.00  0.00    +0.000 OA
ENDBRANCH   4  11
ENDBRANCH   1   8
BRANCH   1  13
ATOM     13  N   UNL     1       4.060   5.306  19.937  0.00  0.00    +0.000 N 
ATOM     14  H   UNL     1       3.954   6.315  20.026  0.00  0.00    +0.000 HD
BRANCH  13  15
ATOM     15  C   UNL     1       2.927   4.462  19.933  0.00  0.00    +0.000 A 
ATOM     16  C   UNL     1       2.258   4.263  18.726  0.00  0.00    +0.000 A 
ATOM     17  C   UNL     1       1.100   3.488  18.694  0.00  0.00    +0.000 A 
ATOM     18  C   UNL     1       0.628   2.898  19.867  0.00  0.00    +0.000 A 
ATOM     19  C   UNL     1       1.320   3.073  21.067  0.00  0.00    +0.000 A 
ATOM     20  C   UNL     1       2.475   3.856  21.102  0.00  0.00    +0.000 A 
ENDBRANCH  13  15
ENDBRANCH   1  13
TORSDOF 4
ENDMDL
MODEL 5
REMARK VINA RESULT:      -7.2      3.827      5.364
REMARK  Name = 
REMARK  4 active torsions:
REMARK  status: ('A' for Active; 'I' for Inactive)
REMARK    1  A    between atoms: N_2  and  C_4
REMARK    2  A    between atoms: C_8  and  S_9
REMARK    3  A    between atoms: S_9  and  N_12
REMARK    4  A    between atoms: N_12  and  C_13
REMARK                            x       y       z     vdW  Elec       q    Type
REMARK                         _______ _______ _______ _____ _____    ______ ____
ROOT
ATOM      1  S   UNL     1       3.522   2.721  18.684  0.00  0.00    +0.000 S 
ATOM      2  O   UNL     1       3.393   1.553  17.841  0.00  0.00    +0.000 OA
ATOM      3  O   UNL     1       3.753   2.593  20.107  0.00  0.00    +0.000 OA
ENDROOT
BRANCH   1   8
ATOM      4  C   UNL     1       6.724   5.178  18.307  0.00  0.00    +0.000 A 
ATOM      5  C   UNL     1       6.857   5.299  16.914  0.00  0.00    +0.000 A 
ATOM      6  C   UNL     1       5.970   4.626  16.071  0.00  0.00    +0.000 A 
ATOM      7  C   UNL     1       4.949   3.841  16.611  0.00  0.00    +0.000 A 
ATOM      8  C   UNL     1       4.819   3.732  18.000  0.00  0.00    +0.000 A 
ATOM      9  C   UNL     1       5.712   4.385  18.859  0.00  0.00    +0.000 A 
BRANCH   4  11
ATOM     10  O   UNL     1       7.833   5.448  20.327  0.00  0.00    +0.000 OA
ATOM     11  N   UNL     1       7.652   5.900  19.187  0.00  0.00    +0.000 N 
ATOM     12  O   UNL     1       8.207   6.910  18.736  0.00  0.00    +0.000 OA
ENDBRANCH   4  11
ENDBRANCH   1   8
BRANCH   1  13
ATOM     13  N   UNL     1       2.155   3.653  18.412  0.00  0.00    +0.000 N 
ATOM     14  H   UNL     1       1.303   3.144  18.181  0.00  0.00    +0.000 HD
BRANCH  13  15
ATOM     15  C   UNL     1       2.088   4.968  18.923  0.00  0.00    +0.000 A 
ATOM     16  C   UNL     1       2.407   6.025  18.071  0.00  0.00    +0.000 A 
ATOM     17  C   UNL     1       2.414   7.330  18.556  0.00  0.00    +0.000 A 
ATOM     18  C   UNL     1       2.081   7.577  19.888  0.00  0.00    +0.000 A 
ATOM     19  C   UNL     1       1.730   6.520  20.730  0.00  0.00    +0.000 A 
ATOM     20  C   UNL     1       1.731   5.210  20.247  0.00  0.00    +0.000 A 
ENDBRANCH  13  15
ENDBRANCH   1  13
TORSDOF 4
ENDMDL
MODEL 6
REMARK VINA RESULT:      -7.2      2.631      6.212
REMARK  Name = 
REMARK  4 active torsions:
REMARK  status: ('A' for Active; 'I' for Inactive)
REMARK    1  A    between atoms: N_2  and  C_4
REMARK    2  A    between atoms: C_8  and  S_9
REMARK    3  A    between atoms: S_9  and  N_12
REMARK    4  A    between atoms: N_12  and  C_13
REMARK                            x       y       z     vdW  Elec       q    Type
REMARK                         _______ _______ _______ _____ _____    ______ ____
ROOT
ATOM      1  S   UNL     1       5.806   6.433  16.398  0.00  0.00    +0.000 S 
ATOM      2  O   UNL     1       5.090   6.890  15.228  0.00  0.00    +0.000 OA
ATOM      3  O   UNL     1       6.598   7.347  17.194  0.00  0.00    +0.000 OA
ENDROOT
BRANCH   1   8
ATOM      4  C   UNL     1       3.925   3.723  18.752  0.00  0.00    +0.000 A 
ATOM      5  C   UNL     1       2.778   4.420  19.168  0.00  0.00    +0.000 A 
ATOM      6  C   UNL     1       2.567   5.730  18.735  0.00  0.00    +0.000 A 
ATOM      7  C   UNL     1       3.490   6.345  17.886  0.00  0.00    +0.000 A 
ATOM      8  C   UNL     1       4.627   5.641  17.471  0.00  0.00    +0.000 A 
ATOM      9  C   UNL     1       4.862   4.332  17.911  0.00  0.00    +0.000 A 
BRANCH   4  11
ATOM     10  O   UNL     1       3.590   1.436  18.547  0.00  0.00    +0.000 OA
ATOM     11  N   UNL     1       4.132   2.340  19.200  0.00  0.00    +0.000 N 
ATOM     12  O   UNL     1       4.844   2.156  20.196  0.00  0.00    +0.000 OA
ENDBRANCH   4  11
ENDBRANCH   1   8
BRANCH   1  13
ATOM     13  N   UNL     1       6.759   5.148  15.896  0.00  0.00    +0.000 N 
ATOM     14  H   UNL     1       7.033   4.483  16.617  0.00  0.00    +0.000 HD
BRANCH  13  15
ATOM     15  C   UNL     1       6.773   4.774  14.534  0.00  0.00    +0.000 A 
ATOM     16  C   UNL     1       5.862   3.810  14.104  0.00  0.00    +0.000 A 
ATOM     17  C   UNL     1       5.888   3.370  12.782  0.00  0.00    +0.000 A 
ATOM     18  C   UNL     1       6.812   3.913  11.889  0.00  0.00    +0.000 A 
ATOM     19  C   UNL     1       7.700   4.902  12.314  0.00  0.00    +0.000 A 
ATOM     20  C   UNL     1       7.682   5.337  13.641  0.00  0.00    +0.000 A 
ENDBRANCH  13  15
ENDBRANCH   1  13
TORSDOF 4
ENDMDL
MODEL 7
REMARK VINA RESULT:      -7.2      2.678      5.936
REMARK  Name = 
REMARK  4 active torsions:
REMARK  status: ('A' for Active; 'I' for Inactive)
REMARK    1  A    between atoms: N_2  and  C_4
REMARK    2  A    between atoms: C_8  and  S_9
REMARK    3  A    between atoms: S_9  and  N_12
REMARK    4  A    between atoms: N_12  and  C_13
REMARK                            x       y       z     vdW  Elec       q    Type
REMARK                         _______ _______ _______ _____ _____    ______ ____
ROOT
ATOM      1  S   UNL     1       6.233   6.474  16.342  0.00  0.00    +0.000 S 
ATOM      2  O   UNL     1       5.343   6.873  15.274  0.00  0.00    +0.000 OA
ATOM      3  O   UNL     1       6.972   7.458  17.105  0.00  0.00    +0.000 OA
ENDROOT
BRANCH   1   8
ATOM      4  C   UNL     1       3.381   4.087  17.952  0.00  0.00    +0.000 A 
ATOM      5  C   UNL     1       3.831   3.916  19.272  0.00  0.00    +0.000 A 
ATOM      6  C   UNL     1       5.016   4.527  19.684  0.00  0.00    +0.000 A 
ATOM      7  C   UNL     1       5.750   5.312  18.791  0.00  0.00    +0.000 A 
ATOM      8  C   UNL     1       5.290   5.483  17.480  0.00  0.00    +0.000 A 
ATOM      9  C   UNL     1       4.112   4.861  17.045  0.00  0.00    +0.000 A 
BRANCH   4  11
ATOM     10  O   UNL     1       1.138   4.183  17.365  0.00  0.00    +0.000 OA
ATOM     11  N   UNL     1       2.126   3.453  17.529  0.00  0.00    +0.000 N 
ATOM     12  O   UNL     1       2.130   2.227  17.350  0.00  0.00    +0.000 OA
ENDBRANCH   4  11
ENDBRANCH   1   8
BRANCH   1  13
ATOM     13  N   UNL     1       7.294   5.357  15.680  0.00  0.00    +0.000 N 
ATOM     14  H   UNL     1       7.854   4.822  16.343  0.00  0.00    +0.000 HD
BRANCH  13  15
ATOM     15  C   UNL     1       7.080   4.876  14.370  0.00  0.00    +0.000 A 
ATOM     16  C   UNL     1       6.160   3.844  14.187  0.00  0.00    +0.000 A 
ATOM     17  C   UNL     1       5.969   3.301  12.918  0.00  0.00    +0.000 A 
ATOM     18  C   UNL     1       6.683   3.807  11.832  0.00  0.00    +0.000 A 
ATOM     19  C   UNL     1       7.578   4.863  12.013  0.00  0.00    +0.000 A 
ATOM     20  C   UNL     1       7.778   5.402  13.286  0.00  0.00    +0.000 A 
ENDBRANCH  13  15
ENDBRANCH   1  13
TORSDOF 4
ENDMDL
MODEL 8
REMARK VINA RESULT:      -7.2      3.024      4.327
REMARK  Name = 
REMARK  4 active torsions:
REMARK  status: ('A' for Active; 'I' for Inactive)
REMARK    1  A    between atoms: N_2  and  C_4
REMARK    2  A    between atoms: C_8  and  S_9
REMARK    3  A    between atoms: S_9  and  N_12
REMARK    4  A    between atoms: N_12  and  C_13
REMARK                            x       y       z     vdW  Elec       q    Type
REMARK                         _______ _______ _______ _____ _____    ______ ____
ROOT
ATOM      1  S   UNL     1       3.672   2.802  18.792  0.00  0.00    +0.000 S 
ATOM      2  O   UNL     1       3.645   1.646  17.924  0.00  0.00    +0.000 OA
ATOM      3  O   UNL     1       3.785   2.655  20.228  0.00  0.00    +0.000 OA
ENDROOT
BRANCH   1   8
ATOM      4  C   UNL     1       6.398   4.689  16.462  0.00  0.00    +0.000 A 
ATOM      5  C   UNL     1       7.052   5.533  17.374  0.00  0.00    +0.000 A 
ATOM      6  C   UNL     1       6.664   5.537  18.715  0.00  0.00    +0.000 A 
ATOM      7  C   UNL     1       5.633   4.701  19.150  0.00  0.00    +0.000 A 
ATOM      8  C   UNL     1       4.992   3.858  18.236  0.00  0.00    +0.000 A 
ATOM      9  C   UNL     1       5.357   3.854  16.883  0.00  0.00    +0.000 A 
BRANCH   4  11
ATOM     10  O   UNL     1       6.231   3.911  14.282  0.00  0.00    +0.000 OA
ATOM     11  N   UNL     1       6.822   4.678  15.055  0.00  0.00    +0.000 N 
ATOM     12  O   UNL     1       7.736   5.444  14.723  0.00  0.00    +0.000 OA
ENDBRANCH   4  11
ENDBRANCH   1   8
BRANCH   1  13
ATOM     13  N   UNL     1       2.306   3.702  18.421  0.00  0.00    +0.000 N 
ATOM     14  H   UNL     1       1.481   3.173  18.144  0.00  0.00    +0.000 HD
BRANCH  13  15
ATOM     15  C   UNL     1       2.182   5.022  18.907  0.00  0.00    +0.000 A 
ATOM     16  C   UNL     1       2.452   6.076  18.035  0.00  0.00    +0.000 A 
ATOM     17  C   UNL     1       2.402   7.390  18.495  0.00  0.00    +0.000 A 
ATOM     18  C   UNL     1       2.060   7.646  19.823  0.00  0.00    +0.000 A 
ATOM     19  C   UNL     1       1.758   6.591  20.686  0.00  0.00    +0.000 A 
ATOM     20  C   UNL     1       1.817   5.273  20.228  0.00  0.00    +0.000 A 
ENDBRANCH  13  15
ENDBRANCH   1  13
TORSDOF 4
ENDMDL
MODEL 9
REMARK VINA RESULT:      -7.2      2.691      5.946
REMARK  Name = 
REMARK  4 active torsions:
REMARK  status: ('A' for Active; 'I' for Inactive)
REMARK    1  A    between atoms: N_2  and  C_4
REMARK    2  A    between atoms: C_8  and  S_9
REMARK    3  A    between atoms: S_9  and  N_12
REMARK    4  A    between atoms: N_12  and  C_13
REMARK                            x       y       z     vdW  Elec       q    Type
REMARK                         _______ _______ _______ _____ _____    ______ ____
ROOT
ATOM      1  S   UNL     1       6.074   6.482  16.349  0.00  0.00    +0.000 S 
ATOM      2  O   UNL     1       5.156   6.802  15.279  0.00  0.00    +0.000 OA
ATOM      3  O   UNL     1       6.680   7.525  17.150  0.00  0.00    +0.000 OA
ENDROOT
BRANCH   1   8
ATOM      4  C   UNL     1       3.327   3.993  17.986  0.00  0.00    +0.000 A 
ATOM      5  C   UNL     1       3.960   3.567  19.165  0.00  0.00    +0.000 A 
ATOM      6  C   UNL     1       5.239   4.035  19.473  0.00  0.00    +0.000 A 
ATOM      7  C   UNL     1       5.884   4.929  18.615  0.00  0.00    +0.000 A 
ATOM      8  C   UNL     1       5.243   5.353  17.445  0.00  0.00    +0.000 A 
ATOM      9  C   UNL     1       3.968   4.878  17.113  0.00  0.00    +0.000 A 
BRANCH   4  11
ATOM     10  O   UNL     1       1.144   4.335  17.276  0.00  0.00    +0.000 OA
ATOM     11  N   UNL     1       1.976   3.507  17.676  0.00  0.00    +0.000 N 
ATOM     12  O   UNL     1       1.749   2.299  17.821  0.00  0.00    +0.000 OA
ENDBRANCH   4  11
ENDBRANCH   1   8
BRANCH   1  13
ATOM     13  N   UNL     1       7.269   5.519  15.674  0.00  0.00    +0.000 N 
ATOM     14  H   UNL     1       7.965   5.148  16.318  0.00  0.00    +0.000 HD
BRANCH  13  15
ATOM     15  C   UNL     1       7.049   4.901  14.423  0.00  0.00    +0.000 A 
ATOM     16  C   UNL     1       7.799   5.336  13.330  0.00  0.00    +0.000 A 
ATOM     17  C   UNL     1       7.566   4.794  12.068  0.00  0.00    +0.000 A 
ATOM     18  C   UNL     1       6.598   3.803  11.907  0.00  0.00    +0.000 A 
ATOM     19  C   UNL     1       5.872   3.346  13.009  0.00  0.00    +0.000 A 
ATOM     20  C   UNL     1       6.098   3.894  14.273  0.00  0.00    +0.000 A 
ENDBRANCH  13  15
ENDBRANCH   1  13
TORSDOF 4
ENDMDL
