MODEL 1
REMARK VINA RESULT:      -9.7      0.000      0.000
REMARK  Name = 
REMARK  7 active torsions:
REMARK  status: ('A' for Active; 'I' for Inactive)
REMARK    1  A    between atoms: C_1  and  C_2
REMARK    2  A    between atoms: C_5  and  C_6
REMARK    3  A    between atoms: N_8  and  C_9
REMARK    4  A    between atoms: C_13  and  C_14
REMARK    5  A    between atoms: C_14  and  C_15
REMARK    6  A    between atoms: C_14  and  C_16
REMARK    7  A    between atoms: C_19  and  N_20
REMARK                            x       y       z     vdW  Elec       q    Type
REMARK                         _______ _______ _______ _____ _____    ______ ____
ROOT
ATOM      1  C   UNL     1       1.433   5.236  20.915  0.00  0.00    +0.000 C 
ATOM      2  C   UNL     1       2.369   5.530  19.767  0.00  0.00    +0.000 A 
ATOM      3  C   UNL     1       3.091   4.436  19.263  0.00  0.00    +0.000 A 
ATOM      4  C   UNL     1       3.909   4.572  18.149  0.00  0.00    +0.000 A 
ATOM      5  C   UNL     1       4.018   5.804  17.504  0.00  0.00    +0.000 A 
ATOM      6  C   UNL     1       3.309   6.903  17.998  0.00  0.00    +0.000 A 
ATOM      7  C   UNL     1       2.499   6.806  19.155  0.00  0.00    +0.000 A 
ENDROOT
BRANCH   7   8
ATOM      8  N   UNL     1       1.799   7.920  19.636  0.00  0.00    +0.000 N 
ATOM      9  C   UNL     1       1.712   9.129  18.800  0.00  0.00    +0.000 C 
ATOM     10  C   UNL     1       0.372   9.791  19.082  0.00  0.00    +0.000 C 
ATOM     11  C   UNL     1       0.177   9.997  20.554  0.00  0.00    +0.000 A 
ATOM     12  N   UNL     1      -0.749  10.913  20.909  0.00  0.00    +0.000 NA
ATOM     13  C   UNL     1      -0.949  11.097  22.211  0.00  0.00    +0.000 A 
ATOM     14  N   UNL     1      -1.904  12.026  22.567  0.00  0.00    +0.000 N 
ATOM     15  N   UNL     1      -0.333  10.421  23.184  0.00  0.00    +0.000 NA
ATOM     16  C   UNL     1       0.582   9.508  22.794  0.00  0.00    +0.000 A 
ATOM     17  C   UNL     1       0.882   9.241  21.479  0.00  0.00    +0.000 A 
ATOM     18  C   UNL     1       1.933   8.245  21.070  0.00  0.00    +0.000 C 
ATOM     19  H   UNL     1      -2.556  12.130  21.802  0.00  0.00    +0.000 HD
ATOM     20  H   UNL     1      -2.283  11.785  23.467  0.00  0.00    +0.000 HD
ENDBRANCH   7   8
BRANCH   5  21
ATOM     21  C   UNL     1       4.851   5.853  16.273  0.00  0.00    +0.000 C 
ATOM     22  O   UNL     1       4.971   6.961  15.746  0.00  0.00    +0.000 OA
ATOM     23  N   UNL     1       5.347   4.659  15.778  0.00  0.00    +0.000 N 
ATOM     24  H   UNL     1       5.025   3.796  16.198  0.00  0.00    +0.000 HD
BRANCH  23  25
ATOM     25  C   UNL     1       6.072   4.533  14.559  0.00  0.00    +0.000 A 
ATOM     26  C   UNL     1       7.230   5.271  14.299  0.00  0.00    +0.000 A 
ATOM     27  C   UNL     1       7.872   5.194  13.065  0.00  0.00    +0.000 A 
ATOM     28  C   UNL     1       7.365   4.370  12.066  0.00  0.00    +0.000 A 
ATOM     29  C   UNL     1       6.215   3.600  12.290  0.00  0.00    +0.000 A 
ATOM     30  C   UNL     1       5.595   3.667  13.558  0.00  0.00    +0.000 A 
BRANCH  29  31
ATOM     31  C   UNL     1       5.607   2.767  11.169  0.00  0.00    +0.000 C 
ATOM     32  C   UNL     1       6.051   1.300  11.259  0.00  0.00    +0.000 C 
ATOM     33  C   UNL     1       4.078   2.842  11.134  0.00  0.00    +0.000 C 
ENDBRANCH  29  31
ENDBRANCH  23  25
ENDBRANCH   5  21
TORSDOF 4
ENDMDL
MODEL 2
REMARK VINA RESULT:      -9.1      0.933      1.608
REMARK  Name = 
REMARK  7 active torsions:
REMARK  status: ('A' for Active; 'I' for Inactive)
REMARK    1  A    between atoms: C_1  and  C_2
REMARK    2  A    between atoms: C_5  and  C_6
REMARK    3  A    between atoms: N_8  and  C_9
REMARK    4  A    between atoms: C_13  and  C_14
REMARK    5  A    between atoms: C_14  and  C_15
REMARK    6  A    between atoms: C_14  and  C_16
REMARK    7  A    between atoms: C_19  and  N_20
REMARK                            x       y       z     vdW  Elec       q    Type
REMARK                         _______ _______ _______ _____ _____    ______ ____
ROOT
ATOM      1  C   UNL     1       1.859   5.106  21.068  0.00  0.00    +0.000 C 
ATOM      2  C   UNL     1       2.713   5.416  19.862  0.00  0.00    +0.000 A 
ATOM      3  C   UNL     1       3.419   4.334  19.310  0.00  0.00    +0.000 A 
ATOM      4  C   UNL     1       4.159   4.484  18.145  0.00  0.00    +0.000 A 
ATOM      5  C   UNL     1       4.205   5.717  17.496  0.00  0.00    +0.000 A 
ATOM      6  C   UNL     1       3.512   6.805  18.036  0.00  0.00    +0.000 A 
ATOM      7  C   UNL     1       2.782   6.694  19.244  0.00  0.00    +0.000 A 
ENDROOT
BRANCH   7   8
ATOM      8  N   UNL     1       2.096   7.796  19.771  0.00  0.00    +0.000 N 
ATOM      9  C   UNL     1       1.186   7.598  20.912  0.00  0.00    +0.000 C 
ATOM     10  C   UNL     1       1.224   8.860  21.759  0.00  0.00    +0.000 C 
ATOM     11  C   UNL     1       0.967  10.075  20.919  0.00  0.00    +0.000 A 
ATOM     12  N   UNL     1       0.577  11.184  21.583  0.00  0.00    +0.000 NA
ATOM     13  C   UNL     1       0.362  12.278  20.857  0.00  0.00    +0.000 A 
ATOM     14  N   UNL     1      -0.027  13.411  21.541  0.00  0.00    +0.000 N 
ATOM     15  N   UNL     1       0.538  12.368  19.536  0.00  0.00    +0.000 NA
ATOM     16  C   UNL     1       0.934  11.242  18.905  0.00  0.00    +0.000 A 
ATOM     17  C   UNL     1       1.176  10.051  19.549  0.00  0.00    +0.000 A 
ATOM     18  C   UNL     1       1.581   8.800  18.818  0.00  0.00    +0.000 C 
ATOM     19  H   UNL     1       0.287  13.334  22.499  0.00  0.00    +0.000 HD
ATOM     20  H   UNL     1       0.261  14.225  21.026  0.00  0.00    +0.000 HD
ENDBRANCH   7   8
BRANCH   5  21
ATOM     21  C   UNL     1       4.954   5.780  16.212  0.00  0.00    +0.000 C 
ATOM     22  O   UNL     1       4.918   6.860  15.618  0.00  0.00    +0.000 OA
ATOM     23  N   UNL     1       5.552   4.619  15.752  0.00  0.00    +0.000 N 
ATOM     24  H   UNL     1       5.354   3.753  16.240  0.00  0.00    +0.000 HD
BRANCH  23  25
ATOM     25  C   UNL     1       6.214   4.497  14.498  0.00  0.00    +0.000 A 
ATOM     26  C   UNL     1       7.367   5.225  14.189  0.00  0.00    +0.000 A 
ATOM     27  C   UNL     1       7.947   5.153  12.924  0.00  0.00    +0.000 A 
ATOM     28  C   UNL     1       7.381   4.345  11.943  0.00  0.00    +0.000 A 
ATOM     29  C   UNL     1       6.234   3.586  12.216  0.00  0.00    +0.000 A 
ATOM     30  C   UNL     1       5.678   3.647  13.514  0.00  0.00    +0.000 A 
BRANCH  29  31
ATOM     31  C   UNL     1       5.562   2.772  11.119  0.00  0.00    +0.000 C 
ATOM     32  C   UNL     1       5.929   1.285  11.222  0.00  0.00    +0.000 C 
ATOM     33  C   UNL     1       4.038   2.928  11.110  0.00  0.00    +0.000 C 
ENDBRANCH  29  31
ENDBRANCH  23  25
ENDBRANCH   5  21
TORSDOF 4
ENDMDL
MODEL 3
REMARK VINA RESULT:      -8.9      3.139      5.527
REMARK  Name = 
REMARK  7 active torsions:
REMARK  status: ('A' for Active; 'I' for Inactive)
REMARK    1  A    between atoms: C_1  and  C_2
REMARK    2  A    between atoms: C_5  and  C_6
REMARK    3  A    between atoms: N_8  and  C_9
REMARK    4  A    between atoms: C_13  and  C_14
REMARK    5  A    between atoms: C_14  and  C_15
REMARK    6  A    between atoms: C_14  and  C_16
REMARK    7  A    between atoms: C_19  and  N_20
REMARK                            x       y       z     vdW  Elec       q    Type
REMARK                         _______ _______ _______ _____ _____    ______ ____
ROOT
ATOM      1  C   UNL     1      -0.842  10.763  22.906  0.00  0.00    +0.000 C 
ATOM      2  C   UNL     1       0.005  10.164  21.808  0.00  0.00    +0.000 A 
ATOM      3  C   UNL     1       0.487   8.865  22.038  0.00  0.00    +0.000 A 
ATOM      4  C   UNL     1       1.195   8.183  21.059  0.00  0.00    +0.000 A 
ATOM      5  C   UNL     1       1.433   8.777  19.820  0.00  0.00    +0.000 A 
ATOM      6  C   UNL     1       0.964  10.072  19.578  0.00  0.00    +0.000 A 
ATOM      7  C   UNL     1       0.274  10.810  20.571  0.00  0.00    +0.000 A 
ENDROOT
BRANCH   7   8
ATOM      8  N   UNL     1      -0.185  12.107  20.311  0.00  0.00    +0.000 N 
ATOM      9  C   UNL     1      -1.587  12.306  19.908  0.00  0.00    +0.000 C 
ATOM     10  C   UNL     1      -2.039  13.651  20.454  0.00  0.00    +0.000 C 
ATOM     11  C   UNL     1      -1.084  14.737  20.058  0.00  0.00    +0.000 A 
ATOM     12  N   UNL     1      -1.559  15.999  20.120  0.00  0.00    +0.000 NA
ATOM     13  C   UNL     1      -0.721  16.978  19.790  0.00  0.00    +0.000 A 
ATOM     14  N   UNL     1      -1.208  18.266  19.866  0.00  0.00    +0.000 N 
ATOM     15  N   UNL     1       0.557  16.806  19.440  0.00  0.00    +0.000 NA
ATOM     16  C   UNL     1       1.001  15.532  19.393  0.00  0.00    +0.000 A 
ATOM     17  C   UNL     1       0.223  14.441  19.701  0.00  0.00    +0.000 A 
ATOM     18  C   UNL     1       0.731  13.028  19.606  0.00  0.00    +0.000 C 
ATOM     19  H   UNL     1      -1.980  18.281  20.519  0.00  0.00    +0.000 HD
ATOM     20  H   UNL     1      -0.447  18.900  20.037  0.00  0.00    +0.000 HD
ENDBRANCH   7   8
BRANCH   5  21
ATOM     21  C   UNL     1       2.131   7.955  18.796  0.00  0.00    +0.000 C 
ATOM     22  O   UNL     1       2.189   8.438  17.663  0.00  0.00    +0.000 OA
ATOM     23  N   UNL     1       2.578   6.699  19.167  0.00  0.00    +0.000 N 
ATOM     24  H   UNL     1       2.307   6.343  20.076  0.00  0.00    +0.000 HD
BRANCH  23  25
ATOM     25  C   UNL     1       3.171   5.759  18.276  0.00  0.00    +0.000 A 
ATOM     26  C   UNL     1       2.522   4.582  17.894  0.00  0.00    +0.000 A 
ATOM     27  C   UNL     1       3.157   3.638  17.090  0.00  0.00    +0.000 A 
ATOM     28  C   UNL     1       4.459   3.858  16.651  0.00  0.00    +0.000 A 
ATOM     29  C   UNL     1       5.140   5.033  16.998  0.00  0.00    +0.000 A 
ATOM     30  C   UNL     1       4.469   5.994  17.788  0.00  0.00    +0.000 A 
BRANCH  29  31
ATOM     31  C   UNL     1       6.594   5.236  16.594  0.00  0.00    +0.000 C 
ATOM     32  C   UNL     1       7.552   4.700  17.667  0.00  0.00    +0.000 C 
ATOM     33  C   UNL     1       6.930   4.603  15.240  0.00  0.00    +0.000 C 
ENDBRANCH  29  31
ENDBRANCH  23  25
ENDBRANCH   5  21
TORSDOF 4
ENDMDL
MODEL 4
REMARK VINA RESULT:      -8.8      3.500      5.874
REMARK  Name = 
REMARK  7 active torsions:
REMARK  status: ('A' for Active; 'I' for Inactive)
REMARK    1  A    between atoms: C_1  and  C_2
REMARK    2  A    between atoms: C_5  and  C_6
REMARK    3  A    between atoms: N_8  and  C_9
REMARK    4  A    between atoms: C_13  and  C_14
REMARK    5  A    between atoms: C_14  and  C_15
REMARK    6  A    between atoms: C_14  and  C_16
REMARK    7  A    between atoms: C_19  and  N_20
REMARK                            x       y       z     vdW  Elec       q    Type
REMARK                         _______ _______ _______ _____ _____    ______ ____
ROOT
ATOM      1  C   UNL     1      -0.968  11.700  22.610  0.00  0.00    +0.000 C 
ATOM      2  C   UNL     1      -0.139  10.649  21.910  0.00  0.00    +0.000 A 
ATOM      3  C   UNL     1      -0.078   9.393  22.534  0.00  0.00    +0.000 A 
ATOM      4  C   UNL     1       0.575   8.327  21.932  0.00  0.00    +0.000 A 
ATOM      5  C   UNL     1       1.178   8.486  20.685  0.00  0.00    +0.000 A 
ATOM      6  C   UNL     1       1.130   9.733  20.053  0.00  0.00    +0.000 A 
ATOM      7  C   UNL     1       0.507  10.850  20.659  0.00  0.00    +0.000 A 
ENDROOT
BRANCH   7   8
ATOM      8  N   UNL     1       0.472  12.091  20.012  0.00  0.00    +0.000 N 
ATOM      9  C   UNL     1      -0.584  12.355  19.020  0.00  0.00    +0.000 C 
ATOM     10  C   UNL     1      -0.918  13.837  19.082  0.00  0.00    +0.000 C 
ATOM     11  C   UNL     1       0.322  14.670  18.956  0.00  0.00    +0.000 A 
ATOM     12  N   UNL     1       0.138  15.957  18.594  0.00  0.00    +0.000 NA
ATOM     13  C   UNL     1       1.225  16.718  18.494  0.00  0.00    +0.000 A 
ATOM     14  N   UNL     1       1.031  18.035  18.134  0.00  0.00    +0.000 N 
ATOM     15  N   UNL     1       2.471  16.313  18.760  0.00  0.00    +0.000 NA
ATOM     16  C   UNL     1       2.617  15.022  19.125  0.00  0.00    +0.000 A 
ATOM     17  C   UNL     1       1.569  14.140  19.250  0.00  0.00    +0.000 A 
ATOM     18  C   UNL     1       1.762  12.696  19.623  0.00  0.00    +0.000 C 
ATOM     19  H   UNL     1       0.088  18.302  18.380  0.00  0.00    +0.000 HD
ATOM     20  H   UNL     1       1.780  18.595  18.504  0.00  0.00    +0.000 HD
ENDBRANCH   7   8
BRANCH   5  21
ATOM     21  C   UNL     1       1.791   7.279  20.069  0.00  0.00    +0.000 C 
ATOM     22  O   UNL     1       1.874   6.285  20.794  0.00  0.00    +0.000 OA
ATOM     23  N   UNL     1       2.287   7.389  18.781  0.00  0.00    +0.000 N 
ATOM     24  H   UNL     1       2.325   8.309  18.359  0.00  0.00    +0.000 HD
BRANCH  23  25
ATOM     25  C   UNL     1       2.989   6.356  18.098  0.00  0.00    +0.000 A 
ATOM     26  C   UNL     1       2.465   5.069  17.950  0.00  0.00    +0.000 A 
ATOM     27  C   UNL     1       3.207   4.052  17.353  0.00  0.00    +0.000 A 
ATOM     28  C   UNL     1       4.494   4.309  16.890  0.00  0.00    +0.000 A 
ATOM     29  C   UNL     1       5.052   5.590  17.004  0.00  0.00    +0.000 A 
ATOM     30  C   UNL     1       4.272   6.616  17.583  0.00  0.00    +0.000 A 
BRANCH  29  31
ATOM     31  C   UNL     1       6.491   5.850  16.580  0.00  0.00    +0.000 C 
ATOM     32  C   UNL     1       7.437   5.859  17.788  0.00  0.00    +0.000 C 
ATOM     33  C   UNL     1       6.996   4.848  15.537  0.00  0.00    +0.000 C 
ENDBRANCH  29  31
ENDBRANCH  23  25
ENDBRANCH   5  21
TORSDOF 4
ENDMDL
MODEL 5
REMARK VINA RESULT:      -8.8      3.640      6.088
REMARK  Name = 
REMARK  7 active torsions:
REMARK  status: ('A' for Active; 'I' for Inactive)
REMARK    1  A    between atoms: C_1  and  C_2
REMARK    2  A    between atoms: C_5  and  C_6
REMARK    3  A    between atoms: N_8  and  C_9
REMARK    4  A    between atoms: C_13  and  C_14
REMARK    5  A    between atoms: C_14  and  C_15
REMARK    6  A    between atoms: C_14  and  C_16
REMARK    7  A    between atoms: C_19  and  N_20
REMARK                            x       y       z     vdW  Elec       q    Type
REMARK                         _______ _______ _______ _____ _____    ______ ____
ROOT
ATOM      1  C   UNL     1      -1.236  11.947  22.566  0.00  0.00    +0.000 C 
ATOM      2  C   UNL     1      -0.356  10.892  21.938  0.00  0.00    +0.000 A 
ATOM      3  C   UNL     1      -0.360   9.634  22.561  0.00  0.00    +0.000 A 
ATOM      4  C   UNL     1       0.336   8.564  22.016  0.00  0.00    +0.000 A 
ATOM      5  C   UNL     1       1.048   8.723  20.827  0.00  0.00    +0.000 A 
ATOM      6  C   UNL     1       1.065   9.971  20.197  0.00  0.00    +0.000 A 
ATOM      7  C   UNL     1       0.399  11.091  20.750  0.00  0.00    +0.000 A 
ENDROOT
BRANCH   7   8
ATOM      8  N   UNL     1       0.430  12.334  20.106  0.00  0.00    +0.000 N 
ATOM      9  C   UNL     1      -0.465  12.574  18.962  0.00  0.00    +0.000 C 
ATOM     10  C   UNL     1      -0.847  14.046  18.973  0.00  0.00    +0.000 C 
ATOM     11  C   UNL     1       0.374  14.914  19.042  0.00  0.00    +0.000 A 
ATOM     12  N   UNL     1       0.213  16.197  18.657  0.00  0.00    +0.000 NA
ATOM     13  C   UNL     1       1.280  16.988  18.729  0.00  0.00    +0.000 A 
ATOM     14  N   UNL     1       1.107  18.301  18.344  0.00  0.00    +0.000 N 
ATOM     15  N   UNL     1       2.480  16.617  19.185  0.00  0.00    +0.000 NA
ATOM     16  C   UNL     1       2.604  15.328  19.567  0.00  0.00    +0.000 A 
ATOM     17  C   UNL     1       1.574  14.417  19.526  0.00  0.00    +0.000 A 
ATOM     18  C   UNL     1       1.748  12.977  19.924  0.00  0.00    +0.000 C 
ATOM     19  H   UNL     1       0.130  18.541  18.440  0.00  0.00    +0.000 HD
ATOM     20  H   UNL     1       1.773  18.879  18.827  0.00  0.00    +0.000 HD
ENDBRANCH   7   8
BRANCH   5  21
ATOM     21  C   UNL     1       1.704   7.513  20.263  0.00  0.00    +0.000 C 
ATOM     22  O   UNL     1       1.862   6.571  21.043  0.00  0.00    +0.000 OA
ATOM     23  N   UNL     1       2.154   7.568  18.955  0.00  0.00    +0.000 N 
ATOM     24  H   UNL     1       2.129   8.461  18.478  0.00  0.00    +0.000 HD
BRANCH  23  25
ATOM     25  C   UNL     1       2.888   6.532  18.311  0.00  0.00    +0.000 A 
ATOM     26  C   UNL     1       4.045   6.787  17.570  0.00  0.00    +0.000 A 
ATOM     27  C   UNL     1       4.696   5.768  16.878  0.00  0.00    +0.000 A 
ATOM     28  C   UNL     1       4.198   4.469  16.918  0.00  0.00    +0.000 A 
ATOM     29  C   UNL     1       3.049   4.168  17.662  0.00  0.00    +0.000 A 
ATOM     30  C   UNL     1       2.420   5.207  18.383  0.00  0.00    +0.000 A 
BRANCH  29  31
ATOM     31  C   UNL     1       2.452   2.767  17.634  0.00  0.00    +0.000 C 
ATOM     32  C   UNL     1       3.468   1.717  18.104  0.00  0.00    +0.000 C 
ATOM     33  C   UNL     1       1.169   2.650  18.463  0.00  0.00    +0.000 C 
ENDBRANCH  29  31
ENDBRANCH  23  25
ENDBRANCH   5  21
TORSDOF 4
ENDMDL
MODEL 6
REMARK VINA RESULT:      -8.6      4.136     11.657
REMARK  Name = 
REMARK  7 active torsions:
REMARK  status: ('A' for Active; 'I' for Inactive)
REMARK    1  A    between atoms: C_1  and  C_2
REMARK    2  A    between atoms: C_5  and  C_6
REMARK    3  A    between atoms: N_8  and  C_9
REMARK    4  A    between atoms: C_13  and  C_14
REMARK    5  A    between atoms: C_14  and  C_15
REMARK    6  A    between atoms: C_14  and  C_16
REMARK    7  A    between atoms: C_19  and  N_20
REMARK                            x       y       z     vdW  Elec       q    Type
REMARK                         _______ _______ _______ _____ _____    ______ ____
ROOT
ATOM      1  C   UNL     1       2.315   8.458  17.384  0.00  0.00    +0.000 C 
ATOM      2  C   UNL     1       1.797   8.970  18.707  0.00  0.00    +0.000 A 
ATOM      3  C   UNL     1       1.428  10.324  18.744  0.00  0.00    +0.000 A 
ATOM      4  C   UNL     1       0.850  10.876  19.879  0.00  0.00    +0.000 A 
ATOM      5  C   UNL     1       0.617  10.086  21.004  0.00  0.00    +0.000 A 
ATOM      6  C   UNL     1       0.984   8.737  20.984  0.00  0.00    +0.000 A 
ATOM      7  C   UNL     1       1.612   8.154  19.856  0.00  0.00    +0.000 A 
ENDROOT
BRANCH   7   8
ATOM      8  N   UNL     1       1.975   6.802  19.856  0.00  0.00    +0.000 N 
ATOM      9  C   UNL     1       1.501   5.931  20.945  0.00  0.00    +0.000 C 
ATOM     10  C   UNL     1       1.299   4.538  20.370  0.00  0.00    +0.000 C 
ATOM     11  C   UNL     1       2.529   4.074  19.648  0.00  0.00    +0.000 A 
ATOM     12  N   UNL     1       2.635   2.743  19.450  0.00  0.00    +0.000 NA
ATOM     13  C   UNL     1       3.711   2.314  18.795  0.00  0.00    +0.000 A 
ATOM     14  N   UNL     1       3.808   0.954  18.586  0.00  0.00    +0.000 N 
ATOM     15  N   UNL     1       4.667   3.100  18.293  0.00  0.00    +0.000 NA
ATOM     16  C   UNL     1       4.526   4.426  18.505  0.00  0.00    +0.000 A 
ATOM     17  C   UNL     1       3.463   4.983  19.177  0.00  0.00    +0.000 A 
ATOM     18  C   UNL     1       3.348   6.462  19.432  0.00  0.00    +0.000 C 
ATOM     19  H   UNL     1       2.881   0.555  18.618  0.00  0.00    +0.000 HD
ATOM     20  H   UNL     1       4.356   0.784  17.760  0.00  0.00    +0.000 HD
ENDBRANCH   7   8
BRANCH   5  21
ATOM     21  C   UNL     1      -0.075  10.729  22.152  0.00  0.00    +0.000 C 
ATOM     22  O   UNL     1       0.057  10.171  23.244  0.00  0.00    +0.000 OA
ATOM     23  N   UNL     1      -0.868  11.834  21.896  0.00  0.00    +0.000 N 
ATOM     24  H   UNL     1      -1.042  12.085  20.930  0.00  0.00    +0.000 HD
BRANCH  23  25
ATOM     25  C   UNL     1      -1.670  12.493  22.870  0.00  0.00    +0.000 A 
ATOM     26  C   UNL     1      -2.914  11.998  23.272  0.00  0.00    +0.000 A 
ATOM     27  C   UNL     1      -3.718  12.705  24.163  0.00  0.00    +0.000 A 
ATOM     28  C   UNL     1      -3.288  13.928  24.670  0.00  0.00    +0.000 A 
ATOM     29  C   UNL     1      -2.041  14.454  24.305  0.00  0.00    +0.000 A 
ATOM     30  C   UNL     1      -1.225  13.707  23.425  0.00  0.00    +0.000 A 
BRANCH  29  31
ATOM     31  C   UNL     1      -1.608  15.831  24.787  0.00  0.00    +0.000 C 
ATOM     32  C   UNL     1      -1.067  15.777  26.223  0.00  0.00    +0.000 C 
ATOM     33  C   UNL     1      -0.569  16.484  23.870  0.00  0.00    +0.000 C 
ENDBRANCH  29  31
ENDBRANCH  23  25
ENDBRANCH   5  21
TORSDOF 4
ENDMDL
MODEL 7
REMARK VINA RESULT:      -8.6      1.146      1.382
REMARK  Name = 
REMARK  7 active torsions:
REMARK  status: ('A' for Active; 'I' for Inactive)
REMARK    1  A    between atoms: C_1  and  C_2
REMARK    2  A    between atoms: C_5  and  C_6
REMARK    3  A    between atoms: N_8  and  C_9
REMARK    4  A    between atoms: C_13  and  C_14
REMARK    5  A    between atoms: C_14  and  C_15
REMARK    6  A    between atoms: C_14  and  C_16
REMARK    7  A    between atoms: C_19  and  N_20
REMARK                            x       y       z     vdW  Elec       q    Type
REMARK                         _______ _______ _______ _____ _____    ______ ____
ROOT
ATOM      1  C   UNL     1       1.449   5.523  21.071  0.00  0.00    +0.000 C 
ATOM      2  C   UNL     1       2.498   5.387  19.994  0.00  0.00    +0.000 A 
ATOM      3  C   UNL     1       3.200   4.171  19.965  0.00  0.00    +0.000 A 
ATOM      4  C   UNL     1       4.119   3.900  18.960  0.00  0.00    +0.000 A 
ATOM      5  C   UNL     1       4.354   4.835  17.953  0.00  0.00    +0.000 A 
ATOM      6  C   UNL     1       3.667   6.053  17.971  0.00  0.00    +0.000 A 
ATOM      7  C   UNL     1       2.754   6.375  19.004  0.00  0.00    +0.000 A 
ENDROOT
BRANCH   7   8
ATOM      8  N   UNL     1       2.078   7.601  19.007  0.00  0.00    +0.000 N 
ATOM      9  C   UNL     1       2.421   8.613  17.993  0.00  0.00    +0.000 C 
ATOM     10  C   UNL     1       1.157   9.393  17.670  0.00  0.00    +0.000 C 
ATOM     11  C   UNL     1       0.514   9.911  18.922  0.00  0.00    +0.000 A 
ATOM     12  N   UNL     1      -0.356  10.931  18.765  0.00  0.00    +0.000 NA
ATOM     13  C   UNL     1      -0.951  11.392  19.862  0.00  0.00    +0.000 A 
ATOM     14  N   UNL     1      -1.847  12.427  19.694  0.00  0.00    +0.000 N 
ATOM     15  N   UNL     1      -0.779  10.900  21.092  0.00  0.00    +0.000 NA
ATOM     16  C   UNL     1       0.094   9.877  21.211  0.00  0.00    +0.000 A 
ATOM     17  C   UNL     1       0.775   9.326  20.151  0.00  0.00    +0.000 A 
ATOM     18  C   UNL     1       1.770   8.210  20.317  0.00  0.00    +0.000 C 
ATOM     19  H   UNL     1      -2.192  12.406  18.744  0.00  0.00    +0.000 HD
ATOM     20  H   UNL     1      -2.529  12.400  20.432  0.00  0.00    +0.000 HD
ENDBRANCH   7   8
BRANCH   5  21
ATOM     21  C   UNL     1       5.295   4.442  16.869  0.00  0.00    +0.000 C 
ATOM     22  O   UNL     1       6.334   3.886  17.231  0.00  0.00    +0.000 OA
ATOM     23  N   UNL     1       4.974   4.799  15.571  0.00  0.00    +0.000 N 
ATOM     24  H   UNL     1       4.182   5.414  15.425  0.00  0.00    +0.000 HD
BRANCH  23  25
ATOM     25  C   UNL     1       5.818   4.584  14.445  0.00  0.00    +0.000 A 
ATOM     26  C   UNL     1       7.021   5.273  14.272  0.00  0.00    +0.000 A 
ATOM     27  C   UNL     1       7.787   5.108  13.119  0.00  0.00    +0.000 A 
ATOM     28  C   UNL     1       7.359   4.244  12.116  0.00  0.00    +0.000 A 
ATOM     29  C   UNL     1       6.166   3.522  12.257  0.00  0.00    +0.000 A 
ATOM     30  C   UNL     1       5.419   3.677  13.446  0.00  0.00    +0.000 A 
BRANCH  29  31
ATOM     31  C   UNL     1       5.651   2.645  11.123  0.00  0.00    +0.000 C 
ATOM     32  C   UNL     1       6.095   1.186  11.299  0.00  0.00    +0.000 C 
ATOM     33  C   UNL     1       4.129   2.706  10.968  0.00  0.00    +0.000 C 
ENDBRANCH  29  31
ENDBRANCH  23  25
ENDBRANCH   5  21
TORSDOF 4
ENDMDL
MODEL 8
REMARK VINA RESULT:      -8.6      3.320      5.974
REMARK  Name = 
REMARK  7 active torsions:
REMARK  status: ('A' for Active; 'I' for Inactive)
REMARK    1  A    between atoms: C_1  and  C_2
REMARK    2  A    between atoms: C_5  and  C_6
REMARK    3  A    between atoms: N_8  and  C_9
REMARK    4  A    between atoms: C_13  and  C_14
REMARK    5  A    between atoms: C_14  and  C_15
REMARK    6  A    between atoms: C_14  and  C_16
REMARK    7  A    between atoms: C_19  and  N_20
REMARK                            x       y       z     vdW  Elec       q    Type
REMARK                         _______ _______ _______ _____ _____    ______ ____
ROOT
ATOM      1  C   UNL     1      -1.166  11.168  23.030  0.00  0.00    +0.000 C 
ATOM      2  C   UNL     1      -0.320  10.518  21.962  0.00  0.00    +0.000 A 
ATOM      3  C   UNL     1       0.103   9.204  22.221  0.00  0.00    +0.000 A 
ATOM      4  C   UNL     1       0.805   8.478  21.269  0.00  0.00    +0.000 A 
ATOM      5  C   UNL     1       1.095   9.044  20.028  0.00  0.00    +0.000 A 
ATOM      6  C   UNL     1       0.685  10.353  19.756  0.00  0.00    +0.000 A 
ATOM      7  C   UNL     1       0.003  11.133  20.722  0.00  0.00    +0.000 A 
ENDROOT
BRANCH   7   8
ATOM      8  N   UNL     1      -0.396  12.444  20.432  0.00  0.00    +0.000 N 
ATOM      9  C   UNL     1      -1.787  12.697  20.022  0.00  0.00    +0.000 C 
ATOM     10  C   UNL     1      -2.179  14.073  20.537  0.00  0.00    +0.000 C 
ATOM     11  C   UNL     1      -1.175  15.105  20.119  0.00  0.00    +0.000 A 
ATOM     12  N   UNL     1      -1.593  16.389  20.153  0.00  0.00    +0.000 NA
ATOM     13  C   UNL     1      -0.710  17.321  19.804  0.00  0.00    +0.000 A 
ATOM     14  N   UNL     1      -1.139  18.631  19.851  0.00  0.00    +0.000 N 
ATOM     15  N   UNL     1       0.559  17.084  19.461  0.00  0.00    +0.000 NA
ATOM     16  C   UNL     1       0.945  15.791  19.443  0.00  0.00    +0.000 A 
ATOM     17  C   UNL     1       0.118  14.743  19.773  0.00  0.00    +0.000 A 
ATOM     18  C   UNL     1       0.561  13.307  19.710  0.00  0.00    +0.000 C 
ATOM     19  H   UNL     1      -1.910  18.696  20.501  0.00  0.00    +0.000 HD
ATOM     20  H   UNL     1      -0.350  19.233  20.009  0.00  0.00    +0.000 HD
ENDBRANCH   7   8
BRANCH   5  21
ATOM     21  C   UNL     1       1.781   8.178  19.032  0.00  0.00    +0.000 C 
ATOM     22  O   UNL     1       1.616   8.481  17.848  0.00  0.00    +0.000 OA
ATOM     23  N   UNL     1       2.469   7.071  19.499  0.00  0.00    +0.000 N 
ATOM     24  H   UNL     1       2.376   6.828  20.478  0.00  0.00    +0.000 HD
BRANCH  23  25
ATOM     25  C   UNL     1       3.088   6.097  18.666  0.00  0.00    +0.000 A 
ATOM     26  C   UNL     1       4.096   6.427  17.755  0.00  0.00    +0.000 A 
ATOM     27  C   UNL     1       4.626   5.471  16.890  0.00  0.00    +0.000 A 
ATOM     28  C   UNL     1       4.154   4.163  16.923  0.00  0.00    +0.000 A 
ATOM     29  C   UNL     1       3.155   3.787  17.832  0.00  0.00    +0.000 A 
ATOM     30  C   UNL     1       2.652   4.761  18.724  0.00  0.00    +0.000 A 
BRANCH  29  31
ATOM     31  C   UNL     1       2.575   2.379  17.810  0.00  0.00    +0.000 C 
ATOM     32  C   UNL     1       3.546   1.364  18.427  0.00  0.00    +0.000 C 
ATOM     33  C   UNL     1       1.216   2.284  18.510  0.00  0.00    +0.000 C 
ENDBRANCH  29  31
ENDBRANCH  23  25
ENDBRANCH   5  21
TORSDOF 4
ENDMDL
MODEL 9
REMARK VINA RESULT:      -8.6      3.694      6.214
REMARK  Name = 
REMARK  7 active torsions:
REMARK  status: ('A' for Active; 'I' for Inactive)
REMARK    1  A    between atoms: C_1  and  C_2
REMARK    2  A    between atoms: C_5  and  C_6
REMARK    3  A    between atoms: N_8  and  C_9
REMARK    4  A    between atoms: C_13  and  C_14
REMARK    5  A    between atoms: C_14  and  C_15
REMARK    6  A    between atoms: C_14  and  C_16
REMARK    7  A    between atoms: C_19  and  N_20
REMARK                            x       y       z     vdW  Elec       q    Type
REMARK                         _______ _______ _______ _____ _____    ______ ____
ROOT
ATOM      1  C   UNL     1      -0.044  14.333  19.239  0.00  0.00    +0.000 C 
ATOM      2  C   UNL     1       0.236  12.850  19.209  0.00  0.00    +0.000 A 
ATOM      3  C   UNL     1       1.398  12.454  18.527  0.00  0.00    +0.000 A 
ATOM      4  C   UNL     1       1.803  11.126  18.517  0.00  0.00    +0.000 A 
ATOM      5  C   UNL     1       1.062  10.160  19.197  0.00  0.00    +0.000 A 
ATOM      6  C   UNL     1      -0.100  10.538  19.876  0.00  0.00    +0.000 A 
ATOM      7  C   UNL     1      -0.562  11.877  19.871  0.00  0.00    +0.000 A 
ENDROOT
BRANCH   7   8
ATOM      8  N   UNL     1      -1.730  12.235  20.555  0.00  0.00    +0.000 N 
ATOM      9  C   UNL     1      -2.776  12.991  19.845  0.00  0.00    +0.000 C 
ATOM     10  C   UNL     1      -4.120  12.569  20.415  0.00  0.00    +0.000 C 
ATOM     11  C   UNL     1      -4.127  12.688  21.910  0.00  0.00    +0.000 A 
ATOM     12  N   UNL     1      -5.342  12.740  22.497  0.00  0.00    +0.000 NA
ATOM     13  C   UNL     1      -5.369  12.827  23.824  0.00  0.00    +0.000 A 
ATOM     14  N   UNL     1      -6.613  12.868  24.418  0.00  0.00    +0.000 N 
ATOM     15  N   UNL     1      -4.292  12.830  24.614  0.00  0.00    +0.000 NA
ATOM     16  C   UNL     1      -3.094  12.772  23.995  0.00  0.00    +0.000 A 
ATOM     17  C   UNL     1      -2.942  12.691  22.630  0.00  0.00    +0.000 A 
ATOM     18  C   UNL     1      -1.595  12.664  21.962  0.00  0.00    +0.000 C 
ATOM     19  H   UNL     1      -7.284  12.442  23.794  0.00  0.00    +0.000 HD
ATOM     20  H   UNL     1      -6.549  12.497  25.350  0.00  0.00    +0.000 HD
ENDBRANCH   7   8
BRANCH   5  21
ATOM     21  C   UNL     1       1.601   8.774  19.206  0.00  0.00    +0.000 C 
ATOM     22  O   UNL     1       1.564   8.187  20.290  0.00  0.00    +0.000 OA
ATOM     23  N   UNL     1       2.167   8.291  18.039  0.00  0.00    +0.000 N 
ATOM     24  H   UNL     1       2.302   8.935  17.269  0.00  0.00    +0.000 HD
BRANCH  23  25
ATOM     25  C   UNL     1       2.812   7.027  17.920  0.00  0.00    +0.000 A 
ATOM     26  C   UNL     1       4.150   6.905  17.536  0.00  0.00    +0.000 A 
ATOM     27  C   UNL     1       4.734   5.655  17.344  0.00  0.00    +0.000 A 
ATOM     28  C   UNL     1       3.985   4.499  17.535  0.00  0.00    +0.000 A 
ATOM     29  C   UNL     1       2.643   4.575  17.936  0.00  0.00    +0.000 A 
ATOM     30  C   UNL     1       2.077   5.851  18.157  0.00  0.00    +0.000 A 
BRANCH  29  31
ATOM     31  C   UNL     1       1.796   3.316  18.059  0.00  0.00    +0.000 C 
ATOM     32  C   UNL     1       2.623   2.056  17.766  0.00  0.00    +0.000 C 
ATOM     33  C   UNL     1       1.121   3.183  19.427  0.00  0.00    +0.000 C 
ENDBRANCH  29  31
ENDBRANCH  23  25
ENDBRANCH   5  21
TORSDOF 4
ENDMDL
