MODEL 1
REMARK VINA RESULT:      -7.1      0.000      0.000
REMARK  Name = 
REMARK  10 active torsions:
REMARK  status: ('A' for Active; 'I' for Inactive)
REMARK    1  A    between atoms: C_2  and  C_3
REMARK    2  A    between atoms: C_7  and  C_8
REMARK    3  A    between atoms: N_10  and  C_11
REMARK    4  A    between atoms: C_11  and  C_12
REMARK    5  A    between atoms: C_12  and  C_13
REMARK    6  A    between atoms: C_13  and  C_14
REMARK    7  A    between atoms: C_14  and  C_15
REMARK    8  A    between atoms: C_15  and  C_16
REMARK    9  A    between atoms: N_18  and  C_19
REMARK   10  A    between atoms: C_24  and  N_25
REMARK                            x       y       z     vdW  Elec       q    Type
REMARK                         _______ _______ _______ _____ _____    ______ ____
ROOT
ATOM      1  C   UNL     1       1.887   3.391  18.430  0.00  0.00    +0.000 C 
ENDROOT
BRANCH   1   2
ATOM      2  C   UNL     1       1.027   3.255  19.690  0.00  0.00    +0.000 C 
BRANCH   2   3
ATOM      3  C   UNL     1       1.575   4.042  20.880  0.00  0.00    +0.000 C 
BRANCH   3   6
ATOM      4  C   UNL     1       2.097   6.373  20.297  0.00  0.00    +0.000 C 
ATOM      5  O   UNL     1       3.231   6.095  19.928  0.00  0.00    +0.000 OA
ATOM      6  N   UNL     1       1.211   5.441  20.799  0.00  0.00    +0.000 N 
ATOM      7  H   UNL     1       0.256   5.694  21.005  0.00  0.00    +0.000 HD
BRANCH   4  12
ATOM      8  C   UNL     1       0.588   9.766  21.092  0.00  0.00    +0.000 A 
ATOM      9  C   UNL     1       0.781  10.426  19.878  0.00  0.00    +0.000 A 
ATOM     10  C   UNL     1       1.392   9.762  18.813  0.00  0.00    +0.000 A 
ATOM     11  C   UNL     1       1.806   8.440  18.966  0.00  0.00    +0.000 A 
ATOM     12  C   UNL     1       1.608   7.771  20.182  0.00  0.00    +0.000 A 
ATOM     13  C   UNL     1       1.003   8.439  21.253  0.00  0.00    +0.000 A 
BRANCH   8  15
ATOM     14  N   UNL     1      -0.531  11.002  23.085  0.00  0.00    +0.000 NA
ATOM     15  C   UNL     1      -0.025  10.452  22.192  0.00  0.00    +0.000 C 
ENDBRANCH   8  15
ENDBRANCH   4  12
ENDBRANCH   3   6
ENDBRANCH   2   3
ENDBRANCH   1   2
BRANCH   1  16
ATOM     16  C   UNL     1       2.298   2.036  17.846  0.00  0.00    +0.000 C 
BRANCH  16  17
ATOM     17  C   UNL     1       3.705   1.626  18.270  0.00  0.00    +0.000 C 
BRANCH  17  18
ATOM     18  C   UNL     1       4.491   2.846  18.713  0.00  0.00    +0.000 C 
ATOM     19  O   UNL     1       4.684   3.037  19.910  0.00  0.00    +0.000 OA
ATOM     20  N   UNL     1       4.983   3.602  17.660  0.00  0.00    +0.000 N 
ATOM     21  H   UNL     1       4.876   3.222  16.735  0.00  0.00    +0.000 HD
BRANCH  20  22
ATOM     22  C   UNL     1       5.805   4.757  17.764  0.00  0.00    +0.000 A 
ATOM     23  C   UNL     1       7.110   4.686  18.275  0.00  0.00    +0.000 A 
ATOM     24  C   UNL     1       7.942   5.806  18.299  0.00  0.00    +0.000 A 
ATOM     25  C   UNL     1       7.487   7.017  17.798  0.00  0.00    +0.000 A 
ATOM     26  C   UNL     1       6.179   7.116  17.322  0.00  0.00    +0.000 A 
ATOM     27  C   UNL     1       5.318   6.004  17.303  0.00  0.00    +0.000 A 
BRANCH  27  28
ATOM     28  N   UNL     1       3.963   6.245  17.018  0.00  0.00    +0.000 N 
ATOM     29  H   UNL     1       3.470   6.743  17.753  0.00  0.00    +0.000 HD
ATOM     30  H   UNL     1       3.705   6.547  16.094  0.00  0.00    +0.000 HD
ENDBRANCH  27  28
ENDBRANCH  20  22
ENDBRANCH  17  18
ENDBRANCH  16  17
ENDBRANCH   1  16
TORSDOF 10
ENDMDL
MODEL 2
REMARK VINA RESULT:      -7.0      5.821      8.672
REMARK  Name = 
REMARK  10 active torsions:
REMARK  status: ('A' for Active; 'I' for Inactive)
REMARK    1  A    between atoms: C_2  and  C_3
REMARK    2  A    between atoms: C_7  and  C_8
REMARK    3  A    between atoms: N_10  and  C_11
REMARK    4  A    between atoms: C_11  and  C_12
REMARK    5  A    between atoms: C_12  and  C_13
REMARK    6  A    between atoms: C_13  and  C_14
REMARK    7  A    between atoms: C_14  and  C_15
REMARK    8  A    between atoms: C_15  and  C_16
REMARK    9  A    between atoms: N_18  and  C_19
REMARK   10  A    between atoms: C_24  and  N_25
REMARK                            x       y       z     vdW  Elec       q    Type
REMARK                         _______ _______ _______ _____ _____    ______ ____
ROOT
ATOM      1  C   UNL     1       7.511   7.692  17.586  0.00  0.00    +0.000 C 
ENDROOT
BRANCH   1   2
ATOM      2  C   UNL     1       8.619   8.750  17.570  0.00  0.00    +0.000 C 
BRANCH   2   3
ATOM      3  C   UNL     1       8.223  10.046  18.278  0.00  0.00    +0.000 C 
BRANCH   3   6
ATOM      4  C   UNL     1       8.914  12.301  17.582  0.00  0.00    +0.000 C 
ATOM      5  O   UNL     1       7.790  12.595  17.193  0.00  0.00    +0.000 OA
ATOM      6  N   UNL     1       9.236  11.067  18.113  0.00  0.00    +0.000 N 
ATOM      7  H   UNL     1      10.149  10.896  18.506  0.00  0.00    +0.000 HD
BRANCH   4  12
ATOM      8  C   UNL     1      10.881  15.536  17.866  0.00  0.00    +0.000 A 
ATOM      9  C   UNL     1      12.137  15.115  17.426  0.00  0.00    +0.000 A 
ATOM     10  C   UNL     1      12.330  13.789  17.037  0.00  0.00    +0.000 A 
ATOM     11  C   UNL     1      11.266  12.890  17.087  0.00  0.00    +0.000 A 
ATOM     12  C   UNL     1      10.002  13.310  17.521  0.00  0.00    +0.000 A 
ATOM     13  C   UNL     1       9.810  14.638  17.921  0.00  0.00    +0.000 A 
BRANCH   8  15
ATOM     14  N   UNL     1      10.520  17.998  18.612  0.00  0.00    +0.000 NA
ATOM     15  C   UNL     1      10.685  16.894  18.283  0.00  0.00    +0.000 C 
ENDBRANCH   8  15
ENDBRANCH   4  12
ENDBRANCH   3   6
ENDBRANCH   2   3
ENDBRANCH   1   2
BRANCH   1  16
ATOM     16  C   UNL     1       7.826   6.523  18.524  0.00  0.00    +0.000 C 
BRANCH  16  17
ATOM     17  C   UNL     1       7.368   5.184  17.954  0.00  0.00    +0.000 C 
BRANCH  17  18
ATOM     18  C   UNL     1       6.091   4.735  18.641  0.00  0.00    +0.000 C 
ATOM     19  O   UNL     1       5.917   5.006  19.826  0.00  0.00    +0.000 OA
ATOM     20  N   UNL     1       5.197   4.102  17.793  0.00  0.00    +0.000 N 
ATOM     21  H   UNL     1       5.419   4.103  16.811  0.00  0.00    +0.000 HD
BRANCH  20  22
ATOM     22  C   UNL     1       3.899   3.634  18.134  0.00  0.00    +0.000 A 
ATOM     23  C   UNL     1       2.741   4.318  17.732  0.00  0.00    +0.000 A 
ATOM     24  C   UNL     1       1.469   3.811  17.999  0.00  0.00    +0.000 A 
ATOM     25  C   UNL     1       1.332   2.600  18.662  0.00  0.00    +0.000 A 
ATOM     26  C   UNL     1       2.470   1.925  19.104  0.00  0.00    +0.000 A 
ATOM     27  C   UNL     1       3.763   2.426  18.860  0.00  0.00    +0.000 A 
BRANCH  27  28
ATOM     28  N   UNL     1       4.830   1.802  19.528  0.00  0.00    +0.000 N 
ATOM     29  H   UNL     1       5.075   2.240  20.411  0.00  0.00    +0.000 HD
ATOM     30  H   UNL     1       4.864   0.797  19.561  0.00  0.00    +0.000 HD
ENDBRANCH  27  28
ENDBRANCH  20  22
ENDBRANCH  17  18
ENDBRANCH  16  17
ENDBRANCH   1  16
TORSDOF 10
ENDMDL
MODEL 3
REMARK VINA RESULT:      -7.0      1.494      2.331
REMARK  Name = 
REMARK  10 active torsions:
REMARK  status: ('A' for Active; 'I' for Inactive)
REMARK    1  A    between atoms: C_2  and  C_3
REMARK    2  A    between atoms: C_7  and  C_8
REMARK    3  A    between atoms: N_10  and  C_11
REMARK    4  A    between atoms: C_11  and  C_12
REMARK    5  A    between atoms: C_12  and  C_13
REMARK    6  A    between atoms: C_13  and  C_14
REMARK    7  A    between atoms: C_14  and  C_15
REMARK    8  A    between atoms: C_15  and  C_16
REMARK    9  A    between atoms: N_18  and  C_19
REMARK   10  A    between atoms: C_24  and  N_25
REMARK                            x       y       z     vdW  Elec       q    Type
REMARK                         _______ _______ _______ _____ _____    ______ ____
ROOT
ATOM      1  C   UNL     1       1.099   3.102  20.332  0.00  0.00    +0.000 C 
ENDROOT
BRANCH   1   2
ATOM      2  C   UNL     1       1.772   4.155  21.218  0.00  0.00    +0.000 C 
BRANCH   2   3
ATOM      3  C   UNL     1       2.194   5.407  20.449  0.00  0.00    +0.000 C 
BRANCH   3   6
ATOM      4  C   UNL     1       1.614   7.793  20.310  0.00  0.00    +0.000 C 
ATOM      5  O   UNL     1       2.184   7.935  19.235  0.00  0.00    +0.000 OA
ATOM      6  N   UNL     1       1.577   6.596  20.998  0.00  0.00    +0.000 N 
ATOM      7  H   UNL     1       1.020   6.497  21.834  0.00  0.00    +0.000 HD
BRANCH   4  12
ATOM      8  C   UNL     1      -0.230  11.078  20.784  0.00  0.00    +0.000 A 
ATOM      9  C   UNL     1      -0.526  11.015  22.146  0.00  0.00    +0.000 A 
ATOM     10  C   UNL     1      -0.120   9.911  22.897  0.00  0.00    +0.000 A 
ATOM     11  C   UNL     1       0.583   8.875  22.283  0.00  0.00    +0.000 A 
ATOM     12  C   UNL     1       0.889   8.939  20.916  0.00  0.00    +0.000 A 
ATOM     13  C   UNL     1       0.474  10.041  20.161  0.00  0.00    +0.000 A 
BRANCH   8  15
ATOM     14  N   UNL     1      -1.019  13.112  19.373  0.00  0.00    +0.000 NA
ATOM     15  C   UNL     1      -0.661  12.204  20.008  0.00  0.00    +0.000 C 
ENDBRANCH   8  15
ENDBRANCH   4  12
ENDBRANCH   3   6
ENDBRANCH   2   3
ENDBRANCH   1   2
BRANCH   1  16
ATOM     16  C   UNL     1       2.060   1.987  19.907  0.00  0.00    +0.000 C 
BRANCH  16  17
ATOM     17  C   UNL     1       2.595   2.192  18.494  0.00  0.00    +0.000 C 
BRANCH  17  18
ATOM     18  C   UNL     1       3.848   3.049  18.531  0.00  0.00    +0.000 C 
ATOM     19  O   UNL     1       4.657   2.894  19.441  0.00  0.00    +0.000 OA
ATOM     20  N   UNL     1       3.972   3.899  17.444  0.00  0.00    +0.000 N 
ATOM     21  H   UNL     1       3.304   3.789  16.699  0.00  0.00    +0.000 HD
BRANCH  20  22
ATOM     22  C   UNL     1       5.064   4.766  17.173  0.00  0.00    +0.000 A 
ATOM     23  C   UNL     1       5.136   6.053  17.728  0.00  0.00    +0.000 A 
ATOM     24  C   UNL     1       6.249   6.870  17.526  0.00  0.00    +0.000 A 
ATOM     25  C   UNL     1       7.320   6.407  16.775  0.00  0.00    +0.000 A 
ATOM     26  C   UNL     1       7.250   5.146  16.182  0.00  0.00    +0.000 A 
ATOM     27  C   UNL     1       6.131   4.311  16.360  0.00  0.00    +0.000 A 
BRANCH  27  28
ATOM     28  N   UNL     1       6.051   3.163  15.553  0.00  0.00    +0.000 N 
ATOM     29  H   UNL     1       6.183   2.294  16.060  0.00  0.00    +0.000 HD
ATOM     30  H   UNL     1       5.329   3.108  14.854  0.00  0.00    +0.000 HD
ENDBRANCH  27  28
ENDBRANCH  20  22
ENDBRANCH  17  18
ENDBRANCH  16  17
ENDBRANCH   1  16
TORSDOF 10
ENDMDL
MODEL 4
REMARK VINA RESULT:      -7.0      5.748      8.440
REMARK  Name = 
REMARK  10 active torsions:
REMARK  status: ('A' for Active; 'I' for Inactive)
REMARK    1  A    between atoms: C_2  and  C_3
REMARK    2  A    between atoms: C_7  and  C_8
REMARK    3  A    between atoms: N_10  and  C_11
REMARK    4  A    between atoms: C_11  and  C_12
REMARK    5  A    between atoms: C_12  and  C_13
REMARK    6  A    between atoms: C_13  and  C_14
REMARK    7  A    between atoms: C_14  and  C_15
REMARK    8  A    between atoms: C_15  and  C_16
REMARK    9  A    between atoms: N_18  and  C_19
REMARK   10  A    between atoms: C_24  and  N_25
REMARK                            x       y       z     vdW  Elec       q    Type
REMARK                         _______ _______ _______ _____ _____    ______ ____
ROOT
ATOM      1  C   UNL     1       8.365   8.621  17.577  0.00  0.00    +0.000 C 
ENDROOT
BRANCH   1   2
ATOM      2  C   UNL     1       6.991   7.944  17.548  0.00  0.00    +0.000 C 
BRANCH   2   3
ATOM      3  C   UNL     1       7.070   6.428  17.379  0.00  0.00    +0.000 C 
BRANCH   3   6
ATOM      4  C   UNL     1       5.422   5.195  18.726  0.00  0.00    +0.000 C 
ATOM      5  O   UNL     1       6.180   5.100  19.683  0.00  0.00    +0.000 OA
ATOM      6  N   UNL     1       5.770   5.811  17.540  0.00  0.00    +0.000 N 
ATOM      7  H   UNL     1       5.087   5.950  16.810  0.00  0.00    +0.000 HD
BRANCH   4  12
ATOM      8  C   UNL     1       2.240   3.583  20.028  0.00  0.00    +0.000 A 
ATOM      9  C   UNL     1       1.402   3.736  18.924  0.00  0.00    +0.000 A 
ATOM     10  C   UNL     1       1.878   4.355  17.767  0.00  0.00    +0.000 A 
ATOM     11  C   UNL     1       3.193   4.816  17.719  0.00  0.00    +0.000 A 
ATOM     12  C   UNL     1       4.041   4.657  18.824  0.00  0.00    +0.000 A 
ATOM     13  C   UNL     1       3.561   4.045  19.987  0.00  0.00    +0.000 A 
BRANCH   8  15
ATOM     14  N   UNL     1       1.346   2.468  22.198  0.00  0.00    +0.000 NA
ATOM     15  C   UNL     1       1.747   2.962  21.223  0.00  0.00    +0.000 C 
ENDBRANCH   8  15
ENDBRANCH   4  12
ENDBRANCH   3   6
ENDBRANCH   2   3
ENDBRANCH   1   2
BRANCH   1  16
ATOM     16  C   UNL     1       8.535   9.559  18.775  0.00  0.00    +0.000 C 
BRANCH  16  17
ATOM     17  C   UNL     1       9.820  10.377  18.692  0.00  0.00    +0.000 C 
BRANCH  17  18
ATOM     18  C   UNL     1       9.519  11.765  18.155  0.00  0.00    +0.000 C 
ATOM     19  O   UNL     1       8.431  11.987  17.633  0.00  0.00    +0.000 OA
ATOM     20  N   UNL     1      10.531  12.682  18.391  0.00  0.00    +0.000 N 
ATOM     21  H   UNL     1      11.292  12.383  18.977  0.00  0.00    +0.000 HD
BRANCH  20  22
ATOM     22  C   UNL     1      10.506  14.066  18.065  0.00  0.00    +0.000 A 
ATOM     23  C   UNL     1       9.889  15.007  18.902  0.00  0.00    +0.000 A 
ATOM     24  C   UNL     1       9.938  16.372  18.619  0.00  0.00    +0.000 A 
ATOM     25  C   UNL     1      10.621  16.823  17.498  0.00  0.00    +0.000 A 
ATOM     26  C   UNL     1      11.208  15.899  16.633  0.00  0.00    +0.000 A 
ATOM     27  C   UNL     1      11.157  14.516  16.890  0.00  0.00    +0.000 A 
BRANCH  27  28
ATOM     28  N   UNL     1      11.576  13.655  15.861  0.00  0.00    +0.000 N 
ATOM     29  H   UNL     1      10.832  13.083  15.476  0.00  0.00    +0.000 HD
ATOM     30  H   UNL     1      12.211  14.003  15.163  0.00  0.00    +0.000 HD
ENDBRANCH  27  28
ENDBRANCH  20  22
ENDBRANCH  17  18
ENDBRANCH  16  17
ENDBRANCH   1  16
TORSDOF 10
ENDMDL
MODEL 5
REMARK VINA RESULT:      -6.9      1.555      6.173
REMARK  Name = 
REMARK  10 active torsions:
REMARK  status: ('A' for Active; 'I' for Inactive)
REMARK    1  A    between atoms: C_2  and  C_3
REMARK    2  A    between atoms: C_7  and  C_8
REMARK    3  A    between atoms: N_10  and  C_11
REMARK    4  A    between atoms: C_11  and  C_12
REMARK    5  A    between atoms: C_12  and  C_13
REMARK    6  A    between atoms: C_13  and  C_14
REMARK    7  A    between atoms: C_14  and  C_15
REMARK    8  A    between atoms: C_15  and  C_16
REMARK    9  A    between atoms: N_18  and  C_19
REMARK   10  A    between atoms: C_24  and  N_25
REMARK                            x       y       z     vdW  Elec       q    Type
REMARK                         _______ _______ _______ _____ _____    ______ ____
ROOT
ATOM      1  C   UNL     1       0.812   3.005  20.000  0.00  0.00    +0.000 C 
ENDROOT
BRANCH   1   2
ATOM      2  C   UNL     1       1.090   2.759  18.514  0.00  0.00    +0.000 C 
BRANCH   2   3
ATOM      3  C   UNL     1       2.448   2.107  18.256  0.00  0.00    +0.000 C 
BRANCH   3   6
ATOM      4  C   UNL     1       4.582   3.311  18.052  0.00  0.00    +0.000 C 
ATOM      5  O   UNL     1       4.997   2.890  19.125  0.00  0.00    +0.000 OA
ATOM      6  N   UNL     1       3.336   3.002  17.544  0.00  0.00    +0.000 N 
ATOM      7  H   UNL     1       3.069   3.294  16.616  0.00  0.00    +0.000 HD
BRANCH   4  12
ATOM      8  C   UNL     1       6.863   6.112  16.881  0.00  0.00    +0.000 A 
ATOM      9  C   UNL     1       7.129   5.700  15.575  0.00  0.00    +0.000 A 
ATOM     10  C   UNL     1       6.561   4.523  15.086  0.00  0.00    +0.000 A 
ATOM     11  C   UNL     1       5.728   3.762  15.905  0.00  0.00    +0.000 A 
ATOM     12  C   UNL     1       5.453   4.177  17.216  0.00  0.00    +0.000 A 
ATOM     13  C   UNL     1       6.029   5.353  17.709  0.00  0.00    +0.000 A 
BRANCH   8  15
ATOM     14  N   UNL     1       7.952   8.283  17.802  0.00  0.00    +0.000 NA
ATOM     15  C   UNL     1       7.459   7.313  17.390  0.00  0.00    +0.000 C 
ENDBRANCH   8  15
ENDBRANCH   4  12
ENDBRANCH   3   6
ENDBRANCH   2   3
ENDBRANCH   1   2
BRANCH   1  16
ATOM     16  C   UNL     1       2.094   3.177  20.820  0.00  0.00    +0.000 C 
BRANCH  16  17
ATOM     17  C   UNL     1       2.149   4.525  21.531  0.00  0.00    +0.000 C 
BRANCH  17  18
ATOM     18  C   UNL     1       2.394   5.635  20.526  0.00  0.00    +0.000 C 
ATOM     19  O   UNL     1       3.133   5.428  19.568  0.00  0.00    +0.000 OA
ATOM     20  N   UNL     1       1.664   6.786  20.780  0.00  0.00    +0.000 N 
ATOM     21  H   UNL     1       0.977   6.739  21.513  0.00  0.00    +0.000 HD
BRANCH  20  22
ATOM     22  C   UNL     1       1.637   7.960  19.979  0.00  0.00    +0.000 A 
ATOM     23  C   UNL     1       2.158   7.973  18.676  0.00  0.00    +0.000 A 
ATOM     24  C   UNL     1       2.055   9.104  17.865  0.00  0.00    +0.000 A 
ATOM     25  C   UNL     1       1.414  10.239  18.339  0.00  0.00    +0.000 A 
ATOM     26  C   UNL     1       0.924  10.258  19.645  0.00  0.00    +0.000 A 
ATOM     27  C   UNL     1       1.031   9.135  20.486  0.00  0.00    +0.000 A 
BRANCH  27  28
ATOM     28  N   UNL     1       0.714   9.316  21.843  0.00  0.00    +0.000 N 
ATOM     29  H   UNL     1      -0.239   9.622  22.006  0.00  0.00    +0.000 HD
ATOM     30  H   UNL     1       1.032   8.635  22.513  0.00  0.00    +0.000 HD
ENDBRANCH  27  28
ENDBRANCH  20  22
ENDBRANCH  17  18
ENDBRANCH  16  17
ENDBRANCH   1  16
TORSDOF 10
ENDMDL
MODEL 6
REMARK VINA RESULT:      -6.9      1.838      6.921
REMARK  Name = 
REMARK  10 active torsions:
REMARK  status: ('A' for Active; 'I' for Inactive)
REMARK    1  A    between atoms: C_2  and  C_3
REMARK    2  A    between atoms: C_7  and  C_8
REMARK    3  A    between atoms: N_10  and  C_11
REMARK    4  A    between atoms: C_11  and  C_12
REMARK    5  A    between atoms: C_12  and  C_13
REMARK    6  A    between atoms: C_13  and  C_14
REMARK    7  A    between atoms: C_14  and  C_15
REMARK    8  A    between atoms: C_15  and  C_16
REMARK    9  A    between atoms: N_18  and  C_19
REMARK   10  A    between atoms: C_24  and  N_25
REMARK                            x       y       z     vdW  Elec       q    Type
REMARK                         _______ _______ _______ _____ _____    ______ ____
ROOT
ATOM      1  C   UNL     1       5.906   6.988  17.305  0.00  0.00    +0.000 C 
ENDROOT
BRANCH   1   2
ATOM      2  C   UNL     1       6.874   6.161  16.453  0.00  0.00    +0.000 C 
BRANCH   2   3
ATOM      3  C   UNL     1       7.139   4.768  17.024  0.00  0.00    +0.000 C 
BRANCH   3   6
ATOM      4  C   UNL     1       5.432   3.984  18.611  0.00  0.00    +0.000 C 
ATOM      5  O   UNL     1       6.029   4.441  19.578  0.00  0.00    +0.000 OA
ATOM      6  N   UNL     1       5.902   4.074  17.316  0.00  0.00    +0.000 N 
ATOM      7  H   UNL     1       5.337   3.767  16.538  0.00  0.00    +0.000 HD
BRANCH   4  12
ATOM      8  C   UNL     1       2.246   2.628  20.170  0.00  0.00    +0.000 A 
ATOM      9  C   UNL     1       1.611   2.102  19.045  0.00  0.00    +0.000 A 
ATOM     10  C   UNL     1       2.224   2.187  17.794  0.00  0.00    +0.000 A 
ATOM     11  C   UNL     1       3.472   2.797  17.675  0.00  0.00    +0.000 A 
ATOM     12  C   UNL     1       4.118   3.320  18.804  0.00  0.00    +0.000 A 
ATOM     13  C   UNL     1       3.498   3.242  20.057  0.00  0.00    +0.000 A 
BRANCH   8  15
ATOM     14  N   UNL     1       1.102   2.492  22.498  0.00  0.00    +0.000 NA
ATOM     15  C   UNL     1       1.609   2.555  21.453  0.00  0.00    +0.000 C 
ENDBRANCH   8  15
ENDBRANCH   4  12
ENDBRANCH   3   6
ENDBRANCH   2   3
ENDBRANCH   1   2
BRANCH   1  16
ATOM     16  C   UNL     1       4.486   7.011  16.730  0.00  0.00    +0.000 C 
BRANCH  16  17
ATOM     17  C   UNL     1       3.423   6.808  17.805  0.00  0.00    +0.000 C 
BRANCH  17  18
ATOM     18  C   UNL     1       2.750   8.130  18.127  0.00  0.00    +0.000 C 
ATOM     19  O   UNL     1       2.995   9.115  17.437  0.00  0.00    +0.000 OA
ATOM     20  N   UNL     1       1.840   8.050  19.170  0.00  0.00    +0.000 N 
ATOM     21  H   UNL     1       1.632   7.132  19.525  0.00  0.00    +0.000 HD
BRANCH  20  22
ATOM     22  C   UNL     1       1.015   9.103  19.649  0.00  0.00    +0.000 A 
ATOM     23  C   UNL     1       0.283   9.920  18.774  0.00  0.00    +0.000 A 
ATOM     24  C   UNL     1      -0.589  10.898  19.254  0.00  0.00    +0.000 A 
ATOM     25  C   UNL     1      -0.756  11.067  20.621  0.00  0.00    +0.000 A 
ATOM     26  C   UNL     1      -0.008  10.290  21.506  0.00  0.00    +0.000 A 
ATOM     27  C   UNL     1       0.889   9.308  21.045  0.00  0.00    +0.000 A 
BRANCH  27  28
ATOM     28  N   UNL     1       1.755   8.734  21.991  0.00  0.00    +0.000 N 
ATOM     29  H   UNL     1       2.714   9.056  21.919  0.00  0.00    +0.000 HD
ATOM     30  H   UNL     1       1.441   8.633  22.942  0.00  0.00    +0.000 HD
ENDBRANCH  27  28
ENDBRANCH  20  22
ENDBRANCH  17  18
ENDBRANCH  16  17
ENDBRANCH   1  16
TORSDOF 10
ENDMDL
MODEL 7
REMARK VINA RESULT:      -6.9      5.491      8.006
REMARK  Name = 
REMARK  10 active torsions:
REMARK  status: ('A' for Active; 'I' for Inactive)
REMARK    1  A    between atoms: C_2  and  C_3
REMARK    2  A    between atoms: C_7  and  C_8
REMARK    3  A    between atoms: N_10  and  C_11
REMARK    4  A    between atoms: C_11  and  C_12
REMARK    5  A    between atoms: C_12  and  C_13
REMARK    6  A    between atoms: C_13  and  C_14
REMARK    7  A    between atoms: C_14  and  C_15
REMARK    8  A    between atoms: C_15  and  C_16
REMARK    9  A    between atoms: N_18  and  C_19
REMARK   10  A    between atoms: C_24  and  N_25
REMARK                            x       y       z     vdW  Elec       q    Type
REMARK                         _______ _______ _______ _____ _____    ______ ____
ROOT
ATOM      1  C   UNL     1       7.463   6.849  17.384  0.00  0.00    +0.000 C 
ENDROOT
BRANCH   1   2
ATOM      2  C   UNL     1       8.092   7.784  18.421  0.00  0.00    +0.000 C 
BRANCH   2   3
ATOM      3  C   UNL     1       8.496   9.140  17.843  0.00  0.00    +0.000 C 
BRANCH   3   6
ATOM      4  C   UNL     1       9.612  11.165  18.680  0.00  0.00    +0.000 C 
ATOM      5  O   UNL     1      10.225  11.338  17.634  0.00  0.00    +0.000 OA
ATOM      6  N   UNL     1       8.753  10.105  18.892  0.00  0.00    +0.000 N 
ATOM      7  H   UNL     1       8.197  10.049  19.732  0.00  0.00    +0.000 HD
BRANCH   4  12
ATOM      8  C   UNL     1      10.527  14.245  20.704  0.00  0.00    +0.000 A 
ATOM      9  C   UNL     1       9.909  13.950  21.919  0.00  0.00    +0.000 A 
ATOM     10  C   UNL     1       9.207  12.753  22.071  0.00  0.00    +0.000 A 
ATOM     11  C   UNL     1       9.129  11.855  21.007  0.00  0.00    +0.000 A 
ATOM     12  C   UNL     1       9.755  12.145  19.787  0.00  0.00    +0.000 A 
ATOM     13  C   UNL     1      10.451  13.349  19.631  0.00  0.00    +0.000 A 
BRANCH   8  15
ATOM     14  N   UNL     1      11.818  16.481  20.413  0.00  0.00    +0.000 NA
ATOM     15  C   UNL     1      11.235  15.482  20.541  0.00  0.00    +0.000 C 
ENDBRANCH   8  15
ENDBRANCH   4  12
ENDBRANCH   3   6
ENDBRANCH   2   3
ENDBRANCH   1   2
BRANCH   1  16
ATOM     16  C   UNL     1       7.620   5.370  17.750  0.00  0.00    +0.000 C 
BRANCH  16  17
ATOM     17  C   UNL     1       7.274   4.446  16.587  0.00  0.00    +0.000 C 
BRANCH  17  18
ATOM     18  C   UNL     1       5.791   4.126  16.600  0.00  0.00    +0.000 C 
ATOM     19  O   UNL     1       5.200   3.960  15.537  0.00  0.00    +0.000 OA
ATOM     20  N   UNL     1       5.265   3.983  17.875  0.00  0.00    +0.000 N 
ATOM     21  H   UNL     1       5.917   3.989  18.641  0.00  0.00    +0.000 HD
BRANCH  20  22
ATOM     22  C   UNL     1       3.929   3.621  18.199  0.00  0.00    +0.000 A 
ATOM     23  C   UNL     1       2.832   4.344  17.708  0.00  0.00    +0.000 A 
ATOM     24  C   UNL     1       1.522   3.936  17.962  0.00  0.00    +0.000 A 
ATOM     25  C   UNL     1       1.286   2.786  18.702  0.00  0.00    +0.000 A 
ATOM     26  C   UNL     1       2.364   2.076  19.232  0.00  0.00    +0.000 A 
ATOM     27  C   UNL     1       3.693   2.478  19.001  0.00  0.00    +0.000 A 
BRANCH  27  28
ATOM     28  N   UNL     1       4.696   1.840  19.751  0.00  0.00    +0.000 N 
ATOM     29  H   UNL     1       5.006   0.957  19.357  0.00  0.00    +0.000 HD
ATOM     30  H   UNL     1       5.449   2.391  20.127  0.00  0.00    +0.000 HD
ENDBRANCH  27  28
ENDBRANCH  20  22
ENDBRANCH  17  18
ENDBRANCH  16  17
ENDBRANCH   1  16
TORSDOF 10
ENDMDL
MODEL 8
REMARK VINA RESULT:      -6.9      1.480      4.113
REMARK  Name = 
REMARK  10 active torsions:
REMARK  status: ('A' for Active; 'I' for Inactive)
REMARK    1  A    between atoms: C_2  and  C_3
REMARK    2  A    between atoms: C_7  and  C_8
REMARK    3  A    between atoms: N_10  and  C_11
REMARK    4  A    between atoms: C_11  and  C_12
REMARK    5  A    between atoms: C_12  and  C_13
REMARK    6  A    between atoms: C_13  and  C_14
REMARK    7  A    between atoms: C_14  and  C_15
REMARK    8  A    between atoms: C_15  and  C_16
REMARK    9  A    between atoms: N_18  and  C_19
REMARK   10  A    between atoms: C_24  and  N_25
REMARK                            x       y       z     vdW  Elec       q    Type
REMARK                         _______ _______ _______ _____ _____    ______ ____
ROOT
ATOM      1  C   UNL     1       6.500   6.729  16.422  0.00  0.00    +0.000 C 
ENDROOT
BRANCH   1   2
ATOM      2  C   UNL     1       5.031   7.119  16.228  0.00  0.00    +0.000 C 
BRANCH   2   3
ATOM      3  C   UNL     1       4.123   6.623  17.352  0.00  0.00    +0.000 C 
BRANCH   3   6
ATOM      4  C   UNL     1       2.363   7.449  18.859  0.00  0.00    +0.000 C 
ATOM      5  O   UNL     1       2.296   6.388  19.467  0.00  0.00    +0.000 OA
ATOM      6  N   UNL     1       3.213   7.661  17.792  0.00  0.00    +0.000 N 
ATOM      7  H   UNL     1       3.305   8.576  17.377  0.00  0.00    +0.000 HD
BRANCH   4  12
ATOM      8  C   UNL     1       0.378   9.908  20.964  0.00  0.00    +0.000 A 
ATOM      9  C   UNL     1      -0.014  10.826  19.989  0.00  0.00    +0.000 A 
ATOM     10  C   UNL     1       0.364  10.635  18.659  0.00  0.00    +0.000 A 
ATOM     11  C   UNL     1       1.131   9.524  18.309  0.00  0.00    +0.000 A 
ATOM     12  C   UNL     1       1.521   8.596  19.285  0.00  0.00    +0.000 A 
ATOM     13  C   UNL     1       1.150   8.793  20.620  0.00  0.00    +0.000 A 
BRANCH   8  15
ATOM     14  N   UNL     1      -0.288  10.275  23.448  0.00  0.00    +0.000 NA
ATOM     15  C   UNL     1       0.005  10.112  22.333  0.00  0.00    +0.000 C 
ENDBRANCH   8  15
ENDBRANCH   4  12
ENDBRANCH   3   6
ENDBRANCH   2   3
ENDBRANCH   1   2
BRANCH   1  16
ATOM     16  C   UNL     1       6.751   5.237  16.182  0.00  0.00    +0.000 C 
BRANCH  16  17
ATOM     17  C   UNL     1       7.211   4.517  17.445  0.00  0.00    +0.000 C 
BRANCH  17  18
ATOM     18  C   UNL     1       6.021   4.226  18.341  0.00  0.00    +0.000 C 
ATOM     19  O   UNL     1       5.995   4.687  19.478  0.00  0.00    +0.000 OA
ATOM     20  N   UNL     1       5.021   3.495  17.717  0.00  0.00    +0.000 N 
ATOM     21  H   UNL     1       5.123   3.333  16.730  0.00  0.00    +0.000 HD
BRANCH  20  22
ATOM     22  C   UNL     1       3.768   3.131  18.280  0.00  0.00    +0.000 A 
ATOM     23  C   UNL     1       2.557   3.583  17.733  0.00  0.00    +0.000 A 
ATOM     24  C   UNL     1       1.329   3.156  18.239  0.00  0.00    +0.000 A 
ATOM     25  C   UNL     1       1.290   2.257  19.295  0.00  0.00    +0.000 A 
ATOM     26  C   UNL     1       2.482   1.828  19.877  0.00  0.00    +0.000 A 
ATOM     27  C   UNL     1       3.733   2.257  19.393  0.00  0.00    +0.000 A 
BRANCH  27  28
ATOM     28  N   UNL     1       4.861   1.953  20.173  0.00  0.00    +0.000 N 
ATOM     29  H   UNL     1       5.744   2.150  19.713  0.00  0.00    +0.000 HD
ATOM     30  H   UNL     1       4.860   2.198  21.149  0.00  0.00    +0.000 HD
ENDBRANCH  27  28
ENDBRANCH  20  22
ENDBRANCH  17  18
ENDBRANCH  16  17
ENDBRANCH   1  16
TORSDOF 10
ENDMDL
MODEL 9
REMARK VINA RESULT:      -6.9      1.998      6.459
REMARK  Name = 
REMARK  10 active torsions:
REMARK  status: ('A' for Active; 'I' for Inactive)
REMARK    1  A    between atoms: C_2  and  C_3
REMARK    2  A    between atoms: C_7  and  C_8
REMARK    3  A    between atoms: N_10  and  C_11
REMARK    4  A    between atoms: C_11  and  C_12
REMARK    5  A    between atoms: C_12  and  C_13
REMARK    6  A    between atoms: C_13  and  C_14
REMARK    7  A    between atoms: C_14  and  C_15
REMARK    8  A    between atoms: C_15  and  C_16
REMARK    9  A    between atoms: N_18  and  C_19
REMARK   10  A    between atoms: C_24  and  N_25
REMARK                            x       y       z     vdW  Elec       q    Type
REMARK                         _______ _______ _______ _____ _____    ______ ____
ROOT
ATOM      1  C   UNL     1       2.271   2.510  20.551  0.00  0.00    +0.000 C 
ENDROOT
BRANCH   1   2
ATOM      2  C   UNL     1       0.954   2.092  19.890  0.00  0.00    +0.000 C 
BRANCH   2   3
ATOM      3  C   UNL     1       0.944   2.309  18.377  0.00  0.00    +0.000 C 
BRANCH   3   6
ATOM      4  C   UNL     1       3.110   3.128  17.548  0.00  0.00    +0.000 C 
ATOM      5  O   UNL     1       3.584   2.001  17.481  0.00  0.00    +0.000 OA
ATOM      6  N   UNL     1       1.830   3.390  17.995  0.00  0.00    +0.000 N 
ATOM      7  H   UNL     1       1.446   4.321  17.948  0.00  0.00    +0.000 HD
BRANCH   4  12
ATOM      8  C   UNL     1       5.663   5.311  15.777  0.00  0.00    +0.000 A 
ATOM      9  C   UNL     1       5.336   6.565  16.295  0.00  0.00    +0.000 A 
ATOM     10  C   UNL     1       4.296   6.688  17.218  0.00  0.00    +0.000 A 
ATOM     11  C   UNL     1       3.588   5.556  17.620  0.00  0.00    +0.000 A 
ATOM     12  C   UNL     1       3.918   4.294  17.107  0.00  0.00    +0.000 A 
ATOM     13  C   UNL     1       4.955   4.171  16.175  0.00  0.00    +0.000 A 
BRANCH   8  15
ATOM     14  N   UNL     1       7.574   5.074  14.033  0.00  0.00    +0.000 NA
ATOM     15  C   UNL     1       6.720   5.186  14.816  0.00  0.00    +0.000 C 
ENDBRANCH   8  15
ENDBRANCH   4  12
ENDBRANCH   3   6
ENDBRANCH   2   3
ENDBRANCH   1   2
BRANCH   1  16
ATOM     16  C   UNL     1       2.079   3.600  21.611  0.00  0.00    +0.000 C 
BRANCH  16  17
ATOM     17  C   UNL     1       2.808   4.891  21.252  0.00  0.00    +0.000 C 
BRANCH  17  18
ATOM     18  C   UNL     1       1.847   5.867  20.598  0.00  0.00    +0.000 C 
ATOM     19  O   UNL     1       0.731   5.480  20.261  0.00  0.00    +0.000 OA
ATOM     20  N   UNL     1       2.338   7.160  20.518  0.00  0.00    +0.000 N 
ATOM     21  H   UNL     1       3.207   7.349  20.989  0.00  0.00    +0.000 HD
BRANCH  20  22
ATOM     22  C   UNL     1       1.643   8.295  20.019  0.00  0.00    +0.000 A 
ATOM     23  C   UNL     1       1.632   8.608  18.651  0.00  0.00    +0.000 A 
ATOM     24  C   UNL     1       0.881   9.675  18.158  0.00  0.00    +0.000 A 
ATOM     25  C   UNL     1       0.116  10.443  19.023  0.00  0.00    +0.000 A 
ATOM     26  C   UNL     1       0.145  10.172  20.392  0.00  0.00    +0.000 A 
ATOM     27  C   UNL     1       0.907   9.110  20.914  0.00  0.00    +0.000 A 
BRANCH  27  28
ATOM     28  N   UNL     1       1.053   9.050  22.310  0.00  0.00    +0.000 N 
ATOM     29  H   UNL     1       2.017   8.979  22.621  0.00  0.00    +0.000 HD
ATOM     30  H   UNL     1       0.496   9.660  22.885  0.00  0.00    +0.000 HD
ENDBRANCH  27  28
ENDBRANCH  20  22
ENDBRANCH  17  18
ENDBRANCH  16  17
ENDBRANCH   1  16
TORSDOF 10
ENDMDL
