MODEL 1
REMARK VINA RESULT:      -8.2      0.000      0.000
REMARK  Name = 
REMARK  7 active torsions:
REMARK  status: ('A' for Active; 'I' for Inactive)
REMARK    1  A    between atoms: C_1  and  C_2
REMARK    2  A    between atoms: C_2  and  C_3
REMARK    3  A    between atoms: C_2  and  N_19
REMARK    4  A    between atoms: N_9  and  C_10
REMARK    5  A    between atoms: C_21  and  O_22
REMARK    6  A    between atoms: O_22  and  C_23
REMARK    7  A    between atoms: C_30  and  C_31
REMARK                            x       y       z     vdW  Elec       q    Type
REMARK                         _______ _______ _______ _____ _____    ______ ____
ROOT
ATOM      1  C   UNL     1       0.600  12.275  19.412  0.00  0.00    +0.000 C 
ATOM      2  C   UNL     1      -0.189  10.959  19.341  0.00  0.00    +0.000 C 
ENDROOT
BRANCH   2   3
ATOM      3  C   UNL     1      -1.504  11.192  18.587  0.00  0.00    +0.000 A 
ATOM      4  N   UNL     1      -2.568  11.568  19.232  0.00  0.00    +0.000 NA
ATOM      5  C   UNL     1      -3.669  11.674  18.458  0.00  0.00    +0.000 A 
ATOM      6  C   UNL     1      -3.773  11.415  17.116  0.00  0.00    +0.000 A 
ATOM      7  C   UNL     1      -5.121  11.631  16.806  0.00  0.00    +0.000 A 
ATOM      8  N   UNL     1      -5.828  12.031  17.874  0.00  0.00    +0.000 NA
ATOM      9  N   UNL     1      -4.909  12.076  18.872  0.00  0.00    +0.000 N 
ATOM     10  C   UNL     1      -2.594  11.020  16.402  0.00  0.00    +0.000 A 
ATOM     11  O   UNL     1      -2.566  10.747  15.208  0.00  0.00    +0.000 OA
ATOM     12  N   UNL     1      -1.473  10.958  17.217  0.00  0.00    +0.000 N 
ATOM     13  H   UNL     1      -0.606  10.719  16.758  0.00  0.00    +0.000 HD
BRANCH   9  14
ATOM     14  C   UNL     1      -5.283  12.552  20.200  0.00  0.00    +0.000 C 
ATOM     15  C   UNL     1      -6.637  11.981  20.651  0.00  0.00    +0.000 C 
ATOM     16  C   UNL     1      -7.090  12.604  21.960  0.00  0.00    +0.000 C 
ATOM     17  O   UNL     1      -7.086  14.028  21.868  0.00  0.00    +0.000 OA
ATOM     18  C   UNL     1      -5.777  14.546  21.640  0.00  0.00    +0.000 C 
ATOM     19  C   UNL     1      -5.250  14.082  20.292  0.00  0.00    +0.000 C 
ENDBRANCH   9  14
ENDBRANCH   2   3
BRANCH   2  20
ATOM     20  N   UNL     1       0.460   9.744  18.819  0.00  0.00    +0.000 NA
ATOM     21  C   UNL     1       1.712   9.928  18.049  0.00  0.00    +0.000 C 
ATOM     22  C   UNL     1       2.276   8.661  18.771  0.00  0.00    +0.000 C 
ATOM     23  C   UNL     1       1.232   9.037  19.857  0.00  0.00    +0.000 C 
BRANCH  22  24
ATOM     24  O   UNL     1       2.129   7.366  18.122  0.00  0.00    +0.000 OA
BRANCH  24  25
ATOM     25  C   UNL     1       3.253   6.567  18.002  0.00  0.00    +0.000 A 
ATOM     26  C   UNL     1       4.340   6.913  17.187  0.00  0.00    +0.000 A 
ATOM     27  C   UNL     1       5.480   6.112  17.127  0.00  0.00    +0.000 A 
ATOM     28  C   UNL     1       5.528   4.946  17.873  0.00  0.00    +0.000 A 
ATOM     29  F   UNL     1       6.632   4.192  17.787  0.00  0.00    +0.000 F 
ATOM     30  C   UNL     1       4.455   4.567  18.680  0.00  0.00    +0.000 A 
ATOM     31 CL   UNL     1       4.590   3.079  19.554  0.00  0.00    +0.000 Cl
ATOM     32  C   UNL     1       3.308   5.378  18.756  0.00  0.00    +0.000 A 
BRANCH  32  33
ATOM     33  C   UNL     1       2.196   4.983  19.573  0.00  0.00    +0.000 C 
ATOM     34  N   UNL     1       1.301   4.685  20.251  0.00  0.00    +0.000 NA
ENDBRANCH  32  33
ENDBRANCH  24  25
ENDBRANCH  22  24
ENDBRANCH   2  20
TORSDOF 6
ENDMDL
MODEL 2
REMARK VINA RESULT:      -7.9      1.338      1.822
REMARK  Name = 
REMARK  7 active torsions:
REMARK  status: ('A' for Active; 'I' for Inactive)
REMARK    1  A    between atoms: C_1  and  C_2
REMARK    2  A    between atoms: C_2  and  C_3
REMARK    3  A    between atoms: C_2  and  N_19
REMARK    4  A    between atoms: N_9  and  C_10
REMARK    5  A    between atoms: C_21  and  O_22
REMARK    6  A    between atoms: O_22  and  C_23
REMARK    7  A    between atoms: C_30  and  C_31
REMARK                            x       y       z     vdW  Elec       q    Type
REMARK                         _______ _______ _______ _____ _____    ______ ____
ROOT
ATOM      1  C   UNL     1       0.679  12.218  19.374  0.00  0.00    +0.000 C 
ATOM      2  C   UNL     1      -0.104  10.899  19.286  0.00  0.00    +0.000 C 
ENDROOT
BRANCH   2   3
ATOM      3  C   UNL     1      -1.435  11.142  18.562  0.00  0.00    +0.000 A 
ATOM      4  N   UNL     1      -2.488  11.501  19.236  0.00  0.00    +0.000 NA
ATOM      5  C   UNL     1      -3.604  11.619  18.485  0.00  0.00    +0.000 A 
ATOM      6  C   UNL     1      -3.733  11.388  17.141  0.00  0.00    +0.000 A 
ATOM      7  C   UNL     1      -5.087  11.604  16.862  0.00  0.00    +0.000 A 
ATOM      8  N   UNL     1      -5.775  11.980  17.952  0.00  0.00    +0.000 NA
ATOM      9  N   UNL     1      -4.836  12.008  18.932  0.00  0.00    +0.000 N 
ATOM     10  C   UNL     1      -2.567  11.011  16.396  0.00  0.00    +0.000 A 
ATOM     11  O   UNL     1      -2.561  10.764  15.197  0.00  0.00    +0.000 OA
ATOM     12  N   UNL     1      -1.430  10.937  17.188  0.00  0.00    +0.000 N 
ATOM     13  H   UNL     1      -0.572  10.711  16.707  0.00  0.00    +0.000 HD
BRANCH   9  14
ATOM     14  C   UNL     1      -5.187  12.455  20.277  0.00  0.00    +0.000 C 
ATOM     15  C   UNL     1      -6.583  11.969  20.695  0.00  0.00    +0.000 C 
ATOM     16  C   UNL     1      -7.000  12.569  22.026  0.00  0.00    +0.000 C 
ATOM     17  O   UNL     1      -6.890  13.991  21.995  0.00  0.00    +0.000 OA
ATOM     18  C   UNL     1      -5.544  14.419  21.796  0.00  0.00    +0.000 C 
ATOM     19  C   UNL     1      -5.041  13.973  20.433  0.00  0.00    +0.000 C 
ENDBRANCH   9  14
ENDBRANCH   2   3
BRANCH   2  20
ATOM     20  N   UNL     1       0.541   9.701  18.723  0.00  0.00    +0.000 NA
ATOM     21  C   UNL     1       1.801   9.906  17.971  0.00  0.00    +0.000 C 
ATOM     22  C   UNL     1       2.350   8.607  18.649  0.00  0.00    +0.000 C 
ATOM     23  C   UNL     1       1.298   8.948  19.738  0.00  0.00    +0.000 C 
BRANCH  22  24
ATOM     24  O   UNL     1       2.200   7.340  17.948  0.00  0.00    +0.000 OA
BRANCH  24  25
ATOM     25  C   UNL     1       2.843   6.229  18.467  0.00  0.00    +0.000 A 
ATOM     26  C   UNL     1       2.344   5.514  19.565  0.00  0.00    +0.000 A 
ATOM     27  C   UNL     1       2.989   4.370  20.033  0.00  0.00    +0.000 A 
ATOM     28  C   UNL     1       4.152   3.947  19.412  0.00  0.00    +0.000 A 
ATOM     29  F   UNL     1       4.755   2.849  19.890  0.00  0.00    +0.000 F 
ATOM     30  C   UNL     1       4.682   4.648  18.328  0.00  0.00    +0.000 A 
ATOM     31 CL   UNL     1       6.156   4.064  17.633  0.00  0.00    +0.000 Cl
ATOM     32  C   UNL     1       4.029   5.795  17.842  0.00  0.00    +0.000 A 
BRANCH  32  33
ATOM     33  C   UNL     1       4.580   6.528  16.738  0.00  0.00    +0.000 C 
ATOM     34  N   UNL     1       5.049   7.103  15.844  0.00  0.00    +0.000 NA
ENDBRANCH  32  33
ENDBRANCH  24  25
ENDBRANCH  22  24
ENDBRANCH   2  20
TORSDOF 6
ENDMDL
MODEL 3
REMARK VINA RESULT:      -7.7      1.937      2.490
REMARK  Name = 
REMARK  7 active torsions:
REMARK  status: ('A' for Active; 'I' for Inactive)
REMARK    1  A    between atoms: C_1  and  C_2
REMARK    2  A    between atoms: C_2  and  C_3
REMARK    3  A    between atoms: C_2  and  N_19
REMARK    4  A    between atoms: N_9  and  C_10
REMARK    5  A    between atoms: C_21  and  O_22
REMARK    6  A    between atoms: O_22  and  C_23
REMARK    7  A    between atoms: C_30  and  C_31
REMARK                            x       y       z     vdW  Elec       q    Type
REMARK                         _______ _______ _______ _____ _____    ______ ____
ROOT
ATOM      1  C   UNL     1       1.565  11.642  18.577  0.00  0.00    +0.000 C 
ATOM      2  C   UNL     1       0.658  10.488  19.031  0.00  0.00    +0.000 C 
ENDROOT
BRANCH   2   3
ATOM      3  C   UNL     1      -0.782  10.761  18.578  0.00  0.00    +0.000 A 
ATOM      4  N   UNL     1      -1.566  11.499  19.308  0.00  0.00    +0.000 NA
ATOM      5  C   UNL     1      -2.822  11.605  18.825  0.00  0.00    +0.000 A 
ATOM      6  C   UNL     1      -3.336  11.020  17.698  0.00  0.00    +0.000 A 
ATOM      7  C   UNL     1      -4.681  11.403  17.666  0.00  0.00    +0.000 A 
ATOM      8  N   UNL     1      -5.002  12.208  18.692  0.00  0.00    +0.000 NA
ATOM      9  N   UNL     1      -3.836  12.340  19.376  0.00  0.00    +0.000 N 
ATOM     10  C   UNL     1      -2.464  10.222  16.884  0.00  0.00    +0.000 A 
ATOM     11  O   UNL     1      -2.811   9.637  15.865  0.00  0.00    +0.000 OA
ATOM     12  N   UNL     1      -1.172  10.164  17.385  0.00  0.00    +0.000 N 
ATOM     13  H   UNL     1      -0.507   9.645  16.831  0.00  0.00    +0.000 HD
BRANCH   9  14
ATOM     14  C   UNL     1      -3.757  13.221  20.536  0.00  0.00    +0.000 C 
ATOM     15  C   UNL     1      -3.688  12.429  21.852  0.00  0.00    +0.000 C 
ATOM     16  C   UNL     1      -3.765  13.352  23.055  0.00  0.00    +0.000 C 
ATOM     17  O   UNL     1      -4.912  14.196  22.971  0.00  0.00    +0.000 OA
ATOM     18  C   UNL     1      -4.858  15.061  21.839  0.00  0.00    +0.000 C 
ATOM     19  C   UNL     1      -4.890  14.254  20.551  0.00  0.00    +0.000 C 
ENDBRANCH   9  14
ENDBRANCH   2   3
BRANCH   2  20
ATOM     20  N   UNL     1       1.016   9.100  18.693  0.00  0.00    +0.000 NA
ATOM     21  C   UNL     1       2.201   8.902  17.826  0.00  0.00    +0.000 C 
ATOM     22  C   UNL     1       2.585   7.682  18.725  0.00  0.00    +0.000 C 
ATOM     23  C   UNL     1       1.738   8.430  19.789  0.00  0.00    +0.000 C 
BRANCH  22  24
ATOM     24  O   UNL     1       2.138   6.355  18.326  0.00  0.00    +0.000 OA
BRANCH  24  25
ATOM     25  C   UNL     1       2.317   5.313  19.220  0.00  0.00    +0.000 A 
ATOM     26  C   UNL     1       1.659   5.259  20.457  0.00  0.00    +0.000 A 
ATOM     27  C   UNL     1       1.822   4.171  21.313  0.00  0.00    +0.000 A 
ATOM     28  C   UNL     1       2.663   3.136  20.940  0.00  0.00    +0.000 A 
ATOM     29  F   UNL     1       2.806   2.108  21.788  0.00  0.00    +0.000 F 
ATOM     30  C   UNL     1       3.344   3.169  19.722  0.00  0.00    +0.000 A 
ATOM     31 CL   UNL     1       4.397   1.846  19.352  0.00  0.00    +0.000 Cl
ATOM     32  C   UNL     1       3.173   4.258  18.848  0.00  0.00    +0.000 A 
BRANCH  32  33
ATOM     33  C   UNL     1       3.885   4.302  17.603  0.00  0.00    +0.000 C 
ATOM     34  N   UNL     1       4.437   4.342  16.581  0.00  0.00    +0.000 NA
ENDBRANCH  32  33
ENDBRANCH  24  25
ENDBRANCH  22  24
ENDBRANCH   2  20
TORSDOF 6
ENDMDL
MODEL 4
REMARK VINA RESULT:      -7.7      1.003      1.003
REMARK  Name = 
REMARK  7 active torsions:
REMARK  status: ('A' for Active; 'I' for Inactive)
REMARK    1  A    between atoms: C_1  and  C_2
REMARK    2  A    between atoms: C_2  and  C_3
REMARK    3  A    between atoms: C_2  and  N_19
REMARK    4  A    between atoms: N_9  and  C_10
REMARK    5  A    between atoms: C_21  and  O_22
REMARK    6  A    between atoms: O_22  and  C_23
REMARK    7  A    between atoms: C_30  and  C_31
REMARK                            x       y       z     vdW  Elec       q    Type
REMARK                         _______ _______ _______ _____ _____    ______ ____
ROOT
ATOM      1  C   UNL     1       0.866  12.147  18.807  0.00  0.00    +0.000 C 
ATOM      2  C   UNL     1       0.073  10.847  19.008  0.00  0.00    +0.000 C 
ENDROOT
BRANCH   2   3
ATOM      3  C   UNL     1      -1.326  11.002  18.398  0.00  0.00    +0.000 A 
ATOM      4  N   UNL     1      -2.251  11.650  19.044  0.00  0.00    +0.000 NA
ATOM      5  C   UNL     1      -3.450  11.655  18.423  0.00  0.00    +0.000 A 
ATOM      6  C   UNL     1      -3.778  11.052  17.237  0.00  0.00    +0.000 A 
ATOM      7  C   UNL     1      -5.140  11.315  17.058  0.00  0.00    +0.000 A 
ATOM      8  N   UNL     1      -5.646  12.065  18.050  0.00  0.00    +0.000 NA
ATOM      9  N   UNL     1      -4.581  12.284  18.864  0.00  0.00    +0.000 N 
ATOM     10  C   UNL     1      -2.752  10.354  16.517  0.00  0.00    +0.000 A 
ATOM     11  O   UNL     1      -2.928   9.765  15.459  0.00  0.00    +0.000 OA
ATOM     12  N   UNL     1      -1.524  10.400  17.161  0.00  0.00    +0.000 N 
ATOM     13  H   UNL     1      -0.757   9.955  16.680  0.00  0.00    +0.000 HD
BRANCH   9  14
ATOM     14  C   UNL     1      -4.713  13.141  20.037  0.00  0.00    +0.000 C 
ATOM     15  C   UNL     1      -5.070  12.336  21.297  0.00  0.00    +0.000 C 
ATOM     16  C   UNL     1      -5.359  13.252  22.473  0.00  0.00    +0.000 C 
ATOM     17  O   UNL     1      -6.350  14.219  22.128  0.00  0.00    +0.000 OA
ATOM     18  C   UNL     1      -5.914  15.081  21.080  0.00  0.00    +0.000 C 
ATOM     19  C   UNL     1      -5.696  14.293  19.799  0.00  0.00    +0.000 C 
ENDBRANCH   9  14
ENDBRANCH   2   3
BRANCH   2  20
ATOM     20  N   UNL     1       0.650   9.563  18.575  0.00  0.00    +0.000 NA
ATOM     21  C   UNL     1       1.949   9.615  17.865  0.00  0.00    +0.000 C 
ATOM     22  C   UNL     1       2.377   8.345  18.671  0.00  0.00    +0.000 C 
ATOM     23  C   UNL     1       1.312   8.850  19.682  0.00  0.00    +0.000 C 
BRANCH  22  24
ATOM     24  O   UNL     1       2.162   7.035  18.073  0.00  0.00    +0.000 OA
BRANCH  24  25
ATOM     25  C   UNL     1       3.274   6.299  17.701  0.00  0.00    +0.000 A 
ATOM     26  C   UNL     1       4.503   6.898  17.387  0.00  0.00    +0.000 A 
ATOM     27  C   UNL     1       5.618   6.126  17.065  0.00  0.00    +0.000 A 
ATOM     28  C   UNL     1       5.502   4.747  17.038  0.00  0.00    +0.000 A 
ATOM     29  F   UNL     1       6.590   4.032  16.716  0.00  0.00    +0.000 F 
ATOM     30  C   UNL     1       4.288   4.124  17.329  0.00  0.00    +0.000 A 
ATOM     31 CL   UNL     1       4.228   2.395  17.241  0.00  0.00    +0.000 Cl
ATOM     32  C   UNL     1       3.162   4.896  17.668  0.00  0.00    +0.000 A 
BRANCH  32  33
ATOM     33  C   UNL     1       1.908   4.258  17.952  0.00  0.00    +0.000 C 
ATOM     34  N   UNL     1       0.891   3.757  18.206  0.00  0.00    +0.000 NA
ENDBRANCH  32  33
ENDBRANCH  24  25
ENDBRANCH  22  24
ENDBRANCH   2  20
TORSDOF 6
ENDMDL
MODEL 5
REMARK VINA RESULT:      -7.5      2.399      3.110
REMARK  Name = 
REMARK  7 active torsions:
REMARK  status: ('A' for Active; 'I' for Inactive)
REMARK    1  A    between atoms: C_1  and  C_2
REMARK    2  A    between atoms: C_2  and  C_3
REMARK    3  A    between atoms: C_2  and  N_19
REMARK    4  A    between atoms: N_9  and  C_10
REMARK    5  A    between atoms: C_21  and  O_22
REMARK    6  A    between atoms: O_22  and  C_23
REMARK    7  A    between atoms: C_30  and  C_31
REMARK                            x       y       z     vdW  Elec       q    Type
REMARK                         _______ _______ _______ _____ _____    ______ ____
ROOT
ATOM      1  C   UNL     1       1.851  11.444  18.545  0.00  0.00    +0.000 C 
ATOM      2  C   UNL     1       0.913  10.358  19.094  0.00  0.00    +0.000 C 
ENDROOT
BRANCH   2   3
ATOM      3  C   UNL     1      -0.537  10.707  18.737  0.00  0.00    +0.000 A 
ATOM      4  N   UNL     1      -1.236  11.474  19.521  0.00  0.00    +0.000 NA
ATOM      5  C   UNL     1      -2.513  11.648  19.121  0.00  0.00    +0.000 A 
ATOM      6  C   UNL     1      -3.126  11.101  18.025  0.00  0.00    +0.000 A 
ATOM      7  C   UNL     1      -4.450  11.551  18.083  0.00  0.00    +0.000 A 
ATOM      8  N   UNL     1      -4.664  12.359  19.134  0.00  0.00    +0.000 NA
ATOM      9  N   UNL     1      -3.452  12.425  19.742  0.00  0.00    +0.000 N 
ATOM     10  C   UNL     1      -2.349  10.271  17.149  0.00  0.00    +0.000 A 
ATOM     11  O   UNL     1      -2.789   9.716  16.151  0.00  0.00    +0.000 OA
ATOM     12  N   UNL     1      -1.032  10.144  17.566  0.00  0.00    +0.000 N 
ATOM     13  H   UNL     1      -0.430   9.599  16.966  0.00  0.00    +0.000 HD
BRANCH   9  14
ATOM     14  C   UNL     1      -3.255  13.288  20.903  0.00  0.00    +0.000 C 
ATOM     15  C   UNL     1      -2.155  14.332  20.658  0.00  0.00    +0.000 C 
ATOM     16  C   UNL     1      -1.851  15.118  21.921  0.00  0.00    +0.000 C 
ATOM     17  O   UNL     1      -1.555  14.238  23.004  0.00  0.00    +0.000 OA
ATOM     18  C   UNL     1      -2.665  13.409  23.338  0.00  0.00    +0.000 C 
ATOM     19  C   UNL     1      -3.003  12.481  22.182  0.00  0.00    +0.000 C 
ENDBRANCH   9  14
ENDBRANCH   2   3
BRANCH   2  20
ATOM     20  N   UNL     1       1.164   8.943  18.770  0.00  0.00    +0.000 NA
ATOM     21  C   UNL     1       2.309   8.650  17.877  0.00  0.00    +0.000 C 
ATOM     22  C   UNL     1       2.630   7.418  18.786  0.00  0.00    +0.000 C 
ATOM     23  C   UNL     1       1.865   8.240  19.859  0.00  0.00    +0.000 C 
BRANCH  22  24
ATOM     24  O   UNL     1       2.080   6.121  18.420  0.00  0.00    +0.000 OA
BRANCH  24  25
ATOM     25  C   UNL     1       2.211   5.080  19.325  0.00  0.00    +0.000 A 
ATOM     26  C   UNL     1       1.304   4.878  20.375  0.00  0.00    +0.000 A 
ATOM     27  C   UNL     1       1.435   3.791  21.239  0.00  0.00    +0.000 A 
ATOM     28  C   UNL     1       2.489   2.910  21.065  0.00  0.00    +0.000 A 
ATOM     29  F   UNL     1       2.593   1.881  21.917  0.00  0.00    +0.000 F 
ATOM     30  C   UNL     1       3.416   3.096  20.039  0.00  0.00    +0.000 A 
ATOM     31 CL   UNL     1       4.719   1.962  19.914  0.00  0.00    +0.000 Cl
ATOM     32  C   UNL     1       3.282   4.182  19.155  0.00  0.00    +0.000 A 
BRANCH  32  33
ATOM     33  C   UNL     1       4.243   4.385  18.109  0.00  0.00    +0.000 C 
ATOM     34  N   UNL     1       5.009   4.529  17.247  0.00  0.00    +0.000 NA
ENDBRANCH  32  33
ENDBRANCH  24  25
ENDBRANCH  22  24
ENDBRANCH   2  20
TORSDOF 6
ENDMDL
MODEL 6
REMARK VINA RESULT:      -7.5      5.855      9.130
REMARK  Name = 
REMARK  7 active torsions:
REMARK  status: ('A' for Active; 'I' for Inactive)
REMARK    1  A    between atoms: C_1  and  C_2
REMARK    2  A    between atoms: C_2  and  C_3
REMARK    3  A    between atoms: C_2  and  N_19
REMARK    4  A    between atoms: N_9  and  C_10
REMARK    5  A    between atoms: C_21  and  O_22
REMARK    6  A    between atoms: O_22  and  C_23
REMARK    7  A    between atoms: C_30  and  C_31
REMARK                            x       y       z     vdW  Elec       q    Type
REMARK                         _______ _______ _______ _____ _____    ______ ____
ROOT
ATOM      1  C   UNL     1       7.328   4.981  16.958  0.00  0.00    +0.000 C 
ATOM      2  C   UNL     1       6.424   6.146  17.390  0.00  0.00    +0.000 C 
ENDROOT
BRANCH   2   3
ATOM      3  C   UNL     1       5.220   5.597  18.166  0.00  0.00    +0.000 A 
ATOM      4  N   UNL     1       4.357   6.415  18.693  0.00  0.00    +0.000 NA
ATOM      5  C   UNL     1       3.384   5.802  19.401  0.00  0.00    +0.000 A 
ATOM      6  C   UNL     1       3.235   4.458  19.624  0.00  0.00    +0.000 A 
ATOM      7  C   UNL     1       2.108   4.347  20.445  0.00  0.00    +0.000 A 
ATOM      8  N   UNL     1       1.552   5.541  20.707  0.00  0.00    +0.000 NA
ATOM      9  N   UNL     1       2.339   6.418  20.032  0.00  0.00    +0.000 N 
ATOM     10  C   UNL     1       4.176   3.556  19.025  0.00  0.00    +0.000 A 
ATOM     11  O   UNL     1       4.156   2.340  19.165  0.00  0.00    +0.000 OA
ATOM     12  N   UNL     1       5.140   4.214  18.274  0.00  0.00    +0.000 N 
ATOM     13  H   UNL     1       5.807   3.624  17.799  0.00  0.00    +0.000 HD
BRANCH   9  14
ATOM     14  C   UNL     1       2.006   7.838  20.006  0.00  0.00    +0.000 C 
ATOM     15  C   UNL     1       0.963   8.201  21.075  0.00  0.00    +0.000 C 
ATOM     16  C   UNL     1       0.509   9.643  20.936  0.00  0.00    +0.000 C 
ATOM     17  O   UNL     1       0.060   9.905  19.607  0.00  0.00    +0.000 OA
ATOM     18  C   UNL     1       1.105   9.747  18.649  0.00  0.00    +0.000 C 
ATOM     19  C   UNL     1       1.576   8.302  18.609  0.00  0.00    +0.000 C 
ENDBRANCH   9  14
ENDBRANCH   2   3
BRANCH   2  20
ATOM     20  N   UNL     1       6.998   7.283  18.129  0.00  0.00    +0.000 NA
ATOM     21  C   UNL     1       8.253   7.035  18.876  0.00  0.00    +0.000 C 
ATOM     22  C   UNL     1       8.749   8.439  18.398  0.00  0.00    +0.000 C 
ATOM     23  C   UNL     1       7.736   8.204  17.245  0.00  0.00    +0.000 C 
BRANCH  22  24
ATOM     24  O   UNL     1       8.523   9.589  19.262  0.00  0.00    +0.000 OA
BRANCH  24  25
ATOM     25  C   UNL     1       9.317  10.708  19.076  0.00  0.00    +0.000 A 
ATOM     26  C   UNL     1       9.953  10.986  17.858  0.00  0.00    +0.000 A 
ATOM     27  C   UNL     1      10.705  12.148  17.687  0.00  0.00    +0.000 A 
ATOM     28  C   UNL     1      10.839  13.030  18.746  0.00  0.00    +0.000 A 
ATOM     29  F   UNL     1      11.575  14.133  18.554  0.00  0.00    +0.000 F 
ATOM     30  C   UNL     1      10.231  12.771  19.975  0.00  0.00    +0.000 A 
ATOM     31 CL   UNL     1      10.477  13.914  21.252  0.00  0.00    +0.000 Cl
ATOM     32  C   UNL     1       9.459  11.608  20.150  0.00  0.00    +0.000 A 
BRANCH  32  33
ATOM     33  C   UNL     1       8.847  11.331  21.418  0.00  0.00    +0.000 C 
ATOM     34  N   UNL     1       8.372  11.088  22.450  0.00  0.00    +0.000 NA
ENDBRANCH  32  33
ENDBRANCH  24  25
ENDBRANCH  22  24
ENDBRANCH   2  20
TORSDOF 6
ENDMDL
MODEL 7
REMARK VINA RESULT:      -7.4      2.192      3.223
REMARK  Name = 
REMARK  7 active torsions:
REMARK  status: ('A' for Active; 'I' for Inactive)
REMARK    1  A    between atoms: C_1  and  C_2
REMARK    2  A    between atoms: C_2  and  C_3
REMARK    3  A    between atoms: C_2  and  N_19
REMARK    4  A    between atoms: N_9  and  C_10
REMARK    5  A    between atoms: C_21  and  O_22
REMARK    6  A    between atoms: O_22  and  C_23
REMARK    7  A    between atoms: C_30  and  C_31
REMARK                            x       y       z     vdW  Elec       q    Type
REMARK                         _______ _______ _______ _____ _____    ______ ____
ROOT
ATOM      1  C   UNL     1      -1.434  10.986  17.623  0.00  0.00    +0.000 C 
ATOM      2  C   UNL     1      -0.332  11.033  18.691  0.00  0.00    +0.000 C 
ENDROOT
BRANCH   2   3
ATOM      3  C   UNL     1      -0.963  11.292  20.065  0.00  0.00    +0.000 A 
ATOM      4  N   UNL     1      -2.001  12.069  20.170  0.00  0.00    +0.000 NA
ATOM      5  C   UNL     1      -2.415  12.260  21.441  0.00  0.00    +0.000 A 
ATOM      6  C   UNL     1      -1.859  11.752  22.585  0.00  0.00    +0.000 A 
ATOM      7  C   UNL     1      -2.625  12.280  23.630  0.00  0.00    +0.000 A 
ATOM      8  N   UNL     1      -3.628  13.053  23.182  0.00  0.00    +0.000 NA
ATOM      9  N   UNL     1      -3.494  13.004  21.832  0.00  0.00    +0.000 N 
ATOM     10  C   UNL     1      -0.726  10.880  22.466  0.00  0.00    +0.000 A 
ATOM     11  O   UNL     1      -0.135  10.379  23.415  0.00  0.00    +0.000 OA
ATOM     12  N   UNL     1      -0.349  10.673  21.147  0.00  0.00    +0.000 N 
ATOM     13  H   UNL     1       0.421  10.037  21.004  0.00  0.00    +0.000 HD
BRANCH   9  14
ATOM     14  C   UNL     1      -4.466  13.670  20.970  0.00  0.00    +0.000 C 
ATOM     15  C   UNL     1      -4.899  15.030  21.541  0.00  0.00    +0.000 C 
ATOM     16  C   UNL     1      -6.022  15.639  20.721  0.00  0.00    +0.000 C 
ATOM     17  O   UNL     1      -7.104  14.719  20.586  0.00  0.00    +0.000 OA
ATOM     18  C   UNL     1      -6.721  13.542  19.880  0.00  0.00    +0.000 C 
ATOM     19  C   UNL     1      -5.669  12.772  20.660  0.00  0.00    +0.000 C 
ENDBRANCH   9  14
ENDBRANCH   2   3
BRANCH   2  20
ATOM     20  N   UNL     1       0.629   9.922  18.802  0.00  0.00    +0.000 NA
ATOM     21  C   UNL     1       0.533   8.847  17.787  0.00  0.00    +0.000 C 
ATOM     22  C   UNL     1       2.096   8.819  17.752  0.00  0.00    +0.000 C 
ATOM     23  C   UNL     1       1.954  10.278  18.264  0.00  0.00    +0.000 C 
BRANCH  22  24
ATOM     24  O   UNL     1       2.796   7.875  18.611  0.00  0.00    +0.000 OA
BRANCH  24  25
ATOM     25  C   UNL     1       3.454   6.814  18.012  0.00  0.00    +0.000 A 
ATOM     26  C   UNL     1       4.329   6.986  16.929  0.00  0.00    +0.000 A 
ATOM     27  C   UNL     1       5.015   5.904  16.380  0.00  0.00    +0.000 A 
ATOM     28  C   UNL     1       4.814   4.637  16.903  0.00  0.00    +0.000 A 
ATOM     29  F   UNL     1       5.481   3.616  16.348  0.00  0.00    +0.000 F 
ATOM     30  C   UNL     1       3.936   4.434  17.969  0.00  0.00    +0.000 A 
ATOM     31 CL   UNL     1       3.723   2.813  18.539  0.00  0.00    +0.000 Cl
ATOM     32  C   UNL     1       3.251   5.523  18.537  0.00  0.00    +0.000 A 
BRANCH  32  33
ATOM     33  C   UNL     1       2.336   5.314  19.622  0.00  0.00    +0.000 C 
ATOM     34  N   UNL     1       1.577   5.135  20.483  0.00  0.00    +0.000 NA
ENDBRANCH  32  33
ENDBRANCH  24  25
ENDBRANCH  22  24
ENDBRANCH   2  20
TORSDOF 6
ENDMDL
MODEL 8
REMARK VINA RESULT:      -7.2      1.825      2.430
REMARK  Name = 
REMARK  7 active torsions:
REMARK  status: ('A' for Active; 'I' for Inactive)
REMARK    1  A    between atoms: C_1  and  C_2
REMARK    2  A    between atoms: C_2  and  C_3
REMARK    3  A    between atoms: C_2  and  N_19
REMARK    4  A    between atoms: N_9  and  C_10
REMARK    5  A    between atoms: C_21  and  O_22
REMARK    6  A    between atoms: O_22  and  C_23
REMARK    7  A    between atoms: C_30  and  C_31
REMARK                            x       y       z     vdW  Elec       q    Type
REMARK                         _______ _______ _______ _____ _____    ______ ____
ROOT
ATOM      1  C   UNL     1       1.385  13.105  18.272  0.00  0.00    +0.000 C 
ATOM      2  C   UNL     1       0.691  12.160  19.264  0.00  0.00    +0.000 C 
ENDROOT
BRANCH   2   3
ATOM      3  C   UNL     1      -0.776  11.976  18.854  0.00  0.00    +0.000 A 
ATOM      4  N   UNL     1      -1.729  12.319  19.670  0.00  0.00    +0.000 NA
ATOM      5  C   UNL     1      -2.968  12.046  19.210  0.00  0.00    +0.000 A 
ATOM      6  C   UNL     1      -3.305  11.448  18.024  0.00  0.00    +0.000 A 
ATOM      7  C   UNL     1      -4.700  11.353  18.045  0.00  0.00    +0.000 A 
ATOM      8  N   UNL     1      -5.227  11.884  19.160  0.00  0.00    +0.000 NA
ATOM      9  N   UNL     1      -4.144  12.327  19.849  0.00  0.00    +0.000 N 
ATOM     10  C   UNL     1      -2.253  11.087  17.117  0.00  0.00    +0.000 A 
ATOM     11  O   UNL     1      -2.429  10.535  16.038  0.00  0.00    +0.000 OA
ATOM     12  N   UNL     1      -0.996  11.416  17.601  0.00  0.00    +0.000 N 
ATOM     13  H   UNL     1      -0.221  11.218  16.986  0.00  0.00    +0.000 HD
BRANCH   9  14
ATOM     14  C   UNL     1      -4.314  13.051  21.105  0.00  0.00    +0.000 C 
ATOM     15  C   UNL     1      -5.616  12.656  21.820  0.00  0.00    +0.000 C 
ATOM     16  C   UNL     1      -5.859  13.525  23.041  0.00  0.00    +0.000 C 
ATOM     17  O   UNL     1      -5.809  14.908  22.694  0.00  0.00    +0.000 OA
ATOM     18  C   UNL     1      -4.524  15.292  22.212  0.00  0.00    +0.000 C 
ATOM     19  C   UNL     1      -4.205  14.568  20.914  0.00  0.00    +0.000 C 
ENDBRANCH   9  14
ENDBRANCH   2   3
BRANCH   2  20
ATOM     20  N   UNL     1       1.281  10.841  19.554  0.00  0.00    +0.000 NA
ATOM     21  C   UNL     1       0.343   9.740  19.874  0.00  0.00    +0.000 C 
ATOM     22  C   UNL     1       1.247   8.796  19.015  0.00  0.00    +0.000 C 
ATOM     23  C   UNL     1       1.666  10.123  18.326  0.00  0.00    +0.000 C 
BRANCH  22  24
ATOM     24  O   UNL     1       2.290   8.032  19.684  0.00  0.00    +0.000 OA
BRANCH  24  25
ATOM     25  C   UNL     1       2.185   6.651  19.686  0.00  0.00    +0.000 A 
ATOM     26  C   UNL     1       1.397   5.957  20.616  0.00  0.00    +0.000 A 
ATOM     27  C   UNL     1       1.272   4.570  20.560  0.00  0.00    +0.000 A 
ATOM     28  C   UNL     1       1.953   3.867  19.580  0.00  0.00    +0.000 A 
ATOM     29  F   UNL     1       1.820   2.534  19.558  0.00  0.00    +0.000 F 
ATOM     30  C   UNL     1       2.758   4.530  18.652  0.00  0.00    +0.000 A 
ATOM     31 CL   UNL     1       3.596   3.568  17.481  0.00  0.00    +0.000 Cl
ATOM     32  C   UNL     1       2.877   5.930  18.694  0.00  0.00    +0.000 A 
BRANCH  32  33
ATOM     33  C   UNL     1       3.717   6.612  17.751  0.00  0.00    +0.000 C 
ATOM     34  N   UNL     1       4.384   7.189  16.995  0.00  0.00    +0.000 NA
ENDBRANCH  32  33
ENDBRANCH  24  25
ENDBRANCH  22  24
ENDBRANCH   2  20
TORSDOF 6
ENDMDL
MODEL 9
REMARK VINA RESULT:      -7.2      4.238      9.696
REMARK  Name = 
REMARK  7 active torsions:
REMARK  status: ('A' for Active; 'I' for Inactive)
REMARK    1  A    between atoms: C_1  and  C_2
REMARK    2  A    between atoms: C_2  and  C_3
REMARK    3  A    between atoms: C_2  and  N_19
REMARK    4  A    between atoms: N_9  and  C_10
REMARK    5  A    between atoms: C_21  and  O_22
REMARK    6  A    between atoms: O_22  and  C_23
REMARK    7  A    between atoms: C_30  and  C_31
REMARK                            x       y       z     vdW  Elec       q    Type
REMARK                         _______ _______ _______ _____ _____    ______ ____
ROOT
ATOM      1  C   UNL     1      -0.367   8.517  22.510  0.00  0.00    +0.000 C 
ATOM      2  C   UNL     1       0.331   9.633  21.719  0.00  0.00    +0.000 C 
ENDROOT
BRANCH   2   3
ATOM      3  C   UNL     1       1.055   9.026  20.510  0.00  0.00    +0.000 A 
ATOM      4  N   UNL     1       1.540   7.822  20.578  0.00  0.00    +0.000 NA
ATOM      5  C   UNL     1       2.206   7.437  19.468  0.00  0.00    +0.000 A 
ATOM      6  C   UNL     1       2.427   8.169  18.332  0.00  0.00    +0.000 A 
ATOM      7  C   UNL     1       3.197   7.342  17.507  0.00  0.00    +0.000 A 
ATOM      8  N   UNL     1       3.430   6.144  18.068  0.00  0.00    +0.000 NA
ATOM      9  N   UNL     1       2.788   6.216  19.262  0.00  0.00    +0.000 N 
ATOM     10  C   UNL     1       1.874   9.491  18.251  0.00  0.00    +0.000 A 
ATOM     11  O   UNL     1       2.017  10.244  17.297  0.00  0.00    +0.000 OA
ATOM     12  N   UNL     1       1.164   9.842  19.390  0.00  0.00    +0.000 N 
ATOM     13  H   UNL     1       0.722  10.749  19.372  0.00  0.00    +0.000 HD
BRANCH   9  14
ATOM     14  C   UNL     1       2.741   5.056  20.146  0.00  0.00    +0.000 C 
ATOM     15  C   UNL     1       3.664   3.928  19.657  0.00  0.00    +0.000 C 
ATOM     16  C   UNL     1       3.489   2.673  20.493  0.00  0.00    +0.000 C 
ATOM     17  O   UNL     1       2.116   2.289  20.546  0.00  0.00    +0.000 OA
ATOM     18  C   UNL     1       1.308   3.277  21.182  0.00  0.00    +0.000 C 
ATOM     19  C   UNL     1       1.308   4.563  20.373  0.00  0.00    +0.000 C 
ENDBRANCH   9  14
ENDBRANCH   2   3
BRANCH   2  20
ATOM     20  N   UNL     1      -0.437  10.811  21.282  0.00  0.00    +0.000 NA
ATOM     21  C   UNL     1      -1.466  11.328  22.214  0.00  0.00    +0.000 C 
ATOM     22  C   UNL     1      -1.016  12.773  21.821  0.00  0.00    +0.000 C 
ATOM     23  C   UNL     1       0.317  12.064  21.460  0.00  0.00    +0.000 C 
BRANCH  22  24
ATOM     24  O   UNL     1      -1.723  13.454  20.746  0.00  0.00    +0.000 OA
BRANCH  24  25
ATOM     25  C   UNL     1      -3.049  13.121  20.526  0.00  0.00    +0.000 A 
ATOM     26  C   UNL     1      -4.089  13.585  21.345  0.00  0.00    +0.000 A 
ATOM     27  C   UNL     1      -5.419  13.272  21.067  0.00  0.00    +0.000 A 
ATOM     28  C   UNL     1      -5.713  12.474  19.974  0.00  0.00    +0.000 A 
ATOM     29  F   UNL     1      -6.999  12.183  19.739  0.00  0.00    +0.000 F 
ATOM     30  C   UNL     1      -4.698  11.983  19.152  0.00  0.00    +0.000 A 
ATOM     31 CL   UNL     1      -5.156  10.968  17.826  0.00  0.00    +0.000 Cl
ATOM     32  C   UNL     1      -3.355  12.306  19.418  0.00  0.00    +0.000 A 
BRANCH  32  33
ATOM     33  C   UNL     1      -2.308  11.790  18.584  0.00  0.00    +0.000 C 
ATOM     34  N   UNL     1      -1.455  11.352  17.928  0.00  0.00    +0.000 NA
ENDBRANCH  32  33
ENDBRANCH  24  25
ENDBRANCH  22  24
ENDBRANCH   2  20
TORSDOF 6
ENDMDL
