MODEL 1
REMARK VINA RESULT:      -7.6      0.000      0.000
REMARK  Name = 
REMARK  8 active torsions:
REMARK  status: ('A' for Active; 'I' for Inactive)
REMARK    1  A    between atoms: C_1  and  C_2
REMARK    2  A    between atoms: C_6  and  O_7
REMARK    3  A    between atoms: O_7  and  C_8
REMARK    4  A    between atoms: C_8  and  C_9
REMARK    5  A    between atoms: C_9  and  C_10
REMARK    6  A    between atoms: C_10  and  S_11
REMARK    7  A    between atoms: S_11  and  C_12
REMARK    8  A    between atoms: C_16  and  C_17
REMARK                            x       y       z     vdW  Elec       q    Type
REMARK                         _______ _______ _______ _____ _____    ______ ____
ROOT
ATOM      1  S   UNL     1       6.935   5.996  17.567  0.00  0.00    +0.000 S 
ENDROOT
BRANCH   1   2
ATOM      2  C   UNL     1       6.660   5.418  15.966  0.00  0.00    +0.000 A 
ATOM      3  N   UNL     1       5.638   4.729  15.523  0.00  0.00    +0.000 NA
ATOM      4  C   UNL     1       5.990   4.377  14.243  0.00  0.00    +0.000 A 
ATOM      5  C   UNL     1       5.382   3.472  13.363  0.00  0.00    +0.000 A 
ATOM      6  C   UNL     1       6.039   3.175  12.155  0.00  0.00    +0.000 A 
ATOM      7  C   UNL     1       5.627   1.973  11.355  0.00  0.00    +0.000 C 
ATOM      8  C   UNL     1       7.135   3.947  11.739  0.00  0.00    +0.000 A 
ATOM      9  C   UNL     1       7.734   4.880  12.591  0.00  0.00    +0.000 A 
ATOM     10  C   UNL     1       7.180   4.994  13.865  0.00  0.00    +0.000 A 
ATOM     11  N   UNL     1       7.617   5.594  15.016  0.00  0.00    +0.000 N 
ATOM     12  H   UNL     1       8.530   5.989  15.176  0.00  0.00    +0.000 HD
ENDBRANCH   1   2
BRANCH   1  13
ATOM     13  C   UNL     1       5.402   6.917  17.915  0.00  0.00    +0.000 C 
BRANCH  13  14
ATOM     14  C   UNL     1       4.306   6.165  18.663  0.00  0.00    +0.000 C 
BRANCH  14  15
ATOM     15  C   UNL     1       2.928   6.797  18.545  0.00  0.00    +0.000 C 
BRANCH  15  16
ATOM     16  O   UNL     1       2.055   5.864  17.896  0.00  0.00    +0.000 OA
BRANCH  16  22
ATOM     17  C   UNL     1       1.342   2.673  21.630  0.00  0.00    +0.000 C 
ATOM     18  C   UNL     1       1.654   2.963  20.200  0.00  0.00    +0.000 A 
ATOM     19  C   UNL     1       1.896   1.946  19.274  0.00  0.00    +0.000 A 
ATOM     20  C   UNL     1       2.165   2.243  17.949  0.00  0.00    +0.000 A 
ATOM     21  C   UNL     1       2.223   3.572  17.532  0.00  0.00    +0.000 A 
ATOM     22  C   UNL     1       2.000   4.605  18.428  0.00  0.00    +0.000 A 
ATOM     23  C   UNL     1       1.717   4.301  19.774  0.00  0.00    +0.000 A 
ENDBRANCH  16  22
ENDBRANCH  15  16
ENDBRANCH  14  15
ENDBRANCH  13  14
ENDBRANCH   1  13
TORSDOF 6
ENDMDL
MODEL 2
REMARK VINA RESULT:      -7.6      3.590      7.160
REMARK  Name = 
REMARK  8 active torsions:
REMARK  status: ('A' for Active; 'I' for Inactive)
REMARK    1  A    between atoms: C_1  and  C_2
REMARK    2  A    between atoms: C_6  and  O_7
REMARK    3  A    between atoms: O_7  and  C_8
REMARK    4  A    between atoms: C_8  and  C_9
REMARK    5  A    between atoms: C_9  and  C_10
REMARK    6  A    between atoms: C_10  and  S_11
REMARK    7  A    between atoms: S_11  and  C_12
REMARK    8  A    between atoms: C_16  and  C_17
REMARK                            x       y       z     vdW  Elec       q    Type
REMARK                         _______ _______ _______ _____ _____    ______ ____
ROOT
ATOM      1  S   UNL     1       2.103   4.430  21.105  0.00  0.00    +0.000 S 
ENDROOT
BRANCH   1   2
ATOM      2  C   UNL     1       2.034   6.043  20.499  0.00  0.00    +0.000 A 
ATOM      3  N   UNL     1       1.510   7.097  21.073  0.00  0.00    +0.000 NA
ATOM      4  C   UNL     1       1.559   8.074  20.109  0.00  0.00    +0.000 A 
ATOM      5  C   UNL     1       0.960   9.340  20.084  0.00  0.00    +0.000 A 
ATOM      6  C   UNL     1       1.041  10.092  18.898  0.00  0.00    +0.000 A 
ATOM      7  C   UNL     1       0.135  11.273  18.698  0.00  0.00    +0.000 C 
ATOM      8  C   UNL     1       1.902   9.690  17.865  0.00  0.00    +0.000 A 
ATOM      9  C   UNL     1       2.535   8.444  17.887  0.00  0.00    +0.000 A 
ATOM     10  C   UNL     1       2.261   7.635  18.989  0.00  0.00    +0.000 A 
ATOM     11  N   UNL     1       2.486   6.308  19.244  0.00  0.00    +0.000 N 
ATOM     12  H   UNL     1       2.815   5.619  18.586  0.00  0.00    +0.000 HD
ENDBRANCH   1   2
BRANCH   1  13
ATOM     13  C   UNL     1       0.910   3.563  20.036  0.00  0.00    +0.000 C 
BRANCH  13  14
ATOM     14  C   UNL     1       1.448   3.005  18.721  0.00  0.00    +0.000 C 
BRANCH  14  15
ATOM     15  C   UNL     1       2.653   2.092  18.881  0.00  0.00    +0.000 C 
BRANCH  15  16
ATOM     16  O   UNL     1       3.530   2.300  17.767  0.00  0.00    +0.000 OA
BRANCH  16  22
ATOM     17  C   UNL     1       5.113   6.530  15.711  0.00  0.00    +0.000 C 
ATOM     18  C   UNL     1       5.081   5.559  16.843  0.00  0.00    +0.000 A 
ATOM     19  C   UNL     1       5.796   5.775  18.023  0.00  0.00    +0.000 A 
ATOM     20  C   UNL     1       5.734   4.866  19.065  0.00  0.00    +0.000 A 
ATOM     21  C   UNL     1       4.973   3.706  18.932  0.00  0.00    +0.000 A 
ATOM     22  C   UNL     1       4.262   3.456  17.770  0.00  0.00    +0.000 A 
ATOM     23  C   UNL     1       4.319   4.386  16.713  0.00  0.00    +0.000 A 
ENDBRANCH  16  22
ENDBRANCH  15  16
ENDBRANCH  14  15
ENDBRANCH  13  14
ENDBRANCH   1  13
TORSDOF 6
ENDMDL
MODEL 3
REMARK VINA RESULT:      -7.6      1.046      1.682
REMARK  Name = 
REMARK  8 active torsions:
REMARK  status: ('A' for Active; 'I' for Inactive)
REMARK    1  A    between atoms: C_1  and  C_2
REMARK    2  A    between atoms: C_6  and  O_7
REMARK    3  A    between atoms: O_7  and  C_8
REMARK    4  A    between atoms: C_8  and  C_9
REMARK    5  A    between atoms: C_9  and  C_10
REMARK    6  A    between atoms: C_10  and  S_11
REMARK    7  A    between atoms: S_11  and  C_12
REMARK    8  A    between atoms: C_16  and  C_17
REMARK                            x       y       z     vdW  Elec       q    Type
REMARK                         _______ _______ _______ _____ _____    ______ ____
ROOT
ATOM      1  S   UNL     1       7.438   4.891  17.930  0.00  0.00    +0.000 S 
ENDROOT
BRANCH   1   2
ATOM      2  C   UNL     1       6.987   4.643  16.285  0.00  0.00    +0.000 A 
ATOM      3  N   UNL     1       6.005   3.911  15.820  0.00  0.00    +0.000 NA
ATOM      4  C   UNL     1       6.189   3.913  14.459  0.00  0.00    +0.000 A 
ATOM      5  C   UNL     1       5.571   3.137  13.470  0.00  0.00    +0.000 A 
ATOM      6  C   UNL     1       6.058   3.227  12.153  0.00  0.00    +0.000 A 
ATOM      7  C   UNL     1       5.682   2.180  11.144  0.00  0.00    +0.000 C 
ATOM      8  C   UNL     1       6.962   4.241  11.802  0.00  0.00    +0.000 A 
ATOM      9  C   UNL     1       7.564   5.048  12.772  0.00  0.00    +0.000 A 
ATOM     10  C   UNL     1       7.212   4.785  14.095  0.00  0.00    +0.000 A 
ATOM     11  N   UNL     1       7.747   5.179  15.293  0.00  0.00    +0.000 N 
ATOM     12  H   UNL     1       8.615   5.674  15.428  0.00  0.00    +0.000 HD
ENDBRANCH   1   2
BRANCH   1  13
ATOM     13  C   UNL     1       6.407   6.315  18.405  0.00  0.00    +0.000 C 
BRANCH  13  14
ATOM     14  C   UNL     1       5.650   7.017  17.281  0.00  0.00    +0.000 C 
BRANCH  14  15
ATOM     15  C   UNL     1       4.140   7.025  17.460  0.00  0.00    +0.000 C 
BRANCH  15  16
ATOM     16  O   UNL     1       3.650   5.699  17.227  0.00  0.00    +0.000 OA
BRANCH  16  22
ATOM     17  C   UNL     1       0.559   2.230  18.972  0.00  0.00    +0.000 C 
ATOM     18  C   UNL     1       1.307   3.512  19.127  0.00  0.00    +0.000 A 
ATOM     19  C   UNL     1       1.235   4.274  20.295  0.00  0.00    +0.000 A 
ATOM     20  C   UNL     1       1.954   5.450  20.419  0.00  0.00    +0.000 A 
ATOM     21  C   UNL     1       2.741   5.899  19.360  0.00  0.00    +0.000 A 
ATOM     22  C   UNL     1       2.825   5.173  18.183  0.00  0.00    +0.000 A 
ATOM     23  C   UNL     1       2.100   3.972  18.061  0.00  0.00    +0.000 A 
ENDBRANCH  16  22
ENDBRANCH  15  16
ENDBRANCH  14  15
ENDBRANCH  13  14
ENDBRANCH   1  13
TORSDOF 6
ENDMDL
MODEL 4
REMARK VINA RESULT:      -7.5      2.753      4.989
REMARK  Name = 
REMARK  8 active torsions:
REMARK  status: ('A' for Active; 'I' for Inactive)
REMARK    1  A    between atoms: C_1  and  C_2
REMARK    2  A    between atoms: C_6  and  O_7
REMARK    3  A    between atoms: O_7  and  C_8
REMARK    4  A    between atoms: C_8  and  C_9
REMARK    5  A    between atoms: C_9  and  C_10
REMARK    6  A    between atoms: C_10  and  S_11
REMARK    7  A    between atoms: S_11  and  C_12
REMARK    8  A    between atoms: C_16  and  C_17
REMARK                            x       y       z     vdW  Elec       q    Type
REMARK                         _______ _______ _______ _____ _____    ______ ____
ROOT
ATOM      1  S   UNL     1       1.717   2.038  18.799  0.00  0.00    +0.000 S 
ENDROOT
BRANCH   1   2
ATOM      2  C   UNL     1       2.967   2.993  18.092  0.00  0.00    +0.000 A 
ATOM      3  N   UNL     1       3.028   3.464  16.871  0.00  0.00    +0.000 NA
ATOM      4  C   UNL     1       4.291   3.995  16.770  0.00  0.00    +0.000 A 
ATOM      5  C   UNL     1       4.984   4.450  15.641  0.00  0.00    +0.000 A 
ATOM      6  C   UNL     1       6.336   4.806  15.790  0.00  0.00    +0.000 A 
ATOM      7  C   UNL     1       7.209   4.954  14.576  0.00  0.00    +0.000 C 
ATOM      8  C   UNL     1       6.895   4.937  17.070  0.00  0.00    +0.000 A 
ATOM      9  C   UNL     1       6.206   4.521  18.213  0.00  0.00    +0.000 A 
ATOM     10  C   UNL     1       4.941   3.974  18.002  0.00  0.00    +0.000 A 
ATOM     11  N   UNL     1       4.093   3.260  18.807  0.00  0.00    +0.000 N 
ATOM     12  H   UNL     1       4.303   2.891  19.721  0.00  0.00    +0.000 HD
ENDBRANCH   1   2
BRANCH   1  13
ATOM     13  C   UNL     1       0.904   3.228  19.913  0.00  0.00    +0.000 C 
BRANCH  13  14
ATOM     14  C   UNL     1       1.748   3.781  21.059  0.00  0.00    +0.000 C 
BRANCH  14  15
ATOM     15  C   UNL     1       1.800   5.299  21.114  0.00  0.00    +0.000 C 
BRANCH  15  16
ATOM     16  O   UNL     1       2.713   5.758  20.109  0.00  0.00    +0.000 OA
BRANCH  16  22
ATOM     17  C   UNL     1       0.632  10.261  19.966  0.00  0.00    +0.000 C 
ATOM     18  C   UNL     1       1.420   9.165  19.331  0.00  0.00    +0.000 A 
ATOM     19  C   UNL     1       1.922   9.271  18.033  0.00  0.00    +0.000 A 
ATOM     20  C   UNL     1       2.665   8.245  17.474  0.00  0.00    +0.000 A 
ATOM     21  C   UNL     1       2.894   7.078  18.200  0.00  0.00    +0.000 A 
ATOM     22  C   UNL     1       2.400   6.935  19.486  0.00  0.00    +0.000 A 
ATOM     23  C   UNL     1       1.651   7.983  20.057  0.00  0.00    +0.000 A 
ENDBRANCH  16  22
ENDBRANCH  15  16
ENDBRANCH  14  15
ENDBRANCH  13  14
ENDBRANCH   1  13
TORSDOF 6
ENDMDL
MODEL 5
REMARK VINA RESULT:      -7.5      3.028      5.396
REMARK  Name = 
REMARK  8 active torsions:
REMARK  status: ('A' for Active; 'I' for Inactive)
REMARK    1  A    between atoms: C_1  and  C_2
REMARK    2  A    between atoms: C_6  and  O_7
REMARK    3  A    between atoms: O_7  and  C_8
REMARK    4  A    between atoms: C_8  and  C_9
REMARK    5  A    between atoms: C_9  and  C_10
REMARK    6  A    between atoms: C_10  and  S_11
REMARK    7  A    between atoms: S_11  and  C_12
REMARK    8  A    between atoms: C_16  and  C_17
REMARK                            x       y       z     vdW  Elec       q    Type
REMARK                         _______ _______ _______ _____ _____    ______ ____
ROOT
ATOM      1  S   UNL     1       3.536   2.407  19.837  0.00  0.00    +0.000 S 
ENDROOT
BRANCH   1   2
ATOM      2  C   UNL     1       4.741   3.427  19.143  0.00  0.00    +0.000 A 
ATOM      3  N   UNL     1       5.530   4.274  19.757  0.00  0.00    +0.000 NA
ATOM      4  C   UNL     1       6.165   4.948  18.743  0.00  0.00    +0.000 A 
ATOM      5  C   UNL     1       6.962   6.099  18.793  0.00  0.00    +0.000 A 
ATOM      6  C   UNL     1       7.368   6.681  17.580  0.00  0.00    +0.000 A 
ATOM      7  C   UNL     1       7.909   8.083  17.565  0.00  0.00    +0.000 C 
ATOM      8  C   UNL     1       7.189   5.991  16.371  0.00  0.00    +0.000 A 
ATOM      9  C   UNL     1       6.424   4.823  16.305  0.00  0.00    +0.000 A 
ATOM     10  C   UNL     1       5.860   4.390  17.504  0.00  0.00    +0.000 A 
ATOM     11  N   UNL     1       4.890   3.466  17.793  0.00  0.00    +0.000 N 
ATOM     12  H   UNL     1       4.303   2.987  17.128  0.00  0.00    +0.000 HD
ENDBRANCH   1   2
BRANCH   1  13
ATOM     13  C   UNL     1       2.027   2.950  18.974  0.00  0.00    +0.000 C 
BRANCH  13  14
ATOM     14  C   UNL     1       1.857   4.453  18.770  0.00  0.00    +0.000 C 
BRANCH  14  15
ATOM     15  C   UNL     1       1.959   5.268  20.050  0.00  0.00    +0.000 C 
BRANCH  15  16
ATOM     16  O   UNL     1       2.808   6.396  19.802  0.00  0.00    +0.000 OA
BRANCH  16  22
ATOM     17  C   UNL     1      -0.050  10.276  20.987  0.00  0.00    +0.000 C 
ATOM     18  C   UNL     1       0.807   9.531  20.019  0.00  0.00    +0.000 A 
ATOM     19  C   UNL     1       1.059  10.012  18.733  0.00  0.00    +0.000 A 
ATOM     20  C   UNL     1       1.873   9.309  17.861  0.00  0.00    +0.000 A 
ATOM     21  C   UNL     1       2.428   8.092  18.255  0.00  0.00    +0.000 A 
ATOM     22  C   UNL     1       2.187   7.581  19.520  0.00  0.00    +0.000 A 
ATOM     23  C   UNL     1       1.366   8.302  20.409  0.00  0.00    +0.000 A 
ENDBRANCH  16  22
ENDBRANCH  15  16
ENDBRANCH  14  15
ENDBRANCH  13  14
ENDBRANCH   1  13
TORSDOF 6
ENDMDL
MODEL 6
REMARK VINA RESULT:      -7.5      3.198      5.300
REMARK  Name = 
REMARK  8 active torsions:
REMARK  status: ('A' for Active; 'I' for Inactive)
REMARK    1  A    between atoms: C_1  and  C_2
REMARK    2  A    between atoms: C_6  and  O_7
REMARK    3  A    between atoms: O_7  and  C_8
REMARK    4  A    between atoms: C_8  and  C_9
REMARK    5  A    between atoms: C_9  and  C_10
REMARK    6  A    between atoms: C_10  and  S_11
REMARK    7  A    between atoms: S_11  and  C_12
REMARK    8  A    between atoms: C_16  and  C_17
REMARK                            x       y       z     vdW  Elec       q    Type
REMARK                         _______ _______ _______ _____ _____    ______ ____
ROOT
ATOM      1  S   UNL     1       3.478   2.013  20.020  0.00  0.00    +0.000 S 
ENDROOT
BRANCH   1   2
ATOM      2  C   UNL     1       4.509   3.096  19.162  0.00  0.00    +0.000 A 
ATOM      3  N   UNL     1       5.517   3.789  19.630  0.00  0.00    +0.000 NA
ATOM      4  C   UNL     1       5.880   4.613  18.591  0.00  0.00    +0.000 A 
ATOM      5  C   UNL     1       6.756   5.706  18.578  0.00  0.00    +0.000 A 
ATOM      6  C   UNL     1       6.833   6.482  17.408  0.00  0.00    +0.000 A 
ATOM      7  C   UNL     1       7.468   7.843  17.453  0.00  0.00    +0.000 C 
ATOM      8  C   UNL     1       6.241   6.029  16.220  0.00  0.00    +0.000 A 
ATOM      9  C   UNL     1       5.390   4.919  16.206  0.00  0.00    +0.000 A 
ATOM     10  C   UNL     1       5.171   4.298  17.435  0.00  0.00    +0.000 A 
ATOM     11  N   UNL     1       4.252   3.373  17.856  0.00  0.00    +0.000 N 
ATOM     12  H   UNL     1       3.454   3.043  17.337  0.00  0.00    +0.000 HD
ENDBRANCH   1   2
BRANCH   1  13
ATOM     13  C   UNL     1       2.592   3.134  21.149  0.00  0.00    +0.000 C 
BRANCH  13  14
ATOM     14  C   UNL     1       1.231   3.642  20.681  0.00  0.00    +0.000 C 
BRANCH  14  15
ATOM     15  C   UNL     1       1.096   5.157  20.697  0.00  0.00    +0.000 C 
BRANCH  15  16
ATOM     16  O   UNL     1       2.337   5.727  20.263  0.00  0.00    +0.000 OA
BRANCH  16  22
ATOM     17  C   UNL     1       0.845  10.404  19.533  0.00  0.00    +0.000 C 
ATOM     18  C   UNL     1       1.582   9.184  19.093  0.00  0.00    +0.000 A 
ATOM     19  C   UNL     1       2.279   9.136  17.884  0.00  0.00    +0.000 A 
ATOM     20  C   UNL     1       2.969   7.996  17.509  0.00  0.00    +0.000 A 
ATOM     21  C   UNL     1       2.950   6.869  18.330  0.00  0.00    +0.000 A 
ATOM     22  C   UNL     1       2.259   6.880  19.530  0.00  0.00    +0.000 A 
ATOM     23  C   UNL     1       1.564   8.043  19.915  0.00  0.00    +0.000 A 
ENDBRANCH  16  22
ENDBRANCH  15  16
ENDBRANCH  14  15
ENDBRANCH  13  14
ENDBRANCH   1  13
TORSDOF 6
ENDMDL
MODEL 7
REMARK VINA RESULT:      -7.5      3.513      7.081
REMARK  Name = 
REMARK  8 active torsions:
REMARK  status: ('A' for Active; 'I' for Inactive)
REMARK    1  A    between atoms: C_1  and  C_2
REMARK    2  A    between atoms: C_6  and  O_7
REMARK    3  A    between atoms: O_7  and  C_8
REMARK    4  A    between atoms: C_8  and  C_9
REMARK    5  A    between atoms: C_9  and  C_10
REMARK    6  A    between atoms: C_10  and  S_11
REMARK    7  A    between atoms: S_11  and  C_12
REMARK    8  A    between atoms: C_16  and  C_17
REMARK                            x       y       z     vdW  Elec       q    Type
REMARK                         _______ _______ _______ _____ _____    ______ ____
ROOT
ATOM      1  S   UNL     1       2.012   3.749  21.052  0.00  0.00    +0.000 S 
ENDROOT
BRANCH   1   2
ATOM      2  C   UNL     1       2.073   5.370  20.467  0.00  0.00    +0.000 A 
ATOM      3  N   UNL     1       1.638   6.455  21.057  0.00  0.00    +0.000 NA
ATOM      4  C   UNL     1       1.765   7.438  20.104  0.00  0.00    +0.000 A 
ATOM      5  C   UNL     1       1.272   8.749  20.098  0.00  0.00    +0.000 A 
ATOM      6  C   UNL     1       1.412   9.506  18.922  0.00  0.00    +0.000 A 
ATOM      7  C   UNL     1       0.605  10.760  18.738  0.00  0.00    +0.000 C 
ATOM      8  C   UNL     1       2.236   9.050  17.882  0.00  0.00    +0.000 A 
ATOM      9  C   UNL     1       2.765   7.756  17.886  0.00  0.00    +0.000 A 
ATOM     10  C   UNL     1       2.428   6.958  18.978  0.00  0.00    +0.000 A 
ATOM     11  N   UNL     1       2.544   5.613  19.215  0.00  0.00    +0.000 N 
ATOM     12  H   UNL     1       2.815   4.908  18.548  0.00  0.00    +0.000 HD
ENDBRANCH   1   2
BRANCH   1  13
ATOM     13  C   UNL     1       1.474   2.825  19.578  0.00  0.00    +0.000 C 
BRANCH  13  14
ATOM     14  C   UNL     1       2.509   1.913  18.925  0.00  0.00    +0.000 C 
BRANCH  14  15
ATOM     15  C   UNL     1       3.386   2.607  17.895  0.00  0.00    +0.000 C 
BRANCH  15  16
ATOM     16  O   UNL     1       4.518   3.170  18.571  0.00  0.00    +0.000 OA
BRANCH  16  22
ATOM     17  C   UNL     1       7.887   6.810  18.380  0.00  0.00    +0.000 C 
ATOM     18  C   UNL     1       6.754   6.045  17.781  0.00  0.00    +0.000 A 
ATOM     19  C   UNL     1       6.232   6.357  16.525  0.00  0.00    +0.000 A 
ATOM     20  C   UNL     1       5.193   5.619  15.986  0.00  0.00    +0.000 A 
ATOM     21  C   UNL     1       4.637   4.567  16.713  0.00  0.00    +0.000 A 
ATOM     22  C   UNL     1       5.124   4.239  17.967  0.00  0.00    +0.000 A 
ATOM     23  C   UNL     1       6.187   4.985  18.511  0.00  0.00    +0.000 A 
ENDBRANCH  16  22
ENDBRANCH  15  16
ENDBRANCH  14  15
ENDBRANCH  13  14
ENDBRANCH   1  13
TORSDOF 6
ENDMDL
MODEL 8
REMARK VINA RESULT:      -7.4      3.599      6.363
REMARK  Name = 
REMARK  8 active torsions:
REMARK  status: ('A' for Active; 'I' for Inactive)
REMARK    1  A    between atoms: C_1  and  C_2
REMARK    2  A    between atoms: C_6  and  O_7
REMARK    3  A    between atoms: O_7  and  C_8
REMARK    4  A    between atoms: C_8  and  C_9
REMARK    5  A    between atoms: C_9  and  C_10
REMARK    6  A    between atoms: C_10  and  S_11
REMARK    7  A    between atoms: S_11  and  C_12
REMARK    8  A    between atoms: C_16  and  C_17
REMARK                            x       y       z     vdW  Elec       q    Type
REMARK                         _______ _______ _______ _____ _____    ______ ____
ROOT
ATOM      1  S   UNL     1       4.905   6.633  16.455  0.00  0.00    +0.000 S 
ENDROOT
BRANCH   1   2
ATOM      2  C   UNL     1       3.647   7.176  17.502  0.00  0.00    +0.000 A 
ATOM      3  N   UNL     1       2.854   8.206  17.342  0.00  0.00    +0.000 NA
ATOM      4  C   UNL     1       2.166   8.298  18.527  0.00  0.00    +0.000 A 
ATOM      5  C   UNL     1       1.337   9.320  19.005  0.00  0.00    +0.000 A 
ATOM      6  C   UNL     1       0.874   9.237  20.330  0.00  0.00    +0.000 A 
ATOM      7  C   UNL     1       0.291  10.450  20.998  0.00  0.00    +0.000 C 
ATOM      8  C   UNL     1       1.034   8.049  21.061  0.00  0.00    +0.000 A 
ATOM      9  C   UNL     1       1.830   7.003  20.585  0.00  0.00    +0.000 A 
ATOM     10  C   UNL     1       2.447   7.212  19.353  0.00  0.00    +0.000 A 
ATOM     11  N   UNL     1       3.453   6.554  18.695  0.00  0.00    +0.000 N 
ATOM     12  H   UNL     1       4.032   5.818  19.069  0.00  0.00    +0.000 HD
ENDBRANCH   1   2
BRANCH   1  13
ATOM     13  C   UNL     1       6.364   6.686  17.543  0.00  0.00    +0.000 C 
BRANCH  13  14
ATOM     14  C   UNL     1       7.065   5.357  17.815  0.00  0.00    +0.000 C 
BRANCH  14  15
ATOM     15  C   UNL     1       6.140   4.151  17.783  0.00  0.00    +0.000 C 
BRANCH  15  16
ATOM     16  O   UNL     1       5.511   4.028  19.065  0.00  0.00    +0.000 OA
BRANCH  16  22
ATOM     17  C   UNL     1       1.301   2.701  21.333  0.00  0.00    +0.000 C 
ATOM     18  C   UNL     1       2.159   2.785  20.116  0.00  0.00    +0.000 A 
ATOM     19  C   UNL     1       1.736   2.298  18.877  0.00  0.00    +0.000 A 
ATOM     20  C   UNL     1       2.546   2.405  17.760  0.00  0.00    +0.000 A 
ATOM     21  C   UNL     1       3.812   2.980  17.870  0.00  0.00    +0.000 A 
ATOM     22  C   UNL     1       4.266   3.461  19.087  0.00  0.00    +0.000 A 
ATOM     23  C   UNL     1       3.438   3.360  20.221  0.00  0.00    +0.000 A 
ENDBRANCH  16  22
ENDBRANCH  15  16
ENDBRANCH  14  15
ENDBRANCH  13  14
ENDBRANCH   1  13
TORSDOF 6
ENDMDL
MODEL 9
REMARK VINA RESULT:      -7.4      2.743      4.931
REMARK  Name = 
REMARK  8 active torsions:
REMARK  status: ('A' for Active; 'I' for Inactive)
REMARK    1  A    between atoms: C_1  and  C_2
REMARK    2  A    between atoms: C_6  and  O_7
REMARK    3  A    between atoms: O_7  and  C_8
REMARK    4  A    between atoms: C_8  and  C_9
REMARK    5  A    between atoms: C_9  and  C_10
REMARK    6  A    between atoms: C_10  and  S_11
REMARK    7  A    between atoms: S_11  and  C_12
REMARK    8  A    between atoms: C_16  and  C_17
REMARK                            x       y       z     vdW  Elec       q    Type
REMARK                         _______ _______ _______ _____ _____    ______ ____
ROOT
ATOM      1  S   UNL     1       3.901   2.036  20.475  0.00  0.00    +0.000 S 
ENDROOT
BRANCH   1   2
ATOM      2  C   UNL     1       4.480   3.030  19.191  0.00  0.00    +0.000 A 
ATOM      3  N   UNL     1       4.031   3.103  17.963  0.00  0.00    +0.000 NA
ATOM      4  C   UNL     1       4.941   3.900  17.311  0.00  0.00    +0.000 A 
ATOM      5  C   UNL     1       5.087   4.158  15.942  0.00  0.00    +0.000 A 
ATOM      6  C   UNL     1       6.208   4.895  15.520  0.00  0.00    +0.000 A 
ATOM      7  C   UNL     1       6.600   4.896  14.070  0.00  0.00    +0.000 C 
ATOM      8  C   UNL     1       7.012   5.558  16.460  0.00  0.00    +0.000 A 
ATOM      9  C   UNL     1       6.859   5.340  17.832  0.00  0.00    +0.000 A 
ATOM     10  C   UNL     1       5.867   4.433  18.203  0.00  0.00    +0.000 A 
ATOM     11  N   UNL     1       5.586   3.798  19.384  0.00  0.00    +0.000 N 
ATOM     12  H   UNL     1       6.158   3.797  20.215  0.00  0.00    +0.000 HD
ENDBRANCH   1   2
BRANCH   1  13
ATOM     13  C   UNL     1       2.313   2.826  20.890  0.00  0.00    +0.000 C 
BRANCH  13  14
ATOM     14  C   UNL     1       2.372   4.276  21.360  0.00  0.00    +0.000 C 
BRANCH  14  15
ATOM     15  C   UNL     1       1.618   5.249  20.467  0.00  0.00    +0.000 C 
BRANCH  15  16
ATOM     16  O   UNL     1       2.570   6.111  19.831  0.00  0.00    +0.000 OA
BRANCH  16  22
ATOM     17  C   UNL     1       0.292  10.409  20.814  0.00  0.00    +0.000 C 
ATOM     18  C   UNL     1       1.047   9.511  19.892  0.00  0.00    +0.000 A 
ATOM     19  C   UNL     1       1.389   9.900  18.596  0.00  0.00    +0.000 A 
ATOM     20  C   UNL     1       2.106   9.053  17.768  0.00  0.00    +0.000 A 
ATOM     21  C   UNL     1       2.469   7.784  18.217  0.00  0.00    +0.000 A 
ATOM     22  C   UNL     1       2.135   7.363  19.493  0.00  0.00    +0.000 A 
ATOM     23  C   UNL     1       1.413   8.229  20.338  0.00  0.00    +0.000 A 
ENDBRANCH  16  22
ENDBRANCH  15  16
ENDBRANCH  14  15
ENDBRANCH  13  14
ENDBRANCH   1  13
TORSDOF 6
ENDMDL
