MODEL 1
REMARK VINA RESULT:      -6.9      0.000      0.000
REMARK  Name = 
REMARK  7 active torsions:
REMARK  status: ('A' for Active; 'I' for Inactive)
REMARK    1  A    between atoms: C_1  and  O_2
REMARK    2  A    between atoms: O_2  and  C_3
REMARK    3  A    between atoms: C_4  and  O_5
REMARK    4  A    between atoms: C_10  and  C_11
REMARK    5  A    between atoms: C_14  and  C_15
REMARK    6  A    between atoms: C_15  and  C_16
REMARK    7  A    between atoms: C_15  and  C_17
REMARK                            x       y       z     vdW  Elec       q    Type
REMARK                         _______ _______ _______ _____ _____    ______ ____
ROOT
ATOM      1  C   UNL     1       2.822   4.350  20.050  0.00  0.00    +0.000 A 
ATOM      2  C   UNL     1       2.399   5.704  19.977  0.00  0.00    +0.000 A 
ATOM      3  C   UNL     1       2.831   6.435  18.897  0.00  0.00    +0.000 A 
ATOM      4  C   UNL     1       3.685   5.911  17.971  0.00  0.00    +0.000 A 
ATOM      5  C   UNL     1       4.021   6.906  17.091  0.00  0.00    +0.000 A 
ATOM      6  C   UNL     1       4.923   6.674  16.064  0.00  0.00    +0.000 A 
ATOM      7  C   UNL     1       5.458   5.376  15.982  0.00  0.00    +0.000 A 
ATOM      8  C   UNL     1       6.455   5.049  14.906  0.00  0.00    +0.000 C 
ATOM      9  C   UNL     1       5.082   4.373  16.917  0.00  0.00    +0.000 A 
ATOM     10  C   UNL     1       4.167   4.637  17.980  0.00  0.00    +0.000 A 
ATOM     11  C   UNL     1       3.703   3.790  19.058  0.00  0.00    +0.000 A 
ATOM     12  O   UNL     1       3.408   8.124  17.356  0.00  0.00    +0.000 OA
ATOM     13  C   UNL     1       2.601   7.853  18.554  0.00  0.00    +0.000 C 
ENDROOT
BRANCH  11  14
ATOM     14  C   UNL     1       4.247   2.355  19.120  0.00  0.00    +0.000 C 
ATOM     15  C   UNL     1       4.727   2.016  20.536  0.00  0.00    +0.000 C 
ATOM     16  C   UNL     1       3.356   1.231  18.581  0.00  0.00    +0.000 C 
ENDBRANCH  11  14
BRANCH   1  18
ATOM     17  C   UNL     1       1.204   2.935  21.111  0.00  0.00    +0.000 C 
ATOM     18  O   UNL     1       2.496   3.544  21.117  0.00  0.00    +0.000 OA
ENDBRANCH   1  18
BRANCH   2  19
ATOM     19  O   UNL     1       1.687   6.345  20.942  0.00  0.00    +0.000 OA
ATOM     20  H   UNL     1       1.639   7.272  20.665  0.00  0.00    +0.000 HD
ENDBRANCH   2  19
TORSDOF 3
ENDMDL
MODEL 2
REMARK VINA RESULT:      -6.8      1.675      3.814
REMARK  Name = 
REMARK  7 active torsions:
REMARK  status: ('A' for Active; 'I' for Inactive)
REMARK    1  A    between atoms: C_1  and  O_2
REMARK    2  A    between atoms: O_2  and  C_3
REMARK    3  A    between atoms: C_4  and  O_5
REMARK    4  A    between atoms: C_10  and  C_11
REMARK    5  A    between atoms: C_14  and  C_15
REMARK    6  A    between atoms: C_15  and  C_16
REMARK    7  A    between atoms: C_15  and  C_17
REMARK                            x       y       z     vdW  Elec       q    Type
REMARK                         _______ _______ _______ _____ _____    ______ ____
ROOT
ATOM      1  C   UNL     1       3.570   3.436  18.664  0.00  0.00    +0.000 A 
ATOM      2  C   UNL     1       4.434   3.832  17.608  0.00  0.00    +0.000 A 
ATOM      3  C   UNL     1       4.450   5.167  17.281  0.00  0.00    +0.000 A 
ATOM      4  C   UNL     1       3.622   6.064  17.891  0.00  0.00    +0.000 A 
ATOM      5  C   UNL     1       3.785   7.278  17.276  0.00  0.00    +0.000 A 
ATOM      6  C   UNL     1       3.028   8.375  17.656  0.00  0.00    +0.000 A 
ATOM      7  C   UNL     1       2.103   8.169  18.695  0.00  0.00    +0.000 A 
ATOM      8  C   UNL     1       1.233   9.306  19.154  0.00  0.00    +0.000 C 
ATOM      9  C   UNL     1       1.966   6.892  19.305  0.00  0.00    +0.000 A 
ATOM     10  C   UNL     1       2.740   5.769  18.886  0.00  0.00    +0.000 A 
ATOM     11  C   UNL     1       2.716   4.390  19.324  0.00  0.00    +0.000 A 
ATOM     12  O   UNL     1       4.727   7.271  16.255  0.00  0.00    +0.000 OA
ATOM     13  C   UNL     1       5.198   5.879  16.227  0.00  0.00    +0.000 C 
ENDROOT
BRANCH  11  14
ATOM     14  C   UNL     1       1.713   4.010  20.424  0.00  0.00    +0.000 C 
ATOM     15  C   UNL     1       0.667   3.027  19.890  0.00  0.00    +0.000 C 
ATOM     16  C   UNL     1       2.276   3.509  21.759  0.00  0.00    +0.000 C 
ENDBRANCH  11  14
BRANCH   1  18
ATOM     17  C   UNL     1       4.465   1.552  19.846  0.00  0.00    +0.000 C 
ATOM     18  O   UNL     1       3.434   2.118  19.035  0.00  0.00    +0.000 OA
ENDBRANCH   1  18
BRANCH   2  19
ATOM     19  O   UNL     1       5.163   2.977  16.843  0.00  0.00    +0.000 OA
ATOM     20  H   UNL     1       4.531   2.336  16.485  0.00  0.00    +0.000 HD
ENDBRANCH   2  19
TORSDOF 3
ENDMDL
MODEL 3
REMARK VINA RESULT:      -6.8      2.234      3.172
REMARK  Name = 
REMARK  7 active torsions:
REMARK  status: ('A' for Active; 'I' for Inactive)
REMARK    1  A    between atoms: C_1  and  O_2
REMARK    2  A    between atoms: O_2  and  C_3
REMARK    3  A    between atoms: C_4  and  O_5
REMARK    4  A    between atoms: C_10  and  C_11
REMARK    5  A    between atoms: C_14  and  C_15
REMARK    6  A    between atoms: C_15  and  C_16
REMARK    7  A    between atoms: C_15  and  C_17
REMARK                            x       y       z     vdW  Elec       q    Type
REMARK                         _______ _______ _______ _____ _____    ______ ____
ROOT
ATOM      1  C   UNL     1       4.665   4.296  18.783  0.00  0.00    +0.000 A 
ATOM      2  C   UNL     1       5.732   5.231  18.856  0.00  0.00    +0.000 A 
ATOM      3  C   UNL     1       6.354   5.563  17.676  0.00  0.00    +0.000 A 
ATOM      4  C   UNL     1       6.012   4.972  16.495  0.00  0.00    +0.000 A 
ATOM      5  C   UNL     1       6.877   5.420  15.530  0.00  0.00    +0.000 A 
ATOM      6  C   UNL     1       6.801   4.945  14.230  0.00  0.00    +0.000 A 
ATOM      7  C   UNL     1       5.796   3.996  13.967  0.00  0.00    +0.000 A 
ATOM      8  C   UNL     1       5.659   3.422  12.586  0.00  0.00    +0.000 C 
ATOM      9  C   UNL     1       4.921   3.559  14.999  0.00  0.00    +0.000 A 
ATOM     10  C   UNL     1       5.027   4.044  16.336  0.00  0.00    +0.000 A 
ATOM     11  C   UNL     1       4.289   3.693  17.530  0.00  0.00    +0.000 A 
ATOM     12  O   UNL     1       7.814   6.334  15.994  0.00  0.00    +0.000 OA
ATOM     13  C   UNL     1       7.498   6.461  17.423  0.00  0.00    +0.000 C 
ENDROOT
BRANCH  11  14
ATOM     14  C   UNL     1       3.190   2.627  17.399  0.00  0.00    +0.000 C 
ATOM     15  C   UNL     1       3.538   1.383  18.222  0.00  0.00    +0.000 C 
ATOM     16  C   UNL     1       1.745   3.056  17.676  0.00  0.00    +0.000 C 
ENDBRANCH  11  14
BRANCH   1  18
ATOM     17  C   UNL     1       2.972   4.675  20.437  0.00  0.00    +0.000 C 
ATOM     18  O   UNL     1       4.012   3.850  19.909  0.00  0.00    +0.000 OA
ENDBRANCH   1  18
BRANCH   2  19
ATOM     19  O   UNL     1       6.239   5.736  20.012  0.00  0.00    +0.000 OA
ATOM     20  H   UNL     1       5.475   5.988  20.550  0.00  0.00    +0.000 HD
ENDBRANCH   2  19
TORSDOF 3
ENDMDL
MODEL 4
REMARK VINA RESULT:      -6.8      1.837      5.051
REMARK  Name = 
REMARK  7 active torsions:
REMARK  status: ('A' for Active; 'I' for Inactive)
REMARK    1  A    between atoms: C_1  and  O_2
REMARK    2  A    between atoms: O_2  and  C_3
REMARK    3  A    between atoms: C_4  and  O_5
REMARK    4  A    between atoms: C_10  and  C_11
REMARK    5  A    between atoms: C_14  and  C_15
REMARK    6  A    between atoms: C_15  and  C_16
REMARK    7  A    between atoms: C_15  and  C_17
REMARK                            x       y       z     vdW  Elec       q    Type
REMARK                         _______ _______ _______ _____ _____    ______ ____
ROOT
ATOM      1  C   UNL     1       5.096   4.471  17.983  0.00  0.00    +0.000 A 
ATOM      2  C   UNL     1       4.591   3.623  19.004  0.00  0.00    +0.000 A 
ATOM      3  C   UNL     1       3.534   4.096  19.743  0.00  0.00    +0.000 A 
ATOM      4  C   UNL     1       3.034   5.352  19.557  0.00  0.00    +0.000 A 
ATOM      5  C   UNL     1       2.074   5.573  20.510  0.00  0.00    +0.000 A 
ATOM      6  C   UNL     1       1.425   6.794  20.597  0.00  0.00    +0.000 A 
ATOM      7  C   UNL     1       1.803   7.773  19.660  0.00  0.00    +0.000 A 
ATOM      8  C   UNL     1       1.157   9.128  19.699  0.00  0.00    +0.000 C 
ATOM      9  C   UNL     1       2.805   7.501  18.688  0.00  0.00    +0.000 A 
ATOM     10  C   UNL     1       3.477   6.244  18.627  0.00  0.00    +0.000 A 
ATOM     11  C   UNL     1       4.550   5.787  17.771  0.00  0.00    +0.000 A 
ATOM     12  O   UNL     1       1.863   4.493  21.359  0.00  0.00    +0.000 OA
ATOM     13  C   UNL     1       2.817   3.483  20.879  0.00  0.00    +0.000 C 
ENDROOT
BRANCH  11  14
ATOM     14  C   UNL     1       5.098   6.774  16.729  0.00  0.00    +0.000 C 
ATOM     15  C   UNL     1       6.375   7.449  17.239  0.00  0.00    +0.000 C 
ATOM     16  C   UNL     1       5.306   6.260  15.300  0.00  0.00    +0.000 C 
ENDBRANCH  11  14
BRANCH   1  18
ATOM     17  C   UNL     1       7.481   4.423  17.748  0.00  0.00    +0.000 C 
ATOM     18  O   UNL     1       6.188   4.121  17.222  0.00  0.00    +0.000 OA
ENDBRANCH   1  18
BRANCH   2  19
ATOM     19  O   UNL     1       5.140   2.431  19.360  0.00  0.00    +0.000 OA
ATOM     20  H   UNL     1       4.426   1.779  19.295  0.00  0.00    +0.000 HD
ENDBRANCH   2  19
TORSDOF 3
ENDMDL
MODEL 5
REMARK VINA RESULT:      -6.8      2.035      5.239
REMARK  Name = 
REMARK  7 active torsions:
REMARK  status: ('A' for Active; 'I' for Inactive)
REMARK    1  A    between atoms: C_1  and  O_2
REMARK    2  A    between atoms: O_2  and  C_3
REMARK    3  A    between atoms: C_4  and  O_5
REMARK    4  A    between atoms: C_10  and  C_11
REMARK    5  A    between atoms: C_14  and  C_15
REMARK    6  A    between atoms: C_15  and  C_16
REMARK    7  A    between atoms: C_15  and  C_17
REMARK                            x       y       z     vdW  Elec       q    Type
REMARK                         _______ _______ _______ _____ _____    ______ ____
ROOT
ATOM      1  C   UNL     1       4.683   3.950  17.356  0.00  0.00    +0.000 A 
ATOM      2  C   UNL     1       3.950   2.847  17.869  0.00  0.00    +0.000 A 
ATOM      3  C   UNL     1       2.913   3.130  18.725  0.00  0.00    +0.000 A 
ATOM      4  C   UNL     1       2.640   4.407  19.123  0.00  0.00    +0.000 A 
ATOM      5  C   UNL     1       1.637   4.356  20.056  0.00  0.00    +0.000 A 
ATOM      6  C   UNL     1       1.185   5.509  20.678  0.00  0.00    +0.000 A 
ATOM      7  C   UNL     1       1.805   6.712  20.296  0.00  0.00    +0.000 A 
ATOM      8  C   UNL     1       1.382   8.003  20.937  0.00  0.00    +0.000 C 
ATOM      9  C   UNL     1       2.843   6.719  19.324  0.00  0.00    +0.000 A 
ATOM     10  C   UNL     1       3.309   5.519  18.709  0.00  0.00    +0.000 A 
ATOM     11  C   UNL     1       4.377   5.299  17.757  0.00  0.00    +0.000 A 
ATOM     12  O   UNL     1       1.174   3.072  20.316  0.00  0.00    +0.000 OA
ATOM     13  C   UNL     1       1.998   2.223  19.445  0.00  0.00    +0.000 C 
ENDROOT
BRANCH  11  14
ATOM     14  C   UNL     1       5.175   6.525  17.288  0.00  0.00    +0.000 C 
ATOM     15  C   UNL     1       6.649   6.399  17.689  0.00  0.00    +0.000 C 
ATOM     16  C   UNL     1       5.062   6.928  15.814  0.00  0.00    +0.000 C 
ENDBRANCH  11  14
BRANCH   1  18
ATOM     17  C   UNL     1       5.532   3.614  15.139  0.00  0.00    +0.000 C 
ATOM     18  O   UNL     1       5.776   3.778  16.537  0.00  0.00    +0.000 OA
ENDBRANCH   1  18
BRANCH   2  19
ATOM     19  O   UNL     1       4.264   1.542  17.653  0.00  0.00    +0.000 OA
ATOM     20  H   UNL     1       5.230   1.488  17.711  0.00  0.00    +0.000 HD
ENDBRANCH   2  19
TORSDOF 3
ENDMDL
MODEL 6
REMARK VINA RESULT:      -6.4      1.929      4.312
REMARK  Name = 
REMARK  7 active torsions:
REMARK  status: ('A' for Active; 'I' for Inactive)
REMARK    1  A    between atoms: C_1  and  O_2
REMARK    2  A    between atoms: O_2  and  C_3
REMARK    3  A    between atoms: C_4  and  O_5
REMARK    4  A    between atoms: C_10  and  C_11
REMARK    5  A    between atoms: C_14  and  C_15
REMARK    6  A    between atoms: C_15  and  C_16
REMARK    7  A    between atoms: C_15  and  C_17
REMARK                            x       y       z     vdW  Elec       q    Type
REMARK                         _______ _______ _______ _____ _____    ______ ____
ROOT
ATOM      1  C   UNL     1       3.289   4.264  18.880  0.00  0.00    +0.000 A 
ATOM      2  C   UNL     1       3.714   5.202  17.901  0.00  0.00    +0.000 A 
ATOM      3  C   UNL     1       3.331   6.509  18.080  0.00  0.00    +0.000 A 
ATOM      4  C   UNL     1       2.519   6.883  19.111  0.00  0.00    +0.000 A 
ATOM      5  C   UNL     1       2.222   8.212  18.958  0.00  0.00    +0.000 A 
ATOM      6  C   UNL     1       1.367   8.857  19.838  0.00  0.00    +0.000 A 
ATOM      7  C   UNL     1       0.837   8.077  20.882  0.00  0.00    +0.000 A 
ATOM      8  C   UNL     1      -0.110   8.699  21.868  0.00  0.00    +0.000 C 
ATOM      9  C   UNL     1       1.172   6.700  21.003  0.00  0.00    +0.000 A 
ATOM     10  C   UNL     1       2.038   6.049  20.075  0.00  0.00    +0.000 A 
ATOM     11  C   UNL     1       2.454   4.666  19.982  0.00  0.00    +0.000 A 
ATOM     12  O   UNL     1       2.822   8.800  17.851  0.00  0.00    +0.000 OA
ATOM     13  C   UNL     1       3.574   7.697  17.237  0.00  0.00    +0.000 C 
ENDROOT
BRANCH  11  14
ATOM     14  C   UNL     1       1.909   3.687  21.033  0.00  0.00    +0.000 C 
ATOM     15  C   UNL     1       0.613   3.031  20.544  0.00  0.00    +0.000 C 
ATOM     16  C   UNL     1       2.866   2.622  21.580  0.00  0.00    +0.000 C 
ENDBRANCH  11  14
BRANCH   1  18
ATOM     17  C   UNL     1       2.808   2.168  17.822  0.00  0.00    +0.000 C 
ATOM     18  O   UNL     1       3.568   2.921  18.768  0.00  0.00    +0.000 OA
ENDBRANCH   1  18
BRANCH   2  19
ATOM     19  O   UNL     1       4.381   4.880  16.761  0.00  0.00    +0.000 OA
ATOM     20  H   UNL     1       3.842   5.222  16.032  0.00  0.00    +0.000 HD
ENDBRANCH   2  19
TORSDOF 3
ENDMDL
MODEL 7
REMARK VINA RESULT:      -6.3      1.001      1.087
REMARK  Name = 
REMARK  7 active torsions:
REMARK  status: ('A' for Active; 'I' for Inactive)
REMARK    1  A    between atoms: C_1  and  O_2
REMARK    2  A    between atoms: O_2  and  C_3
REMARK    3  A    between atoms: C_4  and  O_5
REMARK    4  A    between atoms: C_10  and  C_11
REMARK    5  A    between atoms: C_14  and  C_15
REMARK    6  A    between atoms: C_15  and  C_16
REMARK    7  A    between atoms: C_15  and  C_17
REMARK                            x       y       z     vdW  Elec       q    Type
REMARK                         _______ _______ _______ _____ _____    ______ ____
ROOT
ATOM      1  C   UNL     1       2.215   4.481  19.428  0.00  0.00    +0.000 A 
ATOM      2  C   UNL     1       2.362   5.893  19.436  0.00  0.00    +0.000 A 
ATOM      3  C   UNL     1       3.121   6.449  18.434  0.00  0.00    +0.000 A 
ATOM      4  C   UNL     1       3.765   5.677  17.511  0.00  0.00    +0.000 A 
ATOM      5  C   UNL     1       4.524   6.502  16.723  0.00  0.00    +0.000 A 
ATOM      6  C   UNL     1       5.333   5.984  15.723  0.00  0.00    +0.000 A 
ATOM      7  C   UNL     1       5.322   4.586  15.569  0.00  0.00    +0.000 A 
ATOM      8  C   UNL     1       6.184   3.948  14.517  0.00  0.00    +0.000 C 
ATOM      9  C   UNL     1       4.519   3.768  16.409  0.00  0.00    +0.000 A 
ATOM     10  C   UNL     1       3.708   4.317  17.446  0.00  0.00    +0.000 A 
ATOM     11  C   UNL     1       2.875   3.670  18.437  0.00  0.00    +0.000 A 
ATOM     12  O   UNL     1       4.420   7.848  17.050  0.00  0.00    +0.000 OA
ATOM     13  C   UNL     1       3.489   7.857  18.188  0.00  0.00    +0.000 C 
ENDROOT
BRANCH  11  14
ATOM     14  C   UNL     1       2.808   2.135  18.417  0.00  0.00    +0.000 C 
ATOM     15  C   UNL     1       3.918   1.531  19.284  0.00  0.00    +0.000 C 
ATOM     16  C   UNL     1       1.464   1.476  18.745  0.00  0.00    +0.000 C 
ENDBRANCH  11  14
BRANCH   1  18
ATOM     17  C   UNL     1       2.186   3.632  21.670  0.00  0.00    +0.000 C 
ATOM     18  O   UNL     1       1.526   3.816  20.416  0.00  0.00    +0.000 OA
ENDBRANCH   1  18
BRANCH   2  19
ATOM     19  O   UNL     1       1.893   6.714  20.413  0.00  0.00    +0.000 OA
ATOM     20  H   UNL     1       1.203   7.253  19.999  0.00  0.00    +0.000 HD
ENDBRANCH   2  19
TORSDOF 3
ENDMDL
MODEL 8
REMARK VINA RESULT:      -6.1      1.956      4.882
REMARK  Name = 
REMARK  7 active torsions:
REMARK  status: ('A' for Active; 'I' for Inactive)
REMARK    1  A    between atoms: C_1  and  O_2
REMARK    2  A    between atoms: O_2  and  C_3
REMARK    3  A    between atoms: C_4  and  O_5
REMARK    4  A    between atoms: C_10  and  C_11
REMARK    5  A    between atoms: C_14  and  C_15
REMARK    6  A    between atoms: C_15  and  C_16
REMARK    7  A    between atoms: C_15  and  C_17
REMARK                            x       y       z     vdW  Elec       q    Type
REMARK                         _______ _______ _______ _____ _____    ______ ____
ROOT
ATOM      1  C   UNL     1       5.567   4.454  18.209  0.00  0.00    +0.000 A 
ATOM      2  C   UNL     1       4.807   3.817  19.226  0.00  0.00    +0.000 A 
ATOM      3  C   UNL     1       3.655   4.446  19.632  0.00  0.00    +0.000 A 
ATOM      4  C   UNL     1       3.290   5.664  19.135  0.00  0.00    +0.000 A 
ATOM      5  C   UNL     1       2.172   6.080  19.809  0.00  0.00    +0.000 A 
ATOM      6  C   UNL     1       1.603   7.317  19.549  0.00  0.00    +0.000 A 
ATOM      7  C   UNL     1       2.231   8.101  18.564  0.00  0.00    +0.000 A 
ATOM      8  C   UNL     1       1.683   9.461  18.236  0.00  0.00    +0.000 C 
ATOM      9  C   UNL     1       3.390   7.630  17.889  0.00  0.00    +0.000 A 
ATOM     10  C   UNL     1       3.973   6.362  18.185  0.00  0.00    +0.000 A 
ATOM     11  C   UNL     1       5.166   5.728  17.668  0.00  0.00    +0.000 A 
ATOM     12  O   UNL     1       1.719   5.176  20.762  0.00  0.00    +0.000 OA
ATOM     13  C   UNL     1       2.680   4.068  20.674  0.00  0.00    +0.000 C 
ENDROOT
BRANCH  11  14
ATOM     14  C   UNL     1       5.982   6.496  16.617  0.00  0.00    +0.000 C 
ATOM     15  C   UNL     1       5.113   6.847  15.404  0.00  0.00    +0.000 C 
ATOM     16  C   UNL     1       6.761   7.731  17.083  0.00  0.00    +0.000 C 
ENDBRANCH  11  14
BRANCH   1  18
ATOM     17  C   UNL     1       7.962   4.546  18.264  0.00  0.00    +0.000 C 
ATOM     18  O   UNL     1       6.766   3.941  17.769  0.00  0.00    +0.000 OA
ENDBRANCH   1  18
BRANCH   2  19
ATOM     19  O   UNL     1       5.189   2.692  19.886  0.00  0.00    +0.000 OA
ATOM     20  H   UNL     1       5.739   2.991  20.625  0.00  0.00    +0.000 HD
ENDBRANCH   2  19
TORSDOF 3
ENDMDL
MODEL 9
REMARK VINA RESULT:      -5.9      2.368      4.092
REMARK  Name = 
REMARK  7 active torsions:
REMARK  status: ('A' for Active; 'I' for Inactive)
REMARK    1  A    between atoms: C_1  and  O_2
REMARK    2  A    between atoms: O_2  and  C_3
REMARK    3  A    between atoms: C_4  and  O_5
REMARK    4  A    between atoms: C_10  and  C_11
REMARK    5  A    between atoms: C_14  and  C_15
REMARK    6  A    between atoms: C_15  and  C_16
REMARK    7  A    between atoms: C_15  and  C_17
REMARK                            x       y       z     vdW  Elec       q    Type
REMARK                         _______ _______ _______ _____ _____    ______ ____
ROOT
ATOM      1  C   UNL     1       2.660   4.712  17.969  0.00  0.00    +0.000 A 
ATOM      2  C   UNL     1       3.255   3.724  17.142  0.00  0.00    +0.000 A 
ATOM      3  C   UNL     1       4.558   3.932  16.757  0.00  0.00    +0.000 A 
ATOM      4  C   UNL     1       5.231   5.070  17.093  0.00  0.00    +0.000 A 
ATOM      5  C   UNL     1       6.453   5.040  16.474  0.00  0.00    +0.000 A 
ATOM      6  C   UNL     1       7.339   6.099  16.594  0.00  0.00    +0.000 A 
ATOM      7  C   UNL     1       6.915   7.184  17.381  0.00  0.00    +0.000 A 
ATOM      8  C   UNL     1       7.812   8.378  17.548  0.00  0.00    +0.000 C 
ATOM      9  C   UNL     1       5.637   7.175  18.005  0.00  0.00    +0.000 A 
ATOM     10  C   UNL     1       4.731   6.084  17.853  0.00  0.00    +0.000 A 
ATOM     11  C   UNL     1       3.382   5.901  18.345  0.00  0.00    +0.000 A 
ATOM     12  O   UNL     1       6.675   3.894  15.720  0.00  0.00    +0.000 OA
ATOM     13  C   UNL     1       5.433   3.125  15.884  0.00  0.00    +0.000 C 
ENDROOT
BRANCH  11  14
ATOM     14  C   UNL     1       2.770   7.036  19.181  0.00  0.00    +0.000 C 
ATOM     15  C   UNL     1       1.981   8.002  18.291  0.00  0.00    +0.000 C 
ATOM     16  C   UNL     1       1.937   6.647  20.408  0.00  0.00    +0.000 C 
ENDBRANCH  11  14
BRANCH   1  18
ATOM     17  C   UNL     1       0.987   3.570  19.251  0.00  0.00    +0.000 C 
ATOM     18  O   UNL     1       1.345   4.633  18.366  0.00  0.00    +0.000 OA
ENDBRANCH   1  18
BRANCH   2  19
ATOM     19  O   UNL     1       2.600   2.648  16.629  0.00  0.00    +0.000 OA
ATOM     20  H   UNL     1       2.501   2.023  17.361  0.00  0.00    +0.000 HD
ENDBRANCH   2  19
TORSDOF 3
ENDMDL
