MODEL 1
REMARK VINA RESULT:      -7.7      0.000      0.000
REMARK  Name = 
REMARK  5 active torsions:
REMARK  status: ('A' for Active; 'I' for Inactive)
REMARK    1  A    between atoms: C_4  and  S_5
REMARK    2  A    between atoms: S_5  and  C_6
REMARK    3  A    between atoms: C_6  and  C_7
REMARK    4  A    between atoms: C_14  and  C_15
REMARK    5  A    between atoms: C_15  and  C_16
REMARK                            x       y       z     vdW  Elec       q    Type
REMARK                         _______ _______ _______ _____ _____    ______ ____
ROOT
ATOM      1  O   UNL     1       4.602   2.130  20.486  0.00  0.00    +0.000 OA
ATOM      2  C   UNL     1       4.523   2.943  19.572  0.00  0.00    +0.000 A 
ATOM      3  N   UNL     1       5.636   3.333  18.897  0.00  0.00    +0.000 N 
ATOM      4  C   UNL     1       5.624   4.373  18.034  0.00  0.00    +0.000 A 
ATOM      5  N   UNL     1       4.567   5.038  17.713  0.00  0.00    +0.000 NA
ATOM      6  C   UNL     1       3.358   4.622  18.265  0.00  0.00    +0.000 A 
ATOM      7  C   UNL     1       3.248   3.585  19.131  0.00  0.00    +0.000 A 
ATOM      8  I   UNL     1       1.506   2.808  19.908  0.00  0.00    +0.000 I 
ATOM      9  H   UNL     1       6.514   2.905  19.146  0.00  0.00    +0.000 HD
ENDROOT
BRANCH   4  10
ATOM     10  S   UNL     1       7.199   4.662  17.386  0.00  0.00    +0.000 S 
BRANCH  10  11
ATOM     11  C   UNL     1       6.841   5.822  16.041  0.00  0.00    +0.000 C 
BRANCH  11  12
ATOM     12  C   UNL     1       6.798   5.081  14.722  0.00  0.00    +0.000 A 
ATOM     13  C   UNL     1       7.697   5.401  13.693  0.00  0.00    +0.000 A 
ATOM     14  C   UNL     1       7.609   4.769  12.451  0.00  0.00    +0.000 A 
ATOM     15  C   UNL     1       6.621   3.812  12.222  0.00  0.00    +0.000 A 
ATOM     16  C   UNL     1       5.725   3.484  13.238  0.00  0.00    +0.000 A 
ATOM     17  C   UNL     1       5.810   4.112  14.478  0.00  0.00    +0.000 A 
ENDBRANCH  11  12
ENDBRANCH  10  11
ENDBRANCH   4  10
BRANCH   6  18
ATOM     18  C   UNL     1       2.157   5.429  17.770  0.00  0.00    +0.000 C 
BRANCH  18  19
ATOM     19  C   UNL     1       2.028   6.768  18.469  0.00  0.00    +0.000 A 
ATOM     20  C   UNL     1       1.931   6.832  19.867  0.00  0.00    +0.000 A 
ATOM     21  C   UNL     1       1.725   8.051  20.512  0.00  0.00    +0.000 A 
ATOM     22  C   UNL     1       1.633   9.226  19.769  0.00  0.00    +0.000 A 
ATOM     23  C   UNL     1       1.771   9.183  18.383  0.00  0.00    +0.000 A 
ATOM     24  C   UNL     1       1.973   7.962  17.735  0.00  0.00    +0.000 A 
ENDBRANCH  18  19
ENDBRANCH   6  18
TORSDOF 5
ENDMDL
MODEL 2
REMARK VINA RESULT:      -7.7      0.997      1.780
REMARK  Name = 
REMARK  5 active torsions:
REMARK  status: ('A' for Active; 'I' for Inactive)
REMARK    1  A    between atoms: C_4  and  S_5
REMARK    2  A    between atoms: S_5  and  C_6
REMARK    3  A    between atoms: C_6  and  C_7
REMARK    4  A    between atoms: C_14  and  C_15
REMARK    5  A    between atoms: C_15  and  C_16
REMARK                            x       y       z     vdW  Elec       q    Type
REMARK                         _______ _______ _______ _____ _____    ______ ____
ROOT
ATOM      1  O   UNL     1       3.363   1.517  17.828  0.00  0.00    +0.000 OA
ATOM      2  C   UNL     1       3.721   2.658  18.103  0.00  0.00    +0.000 A 
ATOM      3  N   UNL     1       4.885   3.153  17.607  0.00  0.00    +0.000 N 
ATOM      4  C   UNL     1       5.416   4.315  18.050  0.00  0.00    +0.000 A 
ATOM      5  N   UNL     1       4.852   5.089  18.912  0.00  0.00    +0.000 NA
ATOM      6  C   UNL     1       3.594   4.716  19.378  0.00  0.00    +0.000 A 
ATOM      7  C   UNL     1       2.959   3.583  18.995  0.00  0.00    +0.000 A 
ATOM      8  I   UNL     1       1.055   2.997  19.521  0.00  0.00    +0.000 I 
ATOM      9  H   UNL     1       5.418   2.570  16.980  0.00  0.00    +0.000 HD
ENDROOT
BRANCH   4  10
ATOM     10  S   UNL     1       6.926   4.643  17.276  0.00  0.00    +0.000 S 
BRANCH  10  11
ATOM     11  C   UNL     1       6.431   5.801  15.973  0.00  0.00    +0.000 C 
BRANCH  11  12
ATOM     12  C   UNL     1       6.470   5.107  14.628  0.00  0.00    +0.000 A 
ATOM     13  C   UNL     1       5.478   4.179  14.274  0.00  0.00    +0.000 A 
ATOM     14  C   UNL     1       5.555   3.485  13.065  0.00  0.00    +0.000 A 
ATOM     15  C   UNL     1       6.624   3.707  12.198  0.00  0.00    +0.000 A 
ATOM     16  C   UNL     1       7.613   4.629  12.539  0.00  0.00    +0.000 A 
ATOM     17  C   UNL     1       7.539   5.323  13.744  0.00  0.00    +0.000 A 
ENDBRANCH  11  12
ENDBRANCH  10  11
ENDBRANCH   4  10
BRANCH   6  18
ATOM     18  C   UNL     1       2.979   5.734  20.341  0.00  0.00    +0.000 C 
BRANCH  18  19
ATOM     19  C   UNL     1       2.415   6.945  19.625  0.00  0.00    +0.000 A 
ATOM     20  C   UNL     1       2.645   7.130  18.254  0.00  0.00    +0.000 A 
ATOM     21  C   UNL     1       2.203   8.284  17.607  0.00  0.00    +0.000 A 
ATOM     22  C   UNL     1       1.508   9.259  18.318  0.00  0.00    +0.000 A 
ATOM     23  C   UNL     1       1.233   9.069  19.670  0.00  0.00    +0.000 A 
ATOM     24  C   UNL     1       1.678   7.916  20.321  0.00  0.00    +0.000 A 
ENDBRANCH  18  19
ENDBRANCH   6  18
TORSDOF 5
ENDMDL
MODEL 3
REMARK VINA RESULT:      -7.6      3.481      7.559
REMARK  Name = 
REMARK  5 active torsions:
REMARK  status: ('A' for Active; 'I' for Inactive)
REMARK    1  A    between atoms: C_4  and  S_5
REMARK    2  A    between atoms: S_5  and  C_6
REMARK    3  A    between atoms: C_6  and  C_7
REMARK    4  A    between atoms: C_14  and  C_15
REMARK    5  A    between atoms: C_15  and  C_16
REMARK                            x       y       z     vdW  Elec       q    Type
REMARK                         _______ _______ _______ _____ _____    ______ ____
ROOT
ATOM      1  O   UNL     1       6.293   7.265  16.672  0.00  0.00    +0.000 OA
ATOM      2  C   UNL     1       5.186   6.828  16.967  0.00  0.00    +0.000 A 
ATOM      3  N   UNL     1       4.218   7.660  17.434  0.00  0.00    +0.000 N 
ATOM      4  C   UNL     1       3.067   7.195  17.966  0.00  0.00    +0.000 A 
ATOM      5  N   UNL     1       2.742   5.949  18.016  0.00  0.00    +0.000 NA
ATOM      6  C   UNL     1       3.624   5.035  17.443  0.00  0.00    +0.000 A 
ATOM      7  C   UNL     1       4.800   5.388  16.871  0.00  0.00    +0.000 A 
ATOM      8  I   UNL     1       6.116   4.144  15.889  0.00  0.00    +0.000 I 
ATOM      9  H   UNL     1       4.429   8.645  17.491  0.00  0.00    +0.000 HD
ENDROOT
BRANCH   4  10
ATOM     10  S   UNL     1       2.072   8.491  18.527  0.00  0.00    +0.000 S 
BRANCH  10  11
ATOM     11  C   UNL     1       1.799   8.027  20.258  0.00  0.00    +0.000 C 
BRANCH  11  12
ATOM     12  C   UNL     1       0.916   9.055  20.931  0.00  0.00    +0.000 A 
ATOM     13  C   UNL     1       0.730   9.035  22.323  0.00  0.00    +0.000 A 
ATOM     14  C   UNL     1      -0.143   9.937  22.935  0.00  0.00    +0.000 A 
ATOM     15  C   UNL     1      -0.841  10.866  22.166  0.00  0.00    +0.000 A 
ATOM     16  C   UNL     1      -0.661  10.897  20.784  0.00  0.00    +0.000 A 
ATOM     17  C   UNL     1       0.209   9.999  20.169  0.00  0.00    +0.000 A 
ENDBRANCH  11  12
ENDBRANCH  10  11
ENDBRANCH   4  10
BRANCH   6  18
ATOM     18  C   UNL     1       3.117   3.593  17.491  0.00  0.00    +0.000 C 
BRANCH  18  19
ATOM     19  C   UNL     1       2.538   3.224  18.843  0.00  0.00    +0.000 A 
ATOM     20  C   UNL     1       1.150   3.209  19.039  0.00  0.00    +0.000 A 
ATOM     21  C   UNL     1       0.612   2.955  20.301  0.00  0.00    +0.000 A 
ATOM     22  C   UNL     1       1.455   2.694  21.379  0.00  0.00    +0.000 A 
ATOM     23  C   UNL     1       2.834   2.662  21.189  0.00  0.00    +0.000 A 
ATOM     24  C   UNL     1       3.375   2.920  19.927  0.00  0.00    +0.000 A 
ENDBRANCH  18  19
ENDBRANCH   6  18
TORSDOF 5
ENDMDL
MODEL 4
REMARK VINA RESULT:      -7.6      0.976      1.248
REMARK  Name = 
REMARK  5 active torsions:
REMARK  status: ('A' for Active; 'I' for Inactive)
REMARK    1  A    between atoms: C_4  and  S_5
REMARK    2  A    between atoms: S_5  and  C_6
REMARK    3  A    between atoms: C_6  and  C_7
REMARK    4  A    between atoms: C_14  and  C_15
REMARK    5  A    between atoms: C_15  and  C_16
REMARK                            x       y       z     vdW  Elec       q    Type
REMARK                         _______ _______ _______ _____ _____    ______ ____
ROOT
ATOM      1  O   UNL     1       3.333   1.459  18.290  0.00  0.00    +0.000 OA
ATOM      2  C   UNL     1       3.626   2.636  18.475  0.00  0.00    +0.000 A 
ATOM      3  N   UNL     1       4.761   3.156  17.941  0.00  0.00    +0.000 N 
ATOM      4  C   UNL     1       5.225   4.376  18.292  0.00  0.00    +0.000 A 
ATOM      5  N   UNL     1       4.615   5.182  19.091  0.00  0.00    +0.000 NA
ATOM      6  C   UNL     1       3.378   4.777  19.585  0.00  0.00    +0.000 A 
ATOM      7  C   UNL     1       2.809   3.583  19.292  0.00  0.00    +0.000 A 
ATOM      8  I   UNL     1       0.939   2.935  19.864  0.00  0.00    +0.000 I 
ATOM      9  H   UNL     1       5.329   2.557  17.361  0.00  0.00    +0.000 HD
ENDROOT
BRANCH   4  10
ATOM     10  S   UNL     1       6.717   4.727  17.494  0.00  0.00    +0.000 S 
BRANCH  10  11
ATOM     11  C   UNL     1       6.167   5.776  16.122  0.00  0.00    +0.000 C 
BRANCH  11  12
ATOM     12  C   UNL     1       6.338   5.038  14.812  0.00  0.00    +0.000 A 
ATOM     13  C   UNL     1       7.442   5.299  13.984  0.00  0.00    +0.000 A 
ATOM     14  C   UNL     1       7.561   4.674  12.742  0.00  0.00    +0.000 A 
ATOM     15  C   UNL     1       6.580   3.783  12.310  0.00  0.00    +0.000 A 
ATOM     16  C   UNL     1       5.481   3.514  13.125  0.00  0.00    +0.000 A 
ATOM     17  C   UNL     1       5.359   4.136  14.365  0.00  0.00    +0.000 A 
ENDBRANCH  11  12
ENDBRANCH  10  11
ENDBRANCH   4  10
BRANCH   6  18
ATOM     18  C   UNL     1       2.704   5.831  20.466  0.00  0.00    +0.000 C 
BRANCH  18  19
ATOM     19  C   UNL     1       2.325   7.079  19.694  0.00  0.00    +0.000 A 
ATOM     20  C   UNL     1       1.607   8.109  20.319  0.00  0.00    +0.000 A 
ATOM     21  C   UNL     1       1.180   9.222  19.595  0.00  0.00    +0.000 A 
ATOM     22  C   UNL     1       1.483   9.329  18.239  0.00  0.00    +0.000 A 
ATOM     23  C   UNL     1       2.233   8.335  17.615  0.00  0.00    +0.000 A 
ATOM     24  C   UNL     1       2.659   7.218  18.339  0.00  0.00    +0.000 A 
ENDBRANCH  18  19
ENDBRANCH   6  18
TORSDOF 5
ENDMDL
MODEL 5
REMARK VINA RESULT:      -7.5      3.545      7.618
REMARK  Name = 
REMARK  5 active torsions:
REMARK  status: ('A' for Active; 'I' for Inactive)
REMARK    1  A    between atoms: C_4  and  S_5
REMARK    2  A    between atoms: S_5  and  C_6
REMARK    3  A    between atoms: C_6  and  C_7
REMARK    4  A    between atoms: C_14  and  C_15
REMARK    5  A    between atoms: C_15  and  C_16
REMARK                            x       y       z     vdW  Elec       q    Type
REMARK                         _______ _______ _______ _____ _____    ______ ____
ROOT
ATOM      1  O   UNL     1       6.112   7.325  16.679  0.00  0.00    +0.000 OA
ATOM      2  C   UNL     1       5.004   6.908  16.997  0.00  0.00    +0.000 A 
ATOM      3  N   UNL     1       4.068   7.754  17.503  0.00  0.00    +0.000 N 
ATOM      4  C   UNL     1       2.921   7.305  18.059  0.00  0.00    +0.000 A 
ATOM      5  N   UNL     1       2.570   6.066  18.098  0.00  0.00    +0.000 NA
ATOM      6  C   UNL     1       3.416   5.143  17.488  0.00  0.00    +0.000 A 
ATOM      7  C   UNL     1       4.584   5.479  16.889  0.00  0.00    +0.000 A 
ATOM      8  I   UNL     1       5.845   4.221  15.854  0.00  0.00    +0.000 I 
ATOM      9  H   UNL     1       4.302   8.733  17.569  0.00  0.00    +0.000 HD
ENDROOT
BRANCH   4  10
ATOM     10  S   UNL     1       1.971   8.614  18.666  0.00  0.00    +0.000 S 
BRANCH  10  11
ATOM     11  C   UNL     1       1.638   8.075  20.364  0.00  0.00    +0.000 C 
BRANCH  11  12
ATOM     12  C   UNL     1       0.809   9.118  21.080  0.00  0.00    +0.000 A 
ATOM     13  C   UNL     1       0.623  10.392  20.519  0.00  0.00    +0.000 A 
ATOM     14  C   UNL     1      -0.079  11.378  21.214  0.00  0.00    +0.000 A 
ATOM     15  C   UNL     1      -0.601  11.105  22.478  0.00  0.00    +0.000 A 
ATOM     16  C   UNL     1      -0.426   9.843  23.043  0.00  0.00    +0.000 A 
ATOM     17  C   UNL     1       0.274   8.857  22.352  0.00  0.00    +0.000 A 
ENDBRANCH  11  12
ENDBRANCH  10  11
ENDBRANCH   4  10
BRANCH   6  18
ATOM     18  C   UNL     1       2.878   3.711  17.528  0.00  0.00    +0.000 C 
BRANCH  18  19
ATOM     19  C   UNL     1       2.419   3.300  18.914  0.00  0.00    +0.000 A 
ATOM     20  C   UNL     1       1.051   3.230  19.215  0.00  0.00    +0.000 A 
ATOM     21  C   UNL     1       0.621   2.938  20.510  0.00  0.00    +0.000 A 
ATOM     22  C   UNL     1       1.554   2.692  21.515  0.00  0.00    +0.000 A 
ATOM     23  C   UNL     1       2.915   2.714  21.219  0.00  0.00    +0.000 A 
ATOM     24  C   UNL     1       3.347   3.011  19.925  0.00  0.00    +0.000 A 
ENDBRANCH  18  19
ENDBRANCH   6  18
TORSDOF 5
ENDMDL
MODEL 6
REMARK VINA RESULT:      -7.5      3.506      7.560
REMARK  Name = 
REMARK  5 active torsions:
REMARK  status: ('A' for Active; 'I' for Inactive)
REMARK    1  A    between atoms: C_4  and  S_5
REMARK    2  A    between atoms: S_5  and  C_6
REMARK    3  A    between atoms: C_6  and  C_7
REMARK    4  A    between atoms: C_14  and  C_15
REMARK    5  A    between atoms: C_15  and  C_16
REMARK                            x       y       z     vdW  Elec       q    Type
REMARK                         _______ _______ _______ _____ _____    ______ ____
ROOT
ATOM      1  O   UNL     1       6.087   7.232  16.468  0.00  0.00    +0.000 OA
ATOM      2  C   UNL     1       5.003   6.814  16.859  0.00  0.00    +0.000 A 
ATOM      3  N   UNL     1       4.075   7.668  17.363  0.00  0.00    +0.000 N 
ATOM      4  C   UNL     1       2.963   7.230  17.994  0.00  0.00    +0.000 A 
ATOM      5  N   UNL     1       2.638   5.988  18.112  0.00  0.00    +0.000 NA
ATOM      6  C   UNL     1       3.473   5.049  17.511  0.00  0.00    +0.000 A 
ATOM      7  C   UNL     1       4.605   5.373  16.843  0.00  0.00    +0.000 A 
ATOM      8  I   UNL     1       5.842   4.086  15.815  0.00  0.00    +0.000 I 
ATOM      9  H   UNL     1       4.293   8.653  17.369  0.00  0.00    +0.000 HD
ENDROOT
BRANCH   4  10
ATOM     10  S   UNL     1       2.016   8.552  18.577  0.00  0.00    +0.000 S 
BRANCH  10  11
ATOM     11  C   UNL     1       1.703   8.056  20.292  0.00  0.00    +0.000 C 
BRANCH  11  12
ATOM     12  C   UNL     1       0.839   9.093  20.976  0.00  0.00    +0.000 A 
ATOM     13  C   UNL     1       0.584  10.329  20.361  0.00  0.00    +0.000 A 
ATOM     14  C   UNL     1      -0.151  11.314  21.024  0.00  0.00    +0.000 A 
ATOM     15  C   UNL     1      -0.637  11.077  22.309  0.00  0.00    +0.000 A 
ATOM     16  C   UNL     1      -0.393   9.852  22.928  0.00  0.00    +0.000 A 
ATOM     17  C   UNL     1       0.340   8.867  22.269  0.00  0.00    +0.000 A 
ENDBRANCH  11  12
ENDBRANCH  10  11
ENDBRANCH   4  10
BRANCH   6  18
ATOM     18  C   UNL     1       2.965   3.613  17.649  0.00  0.00    +0.000 C 
BRANCH  18  19
ATOM     19  C   UNL     1       2.483   3.297  19.051  0.00  0.00    +0.000 A 
ATOM     20  C   UNL     1       3.402   2.984  20.063  0.00  0.00    +0.000 A 
ATOM     21  C   UNL     1       2.964   2.609  21.333  0.00  0.00    +0.000 A 
ATOM     22  C   UNL     1       1.600   2.561  21.614  0.00  0.00    +0.000 A 
ATOM     23  C   UNL     1       0.677   2.913  20.631  0.00  0.00    +0.000 A 
ATOM     24  C   UNL     1       1.114   3.285  19.358  0.00  0.00    +0.000 A 
ENDBRANCH  18  19
ENDBRANCH   6  18
TORSDOF 5
ENDMDL
MODEL 7
REMARK VINA RESULT:      -7.5      1.205      1.666
REMARK  Name = 
REMARK  5 active torsions:
REMARK  status: ('A' for Active; 'I' for Inactive)
REMARK    1  A    between atoms: C_4  and  S_5
REMARK    2  A    between atoms: S_5  and  C_6
REMARK    3  A    between atoms: C_6  and  C_7
REMARK    4  A    between atoms: C_14  and  C_15
REMARK    5  A    between atoms: C_15  and  C_16
REMARK                            x       y       z     vdW  Elec       q    Type
REMARK                         _______ _______ _______ _____ _____    ______ ____
ROOT
ATOM      1  O   UNL     1       4.104   1.613  19.054  0.00  0.00    +0.000 OA
ATOM      2  C   UNL     1       4.140   2.830  19.196  0.00  0.00    +0.000 A 
ATOM      3  N   UNL     1       5.295   3.515  18.989  0.00  0.00    +0.000 N 
ATOM      4  C   UNL     1       5.432   4.814  19.336  0.00  0.00    +0.000 A 
ATOM      5  N   UNL     1       4.482   5.540  19.818  0.00  0.00    +0.000 NA
ATOM      6  C   UNL     1       3.228   4.948  19.945  0.00  0.00    +0.000 A 
ATOM      7  C   UNL     1       2.971   3.659  19.616  0.00  0.00    +0.000 A 
ATOM      8  I   UNL     1       1.137   2.721  19.646  0.00  0.00    +0.000 I 
ATOM      9  H   UNL     1       6.103   2.996  18.680  0.00  0.00    +0.000 HD
ENDROOT
BRANCH   4  10
ATOM     10  S   UNL     1       7.030   5.381  19.007  0.00  0.00    +0.000 S 
BRANCH  10  11
ATOM     11  C   UNL     1       6.754   6.462  17.579  0.00  0.00    +0.000 C 
BRANCH  11  12
ATOM     12  C   UNL     1       6.439   5.627  16.357  0.00  0.00    +0.000 A 
ATOM     13  C   UNL     1       7.471   5.126  15.548  0.00  0.00    +0.000 A 
ATOM     14  C   UNL     1       7.179   4.419  14.381  0.00  0.00    +0.000 A 
ATOM     15  C   UNL     1       5.853   4.208  14.005  0.00  0.00    +0.000 A 
ATOM     16  C   UNL     1       4.820   4.698  14.803  0.00  0.00    +0.000 A 
ATOM     17  C   UNL     1       5.108   5.403  15.969  0.00  0.00    +0.000 A 
ENDBRANCH  11  12
ENDBRANCH  10  11
ENDBRANCH   4  10
BRANCH   6  18
ATOM     18  C   UNL     1       2.155   5.910  20.458  0.00  0.00    +0.000 C 
BRANCH  18  19
ATOM     19  C   UNL     1       2.059   7.174  19.626  0.00  0.00    +0.000 A 
ATOM     20  C   UNL     1       1.475   8.332  20.159  0.00  0.00    +0.000 A 
ATOM     21  C   UNL     1       1.305   9.471  19.373  0.00  0.00    +0.000 A 
ATOM     22  C   UNL     1       1.735   9.474  18.048  0.00  0.00    +0.000 A 
ATOM     23  C   UNL     1       2.358   8.346  17.518  0.00  0.00    +0.000 A 
ATOM     24  C   UNL     1       2.525   7.203  18.303  0.00  0.00    +0.000 A 
ENDBRANCH  18  19
ENDBRANCH   6  18
TORSDOF 5
ENDMDL
MODEL 8
REMARK VINA RESULT:      -7.5      1.229      1.907
REMARK  Name = 
REMARK  5 active torsions:
REMARK  status: ('A' for Active; 'I' for Inactive)
REMARK    1  A    between atoms: C_4  and  S_5
REMARK    2  A    between atoms: S_5  and  C_6
REMARK    3  A    between atoms: C_6  and  C_7
REMARK    4  A    between atoms: C_14  and  C_15
REMARK    5  A    between atoms: C_15  and  C_16
REMARK                            x       y       z     vdW  Elec       q    Type
REMARK                         _______ _______ _______ _____ _____    ______ ____
ROOT
ATOM      1  O   UNL     1       4.290   1.650  19.157  0.00  0.00    +0.000 OA
ATOM      2  C   UNL     1       4.273   2.872  19.260  0.00  0.00    +0.000 A 
ATOM      3  N   UNL     1       5.400   3.599  19.042  0.00  0.00    +0.000 N 
ATOM      4  C   UNL     1       5.476   4.913  19.348  0.00  0.00    +0.000 A 
ATOM      5  N   UNL     1       4.492   5.612  19.799  0.00  0.00    +0.000 NA
ATOM      6  C   UNL     1       3.262   4.971  19.933  0.00  0.00    +0.000 A 
ATOM      7  C   UNL     1       3.065   3.663  19.644  0.00  0.00    +0.000 A 
ATOM      8  I   UNL     1       1.273   2.647  19.687  0.00  0.00    +0.000 I 
ATOM      9  H   UNL     1       6.232   3.107  18.756  0.00  0.00    +0.000 HD
ENDROOT
BRANCH   4  10
ATOM     10  S   UNL     1       7.052   5.539  19.016  0.00  0.00    +0.000 S 
BRANCH  10  11
ATOM     11  C   UNL     1       6.726   6.643  17.616  0.00  0.00    +0.000 C 
BRANCH  11  12
ATOM     12  C   UNL     1       6.421   5.827  16.379  0.00  0.00    +0.000 A 
ATOM     13  C   UNL     1       5.092   5.573  16.000  0.00  0.00    +0.000 A 
ATOM     14  C   UNL     1       4.811   4.759  14.902  0.00  0.00    +0.000 A 
ATOM     15  C   UNL     1       5.851   4.187  14.171  0.00  0.00    +0.000 A 
ATOM     16  C   UNL     1       7.173   4.436  14.536  0.00  0.00    +0.000 A 
ATOM     17  C   UNL     1       7.458   5.248  15.631  0.00  0.00    +0.000 A 
ENDBRANCH  11  12
ENDBRANCH  10  11
ENDBRANCH   4  10
BRANCH   6  18
ATOM     18  C   UNL     1       2.144   5.901  20.407  0.00  0.00    +0.000 C 
BRANCH  18  19
ATOM     19  C   UNL     1       2.067   7.180  19.595  0.00  0.00    +0.000 A 
ATOM     20  C   UNL     1       1.497   8.337  20.146  0.00  0.00    +0.000 A 
ATOM     21  C   UNL     1       1.345   9.491  19.378  0.00  0.00    +0.000 A 
ATOM     22  C   UNL     1       1.778   9.510  18.054  0.00  0.00    +0.000 A 
ATOM     23  C   UNL     1       2.386   8.382  17.507  0.00  0.00    +0.000 A 
ATOM     24  C   UNL     1       2.536   7.224  18.274  0.00  0.00    +0.000 A 
ENDBRANCH  18  19
ENDBRANCH   6  18
TORSDOF 5
ENDMDL
MODEL 9
REMARK VINA RESULT:      -7.4      2.399      6.701
REMARK  Name = 
REMARK  5 active torsions:
REMARK  status: ('A' for Active; 'I' for Inactive)
REMARK    1  A    between atoms: C_4  and  S_5
REMARK    2  A    between atoms: S_5  and  C_6
REMARK    3  A    between atoms: C_6  and  C_7
REMARK    4  A    between atoms: C_14  and  C_15
REMARK    5  A    between atoms: C_15  and  C_16
REMARK                            x       y       z     vdW  Elec       q    Type
REMARK                         _______ _______ _______ _____ _____    ______ ____
ROOT
ATOM      1  O   UNL     1       7.158   5.123  19.835  0.00  0.00    +0.000 OA
ATOM      2  C   UNL     1       6.357   4.909  18.931  0.00  0.00    +0.000 A 
ATOM      3  N   UNL     1       5.471   3.883  19.023  0.00  0.00    +0.000 N 
ATOM      4  C   UNL     1       4.722   3.485  17.970  0.00  0.00    +0.000 A 
ATOM      5  N   UNL     1       4.716   4.070  16.822  0.00  0.00    +0.000 NA
ATOM      6  C   UNL     1       5.504   5.210  16.681  0.00  0.00    +0.000 A 
ATOM      7  C   UNL     1       6.284   5.708  17.671  0.00  0.00    +0.000 A 
ATOM      8  I   UNL     1       7.387   7.446  17.615  0.00  0.00    +0.000 I 
ATOM      9  H   UNL     1       5.470   3.334  19.869  0.00  0.00    +0.000 HD
ENDROOT
BRANCH   4  10
ATOM     10  S   UNL     1       3.745   2.121  18.382  0.00  0.00    +0.000 S 
BRANCH  10  11
ATOM     11  C   UNL     1       2.072   2.789  18.183  0.00  0.00    +0.000 C 
BRANCH  11  12
ATOM     12  C   UNL     1       1.976   4.142  18.853  0.00  0.00    +0.000 A 
ATOM     13  C   UNL     1       2.143   5.321  18.109  0.00  0.00    +0.000 A 
ATOM     14  C   UNL     1       2.129   6.566  18.740  0.00  0.00    +0.000 A 
ATOM     15  C   UNL     1       1.951   6.649  20.120  0.00  0.00    +0.000 A 
ATOM     16  C   UNL     1       1.781   5.485  20.868  0.00  0.00    +0.000 A 
ATOM     17  C   UNL     1       1.795   4.241  20.242  0.00  0.00    +0.000 A 
ENDBRANCH  11  12
ENDBRANCH  10  11
ENDBRANCH   4  10
BRANCH   6  18
ATOM     18  C   UNL     1       5.374   5.869  15.307  0.00  0.00    +0.000 C 
BRANCH  18  19
ATOM     19  C   UNL     1       5.951   5.015  14.195  0.00  0.00    +0.000 A 
ATOM     20  C   UNL     1       7.251   5.247  13.723  0.00  0.00    +0.000 A 
ATOM     21  C   UNL     1       7.757   4.524  12.644  0.00  0.00    +0.000 A 
ATOM     22  C   UNL     1       6.977   3.544  12.034  0.00  0.00    +0.000 A 
ATOM     23  C   UNL     1       5.701   3.271  12.521  0.00  0.00    +0.000 A 
ATOM     24  C   UNL     1       5.191   3.997  13.599  0.00  0.00    +0.000 A 
ENDBRANCH  18  19
ENDBRANCH   6  18
TORSDOF 5
ENDMDL
