MODEL 1
REMARK VINA RESULT:      -7.4      0.000      0.000
REMARK  Name = 
REMARK  10 active torsions:
REMARK  status: ('A' for Active; 'I' for Inactive)
REMARK    1  A    between atoms: C_1  and  O_2
REMARK    2  A    between atoms: O_2  and  C_3
REMARK    3  A    between atoms: C_6  and  N_7
REMARK    4  A    between atoms: C_8  and  C_10
REMARK    5  A    between atoms: C_13  and  N_14
REMARK    6  A    between atoms: C_19  and  C_20
REMARK    7  A    between atoms: C_26  and  N_27
REMARK    8  A    between atoms: N_27  and  C_28
REMARK    9  A    between atoms: C_28  and  C_29
REMARK   10  A    between atoms: C_28  and  C_30
REMARK                            x       y       z     vdW  Elec       q    Type
REMARK                         _______ _______ _______ _____ _____    ______ ____
ROOT
ATOM      1  C   UNL     1      -0.699  12.079  19.763  0.00  0.00    +0.000 A 
ATOM      2  C   UNL     1       0.210  11.555  20.694  0.00  0.00    +0.000 A 
ATOM      3  N   UNL     1       1.023  10.473  20.486  0.00  0.00    +0.000 NA
ATOM      4  C   UNL     1       0.893   9.849  19.295  0.00  0.00    +0.000 A 
ATOM      5  C   UNL     1      -0.083  10.245  18.377  0.00  0.00    +0.000 A 
ATOM      6  C   UNL     1      -0.786  11.447  18.515  0.00  0.00    +0.000 A 
ENDROOT
BRANCH   4   7
ATOM      7  N   UNL     1       1.752   8.776  18.870  0.00  0.00    +0.000 N 
ATOM      8  N   UNL     1       2.539   8.965  17.749  0.00  0.00    +0.000 NA
ATOM      9  C   UNL     1       2.947   7.745  17.420  0.00  0.00    +0.000 A 
ATOM     10  C   UNL     1       2.498   6.771  18.320  0.00  0.00    +0.000 A 
ATOM     11  C   UNL     1       2.521   5.374  18.386  0.00  0.00    +0.000 A 
ATOM     12  C   UNL     1       2.151   4.795  19.597  0.00  0.00    +0.000 A 
ATOM     13  C   UNL     1       1.819   5.626  20.662  0.00  0.00    +0.000 A 
ATOM     14  N   UNL     1       1.636   6.972  20.593  0.00  0.00    +0.000 NA
ATOM     15  C   UNL     1       1.949   7.491  19.383  0.00  0.00    +0.000 A 
BRANCH  12  16
ATOM     16  C   UNL     1       2.087   3.375  19.729  0.00  0.00    +0.000 C 
ATOM     17  N   UNL     1       1.981   2.224  19.832  0.00  0.00    +0.000 NA
ENDBRANCH  12  16
ENDBRANCH   4   7
BRANCH   1  19
ATOM     18  N   UNL     1      -2.440  13.147  21.108  0.00  0.00    +0.000 N 
ATOM     19  C   UNL     1      -1.458  13.308  20.158  0.00  0.00    +0.000 C 
ATOM     20  O   UNL     1      -1.193  14.380  19.646  0.00  0.00    +0.000 OA
ATOM     21  H   UNL     1      -2.528  12.238  21.536  0.00  0.00    +0.000 HD
BRANCH  18  25
ATOM     22  C   UNL     1      -5.330  12.865  23.349  0.00  0.00    +0.000 C 
ATOM     23  C   UNL     1      -5.446  12.882  21.819  0.00  0.00    +0.000 C 
ATOM     24  C   UNL     1      -4.760  14.086  21.170  0.00  0.00    +0.000 C 
ATOM     25  C   UNL     1      -3.295  14.240  21.610  0.00  0.00    +0.000 C 
ATOM     26  C   UNL     1      -3.237  14.325  23.140  0.00  0.00    +0.000 C 
ATOM     27  C   UNL     1      -3.890  13.115  23.817  0.00  0.00    +0.000 C 
BRANCH  22  29
ATOM     28  C   UNL     1      -7.535  13.495  24.005  0.00  0.00    +0.000 C 
ATOM     29  O   UNL     1      -6.162  13.867  23.945  0.00  0.00    +0.000 OA
ENDBRANCH  22  29
ENDBRANCH  18  25
ENDBRANCH   1  19
BRANCH   6  30
ATOM     30  N   UNL     1      -1.586  11.912  17.443  0.00  0.00    +0.000 N 
ATOM     31  H   UNL     1      -1.001  12.071  16.620  0.00  0.00    +0.000 HD
BRANCH  30  32
ATOM     32  C   UNL     1      -2.744  11.048  17.092  0.00  0.00    +0.000 C 
ATOM     33  C   UNL     1      -4.014  11.606  17.724  0.00  0.00    +0.000 C 
ATOM     34  C   UNL     1      -2.878  10.945  15.575  0.00  0.00    +0.000 C 
ENDBRANCH  30  32
ENDBRANCH   6  30
TORSDOF 7
ENDMDL
MODEL 2
REMARK VINA RESULT:      -7.3      2.143      2.924
REMARK  Name = 
REMARK  10 active torsions:
REMARK  status: ('A' for Active; 'I' for Inactive)
REMARK    1  A    between atoms: C_1  and  O_2
REMARK    2  A    between atoms: O_2  and  C_3
REMARK    3  A    between atoms: C_6  and  N_7
REMARK    4  A    between atoms: C_8  and  C_10
REMARK    5  A    between atoms: C_13  and  N_14
REMARK    6  A    between atoms: C_19  and  C_20
REMARK    7  A    between atoms: C_26  and  N_27
REMARK    8  A    between atoms: N_27  and  C_28
REMARK    9  A    between atoms: C_28  and  C_29
REMARK   10  A    between atoms: C_28  and  C_30
REMARK                            x       y       z     vdW  Elec       q    Type
REMARK                         _______ _______ _______ _____ _____    ______ ____
ROOT
ATOM      1  C   UNL     1       0.676  10.478  20.889  0.00  0.00    +0.000 A 
ATOM      2  C   UNL     1       1.169   9.646  21.904  0.00  0.00    +0.000 A 
ATOM      3  N   UNL     1       1.639   8.372  21.727  0.00  0.00    +0.000 NA
ATOM      4  C   UNL     1       1.575   7.881  20.470  0.00  0.00    +0.000 A 
ATOM      5  C   UNL     1       0.980   8.614  19.440  0.00  0.00    +0.000 A 
ATOM      6  C   UNL     1       0.663   9.969  19.582  0.00  0.00    +0.000 A 
ENDROOT
BRANCH   4   7
ATOM      7  N   UNL     1       2.136   6.612  20.091  0.00  0.00    +0.000 N 
ATOM      8  N   UNL     1       1.714   5.477  20.759  0.00  0.00    +0.000 NA
ATOM      9  C   UNL     1       2.611   4.552  20.442  0.00  0.00    +0.000 A 
ATOM     10  C   UNL     1       3.574   5.027  19.545  0.00  0.00    +0.000 A 
ATOM     11  C   UNL     1       4.768   4.543  18.999  0.00  0.00    +0.000 A 
ATOM     12  C   UNL     1       5.317   5.267  17.944  0.00  0.00    +0.000 A 
ATOM     13  C   UNL     1       4.640   6.390  17.479  0.00  0.00    +0.000 A 
ATOM     14  N   UNL     1       3.568   6.976  18.078  0.00  0.00    +0.000 NA
ATOM     15  C   UNL     1       3.099   6.275  19.137  0.00  0.00    +0.000 A 
BRANCH  12  16
ATOM     16  C   UNL     1       6.565   4.877  17.373  0.00  0.00    +0.000 C 
ATOM     17  N   UNL     1       7.600   4.609  16.922  0.00  0.00    +0.000 NA
ENDBRANCH  12  16
ENDBRANCH   4   7
BRANCH   1  19
ATOM     18  N   UNL     1      -1.081  12.068  21.496  0.00  0.00    +0.000 N 
ATOM     19  C   UNL     1       0.262  11.865  21.275  0.00  0.00    +0.000 C 
ATOM     20  O   UNL     1       1.097  12.744  21.380  0.00  0.00    +0.000 OA
ATOM     21  H   UNL     1      -1.684  11.260  21.468  0.00  0.00    +0.000 HD
BRANCH  18  25
ATOM     22  C   UNL     1      -4.498  12.705  22.664  0.00  0.00    +0.000 C 
ATOM     23  C   UNL     1      -4.072  12.823  21.195  0.00  0.00    +0.000 C 
ATOM     24  C   UNL     1      -2.868  13.744  20.983  0.00  0.00    +0.000 C 
ATOM     25  C   UNL     1      -1.672  13.366  21.871  0.00  0.00    +0.000 C 
ATOM     26  C   UNL     1      -2.118  13.364  23.338  0.00  0.00    +0.000 C 
ATOM     27  C   UNL     1      -3.304  12.425  23.586  0.00  0.00    +0.000 C 
BRANCH  22  29
ATOM     28  C   UNL     1      -6.322  14.221  22.408  0.00  0.00    +0.000 C 
ATOM     29  O   UNL     1      -5.129  13.907  23.121  0.00  0.00    +0.000 OA
ENDBRANCH  22  29
ENDBRANCH  18  25
ENDBRANCH   1  19
BRANCH   6  30
ATOM     30  N   UNL     1       0.283  10.718  18.442  0.00  0.00    +0.000 N 
ATOM     31  H   UNL     1       0.732  10.331  17.610  0.00  0.00    +0.000 HD
BRANCH  30  32
ATOM     32  C   UNL     1      -1.183  10.845  18.223  0.00  0.00    +0.000 C 
ATOM     33  C   UNL     1      -1.532  12.293  17.900  0.00  0.00    +0.000 C 
ATOM     34  C   UNL     1      -1.627   9.903  17.107  0.00  0.00    +0.000 C 
ENDBRANCH  30  32
ENDBRANCH   6  30
TORSDOF 7
ENDMDL
MODEL 3
REMARK VINA RESULT:      -7.1      4.376     10.652
REMARK  Name = 
REMARK  10 active torsions:
REMARK  status: ('A' for Active; 'I' for Inactive)
REMARK    1  A    between atoms: C_1  and  O_2
REMARK    2  A    between atoms: O_2  and  C_3
REMARK    3  A    between atoms: C_6  and  N_7
REMARK    4  A    between atoms: C_8  and  C_10
REMARK    5  A    between atoms: C_13  and  N_14
REMARK    6  A    between atoms: C_19  and  C_20
REMARK    7  A    between atoms: C_26  and  N_27
REMARK    8  A    between atoms: N_27  and  C_28
REMARK    9  A    between atoms: C_28  and  C_29
REMARK   10  A    between atoms: C_28  and  C_30
REMARK                            x       y       z     vdW  Elec       q    Type
REMARK                         _______ _______ _______ _____ _____    ______ ____
ROOT
ATOM      1  C   UNL     1       2.557   6.377  19.106  0.00  0.00    +0.000 A 
ATOM      2  C   UNL     1       2.276   7.608  18.496  0.00  0.00    +0.000 A 
ATOM      3  N   UNL     1       1.669   8.675  19.104  0.00  0.00    +0.000 NA
ATOM      4  C   UNL     1       1.282   8.491  20.385  0.00  0.00    +0.000 A 
ATOM      5  C   UNL     1       1.421   7.248  21.008  0.00  0.00    +0.000 A 
ATOM      6  C   UNL     1       2.192   6.222  20.451  0.00  0.00    +0.000 A 
ENDROOT
BRANCH   4   7
ATOM      7  N   UNL     1       0.744   9.544  21.204  0.00  0.00    +0.000 N 
ATOM      8  N   UNL     1       0.226   9.217  22.443  0.00  0.00    +0.000 NA
ATOM      9  C   UNL     1      -0.471  10.287  22.805  0.00  0.00    +0.000 A 
ATOM     10  C   UNL     1      -0.381  11.324  21.869  0.00  0.00    +0.000 A 
ATOM     11  C   UNL     1      -0.987  12.572  21.687  0.00  0.00    +0.000 A 
ATOM     12  C   UNL     1      -0.430  13.406  20.721  0.00  0.00    +0.000 A 
ATOM     13  C   UNL     1       0.696  12.973  20.030  0.00  0.00    +0.000 A 
ATOM     14  N   UNL     1       1.217  11.717  20.069  0.00  0.00    +0.000 NA
ATOM     15  C   UNL     1       0.612  10.916  20.977  0.00  0.00    +0.000 A 
BRANCH  12  16
ATOM     16  C   UNL     1      -1.026  14.671  20.429  0.00  0.00    +0.000 C 
ATOM     17  N   UNL     1      -1.479  15.720  20.231  0.00  0.00    +0.000 NA
ENDBRANCH  12  16
ENDBRANCH   4   7
BRANCH   1  19
ATOM     18  N   UNL     1       4.645   5.280  18.459  0.00  0.00    +0.000 N 
ATOM     19  C   UNL     1       3.281   5.353  18.288  0.00  0.00    +0.000 C 
ATOM     20  O   UNL     1       2.664   4.635  17.522  0.00  0.00    +0.000 OA
ATOM     21  H   UNL     1       5.054   5.856  19.178  0.00  0.00    +0.000 HD
BRANCH  18  25
ATOM     22  C   UNL     1       6.856   6.034  15.632  0.00  0.00    +0.000 C 
ATOM     23  C   UNL     1       5.422   5.513  15.467  0.00  0.00    +0.000 C 
ATOM     24  C   UNL     1       5.150   4.224  16.246  0.00  0.00    +0.000 C 
ATOM     25  C   UNL     1       5.522   4.343  17.732  0.00  0.00    +0.000 C 
ATOM     26  C   UNL     1       6.992   4.763  17.849  0.00  0.00    +0.000 C 
ATOM     27  C   UNL     1       7.286   6.069  17.104  0.00  0.00    +0.000 C 
BRANCH  22  29
ATOM     28  C   UNL     1       7.429   4.996  13.562  0.00  0.00    +0.000 C 
ATOM     29  O   UNL     1       7.791   5.215  14.922  0.00  0.00    +0.000 OA
ENDBRANCH  22  29
ENDBRANCH  18  25
ENDBRANCH   1  19
BRANCH   6  30
ATOM     30  N   UNL     1       2.492   5.076  21.227  0.00  0.00    +0.000 N 
ATOM     31  H   UNL     1       2.099   5.183  22.165  0.00  0.00    +0.000 HD
BRANCH  30  32
ATOM     32  C   UNL     1       2.066   3.778  20.637  0.00  0.00    +0.000 C 
ATOM     33  C   UNL     1       2.405   2.641  21.595  0.00  0.00    +0.000 C 
ATOM     34  C   UNL     1       0.574   3.813  20.321  0.00  0.00    +0.000 C 
ENDBRANCH  30  32
ENDBRANCH   6  30
TORSDOF 7
ENDMDL
MODEL 4
REMARK VINA RESULT:      -7.0      3.069      5.080
REMARK  Name = 
REMARK  10 active torsions:
REMARK  status: ('A' for Active; 'I' for Inactive)
REMARK    1  A    between atoms: C_1  and  O_2
REMARK    2  A    between atoms: O_2  and  C_3
REMARK    3  A    between atoms: C_6  and  N_7
REMARK    4  A    between atoms: C_8  and  C_10
REMARK    5  A    between atoms: C_13  and  N_14
REMARK    6  A    between atoms: C_19  and  C_20
REMARK    7  A    between atoms: C_26  and  N_27
REMARK    8  A    between atoms: N_27  and  C_28
REMARK    9  A    between atoms: C_28  and  C_29
REMARK   10  A    between atoms: C_28  and  C_30
REMARK                            x       y       z     vdW  Elec       q    Type
REMARK                         _______ _______ _______ _____ _____    ______ ____
ROOT
ATOM      1  C   UNL     1       0.393  10.646  19.095  0.00  0.00    +0.000 A 
ATOM      2  C   UNL     1       1.317  10.287  18.103  0.00  0.00    +0.000 A 
ATOM      3  N   UNL     1       2.053   9.132  18.085  0.00  0.00    +0.000 NA
ATOM      4  C   UNL     1       1.889   8.304  19.139  0.00  0.00    +0.000 A 
ATOM      5  C   UNL     1       1.079   8.663  20.219  0.00  0.00    +0.000 A 
ATOM      6  C   UNL     1       0.201   9.751  20.157  0.00  0.00    +0.000 A 
ENDROOT
BRANCH   4   7
ATOM      7  N   UNL     1       2.491   6.999  19.216  0.00  0.00    +0.000 N 
ATOM      8  N   UNL     1       2.015   6.108  20.159  0.00  0.00    +0.000 NA
ATOM      9  C   UNL     1       2.943   5.161  20.219  0.00  0.00    +0.000 A 
ATOM     10  C   UNL     1       3.983   5.374  19.307  0.00  0.00    +0.000 A 
ATOM     11  C   UNL     1       5.226   4.788  19.041  0.00  0.00    +0.000 A 
ATOM     12  C   UNL     1       5.865   5.176  17.866  0.00  0.00    +0.000 A 
ATOM     13  C   UNL     1       5.228   6.081  17.024  0.00  0.00    +0.000 A 
ATOM     14  N   UNL     1       4.101   6.784  17.319  0.00  0.00    +0.000 NA
ATOM     15  C   UNL     1       3.540   6.421  18.497  0.00  0.00    +0.000 A 
BRANCH  12  16
ATOM     16  C   UNL     1       7.164   4.674  17.552  0.00  0.00    +0.000 C 
ATOM     17  N   UNL     1       8.199   4.245  17.249  0.00  0.00    +0.000 NA
ENDBRANCH  12  16
ENDBRANCH   4   7
BRANCH   1  19
ATOM     18  N   UNL     1      -0.009  12.974  19.728  0.00  0.00    +0.000 N 
ATOM     19  C   UNL     1      -0.358  11.928  18.905  0.00  0.00    +0.000 C 
ATOM     20  O   UNL     1      -1.226  12.007  18.056  0.00  0.00    +0.000 OA
ATOM     21  H   UNL     1       0.780  12.839  20.342  0.00  0.00    +0.000 HD
BRANCH  18  25
ATOM     22  C   UNL     1       1.407  16.154  20.883  0.00  0.00    +0.000 C 
ATOM     23  C   UNL     1       0.515  15.260  21.755  0.00  0.00    +0.000 C 
ATOM     24  C   UNL     1      -0.821  14.907  21.097  0.00  0.00    +0.000 C 
ATOM     25  C   UNL     1      -0.646  14.304  19.694  0.00  0.00    +0.000 C 
ATOM     26  C   UNL     1       0.160  15.278  18.827  0.00  0.00    +0.000 C 
ATOM     27  C   UNL     1       1.518  15.625  19.447  0.00  0.00    +0.000 C 
BRANCH  22  29
ATOM     28  C   UNL     1       1.779  18.396  20.160  0.00  0.00    +0.000 C 
ATOM     29  O   UNL     1       0.898  17.491  20.819  0.00  0.00    +0.000 OA
ENDBRANCH  22  29
ENDBRANCH  18  25
ENDBRANCH   1  19
BRANCH   6  30
ATOM     30  N   UNL     1      -0.761   9.928  21.181  0.00  0.00    +0.000 N 
ATOM     31  H   UNL     1      -1.206   9.034  21.395  0.00  0.00    +0.000 HD
BRANCH  30  32
ATOM     32  C   UNL     1      -0.253  10.561  22.427  0.00  0.00    +0.000 C 
ATOM     33  C   UNL     1      -1.240  11.619  22.907  0.00  0.00    +0.000 C 
ATOM     34  C   UNL     1      -0.018   9.496  23.495  0.00  0.00    +0.000 C 
ENDBRANCH  30  32
ENDBRANCH   6  30
TORSDOF 7
ENDMDL
MODEL 5
REMARK VINA RESULT:      -7.0      4.047     10.609
REMARK  Name = 
REMARK  10 active torsions:
REMARK  status: ('A' for Active; 'I' for Inactive)
REMARK    1  A    between atoms: C_1  and  O_2
REMARK    2  A    between atoms: O_2  and  C_3
REMARK    3  A    between atoms: C_6  and  N_7
REMARK    4  A    between atoms: C_8  and  C_10
REMARK    5  A    between atoms: C_13  and  N_14
REMARK    6  A    between atoms: C_19  and  C_20
REMARK    7  A    between atoms: C_26  and  N_27
REMARK    8  A    between atoms: N_27  and  C_28
REMARK    9  A    between atoms: C_28  and  C_29
REMARK   10  A    between atoms: C_28  and  C_30
REMARK                            x       y       z     vdW  Elec       q    Type
REMARK                         _______ _______ _______ _____ _____    ______ ____
ROOT
ATOM      1  C   UNL     1       2.574   6.356  19.046  0.00  0.00    +0.000 A 
ATOM      2  C   UNL     1       2.287   7.568  18.403  0.00  0.00    +0.000 A 
ATOM      3  N   UNL     1       1.655   8.640  18.977  0.00  0.00    +0.000 NA
ATOM      4  C   UNL     1       1.248   8.478  20.254  0.00  0.00    +0.000 A 
ATOM      5  C   UNL     1       1.392   7.252  20.907  0.00  0.00    +0.000 A 
ATOM      6  C   UNL     1       2.187   6.224  20.387  0.00  0.00    +0.000 A 
ENDROOT
BRANCH   4   7
ATOM      7  N   UNL     1       0.681   9.541  21.040  0.00  0.00    +0.000 N 
ATOM      8  N   UNL     1       0.958   9.583  22.394  0.00  0.00    +0.000 NA
ATOM      9  C   UNL     1       0.067  10.432  22.891  0.00  0.00    +0.000 A 
ATOM     10  C   UNL     1      -0.749  10.990  21.899  0.00  0.00    +0.000 A 
ATOM     11  C   UNL     1      -1.884  11.807  21.871  0.00  0.00    +0.000 A 
ATOM     12  C   UNL     1      -2.256  12.324  20.633  0.00  0.00    +0.000 A 
ATOM     13  C   UNL     1      -1.472  12.032  19.522  0.00  0.00    +0.000 A 
ATOM     14  N   UNL     1      -0.460  11.124  19.481  0.00  0.00    +0.000 NA
ATOM     15  C   UNL     1      -0.165  10.597  20.693  0.00  0.00    +0.000 A 
BRANCH  12  16
ATOM     16  C   UNL     1      -3.438  13.116  20.507  0.00  0.00    +0.000 C 
ATOM     17  N   UNL     1      -4.369  13.794  20.373  0.00  0.00    +0.000 NA
ENDBRANCH  12  16
ENDBRANCH   4   7
BRANCH   1  19
ATOM     18  N   UNL     1       4.693   5.300  18.429  0.00  0.00    +0.000 N 
ATOM     19  C   UNL     1       3.327   5.323  18.264  0.00  0.00    +0.000 C 
ATOM     20  O   UNL     1       2.730   4.558  17.530  0.00  0.00    +0.000 OA
ATOM     21  H   UNL     1       5.087   5.916  19.123  0.00  0.00    +0.000 HD
BRANCH  18  25
ATOM     22  C   UNL     1       6.846   6.007  15.546  0.00  0.00    +0.000 C 
ATOM     23  C   UNL     1       5.431   5.429  15.421  0.00  0.00    +0.000 C 
ATOM     24  C   UNL     1       5.214   4.166  16.259  0.00  0.00    +0.000 C 
ATOM     25  C   UNL     1       5.597   4.364  17.734  0.00  0.00    +0.000 C 
ATOM     26  C   UNL     1       7.051   4.841  17.815  0.00  0.00    +0.000 C 
ATOM     27  C   UNL     1       7.290   6.123  17.010  0.00  0.00    +0.000 C 
BRANCH  22  29
ATOM     28  C   UNL     1       7.597   5.140  13.454  0.00  0.00    +0.000 C 
ATOM     29  O   UNL     1       7.804   5.191  14.862  0.00  0.00    +0.000 OA
ENDBRANCH  22  29
ENDBRANCH  18  25
ENDBRANCH   1  19
BRANCH   6  30
ATOM     30  N   UNL     1       2.488   5.101  21.194  0.00  0.00    +0.000 N 
ATOM     31  H   UNL     1       2.087   5.228  22.125  0.00  0.00    +0.000 HD
BRANCH  30  32
ATOM     32  C   UNL     1       2.078   3.786  20.633  0.00  0.00    +0.000 C 
ATOM     33  C   UNL     1       2.440   2.673  21.609  0.00  0.00    +0.000 C 
ATOM     34  C   UNL     1       0.583   3.792  20.328  0.00  0.00    +0.000 C 
ENDBRANCH  30  32
ENDBRANCH   6  30
TORSDOF 7
ENDMDL
MODEL 6
REMARK VINA RESULT:      -6.9      2.941      8.993
REMARK  Name = 
REMARK  10 active torsions:
REMARK  status: ('A' for Active; 'I' for Inactive)
REMARK    1  A    between atoms: C_1  and  O_2
REMARK    2  A    between atoms: O_2  and  C_3
REMARK    3  A    between atoms: C_6  and  N_7
REMARK    4  A    between atoms: C_8  and  C_10
REMARK    5  A    between atoms: C_13  and  N_14
REMARK    6  A    between atoms: C_19  and  C_20
REMARK    7  A    between atoms: C_26  and  N_27
REMARK    8  A    between atoms: N_27  and  C_28
REMARK    9  A    between atoms: C_28  and  C_29
REMARK   10  A    between atoms: C_28  and  C_30
REMARK                            x       y       z     vdW  Elec       q    Type
REMARK                         _______ _______ _______ _____ _____    ______ ____
ROOT
ATOM      1  C   UNL     1       0.898   9.651  19.175  0.00  0.00    +0.000 A 
ATOM      2  C   UNL     1       1.274   9.861  20.509  0.00  0.00    +0.000 A 
ATOM      3  N   UNL     1       0.601  10.644  21.409  0.00  0.00    +0.000 NA
ATOM      4  C   UNL     1      -0.489  11.289  20.940  0.00  0.00    +0.000 A 
ATOM      5  C   UNL     1      -0.842  11.220  19.591  0.00  0.00    +0.000 A 
ATOM      6  C   UNL     1      -0.263  10.290  18.720  0.00  0.00    +0.000 A 
ENDROOT
BRANCH   4   7
ATOM      7  N   UNL     1      -1.375  12.050  21.780  0.00  0.00    +0.000 N 
ATOM      8  N   UNL     1      -0.929  12.437  23.031  0.00  0.00    +0.000 NA
ATOM      9  C   UNL     1      -2.028  12.810  23.675  0.00  0.00    +0.000 A 
ATOM     10  C   UNL     1      -3.171  12.733  22.869  0.00  0.00    +0.000 A 
ATOM     11  C   UNL     1      -4.549  12.876  23.061  0.00  0.00    +0.000 A 
ATOM     12  C   UNL     1      -5.340  12.941  21.917  0.00  0.00    +0.000 A 
ATOM     13  C   UNL     1      -4.721  12.895  20.672  0.00  0.00    +0.000 A 
ATOM     14  N   UNL     1      -3.412  12.603  20.446  0.00  0.00    +0.000 NA
ATOM     15  C   UNL     1      -2.686  12.488  21.583  0.00  0.00    +0.000 A 
BRANCH  12  16
ATOM     16  C   UNL     1      -6.761  13.024  22.025  0.00  0.00    +0.000 C 
ATOM     17  N   UNL     1      -7.910  13.138  22.142  0.00  0.00    +0.000 NA
ENDBRANCH  12  16
ENDBRANCH   4   7
BRANCH   1  19
ATOM     18  N   UNL     1       2.095   7.528  18.968  0.00  0.00    +0.000 N 
ATOM     19  C   UNL     1       1.735   8.710  18.363  0.00  0.00    +0.000 C 
ATOM     20  O   UNL     1       2.061   9.006  17.229  0.00  0.00    +0.000 OA
ATOM     21  H   UNL     1       1.706   7.334  19.878  0.00  0.00    +0.000 HD
BRANCH  18  25
ATOM     22  C   UNL     1       2.267   3.969  19.835  0.00  0.00    +0.000 C 
ATOM     23  C   UNL     1       3.233   5.021  20.394  0.00  0.00    +0.000 C 
ATOM     24  C   UNL     1       3.923   5.851  19.308  0.00  0.00    +0.000 C 
ATOM     25  C   UNL     1       2.925   6.488  18.329  0.00  0.00    +0.000 C 
ATOM     26  C   UNL     1       2.051   5.388  17.716  0.00  0.00    +0.000 C 
ATOM     27  C   UNL     1       1.323   4.560  18.780  0.00  0.00    +0.000 C 
BRANCH  22  29
ATOM     28  C   UNL     1       2.122   1.835  18.776  0.00  0.00    +0.000 C 
ATOM     29  O   UNL     1       2.976   2.883  19.226  0.00  0.00    +0.000 OA
ENDBRANCH  22  29
ENDBRANCH  18  25
ENDBRANCH   1  19
BRANCH   6  30
ATOM     30  N   UNL     1      -0.820  10.103  17.431  0.00  0.00    +0.000 N 
ATOM     31  H   UNL     1      -0.743   9.120  17.162  0.00  0.00    +0.000 HD
BRANCH  30  32
ATOM     32  C   UNL     1      -2.223  10.571  17.270  0.00  0.00    +0.000 C 
ATOM     33  C   UNL     1      -2.485  10.920  15.809  0.00  0.00    +0.000 C 
ATOM     34  C   UNL     1      -3.190   9.502  17.769  0.00  0.00    +0.000 C 
ENDBRANCH  30  32
ENDBRANCH   6  30
TORSDOF 7
ENDMDL
MODEL 7
REMARK VINA RESULT:      -6.9      1.621      2.226
REMARK  Name = 
REMARK  10 active torsions:
REMARK  status: ('A' for Active; 'I' for Inactive)
REMARK    1  A    between atoms: C_1  and  O_2
REMARK    2  A    between atoms: O_2  and  C_3
REMARK    3  A    between atoms: C_6  and  N_7
REMARK    4  A    between atoms: C_8  and  C_10
REMARK    5  A    between atoms: C_13  and  N_14
REMARK    6  A    between atoms: C_19  and  C_20
REMARK    7  A    between atoms: C_26  and  N_27
REMARK    8  A    between atoms: N_27  and  C_28
REMARK    9  A    between atoms: C_28  and  C_29
REMARK   10  A    between atoms: C_28  and  C_30
REMARK                            x       y       z     vdW  Elec       q    Type
REMARK                         _______ _______ _______ _____ _____    ______ ____
ROOT
ATOM      1  C   UNL     1      -1.228  11.651  19.761  0.00  0.00    +0.000 A 
ATOM      2  C   UNL     1      -0.354  11.118  20.719  0.00  0.00    +0.000 A 
ATOM      3  N   UNL     1       0.596  10.162  20.481  0.00  0.00    +0.000 NA
ATOM      4  C   UNL     1       0.652   9.677  19.221  0.00  0.00    +0.000 A 
ATOM      5  C   UNL     1      -0.273  10.076  18.254  0.00  0.00    +0.000 A 
ATOM      6  C   UNL     1      -1.123  11.171  18.448  0.00  0.00    +0.000 A 
ENDROOT
BRANCH   4   7
ATOM      7  N   UNL     1       1.667   8.761  18.775  0.00  0.00    +0.000 N 
ATOM      8  N   UNL     1       2.416   9.096  17.662  0.00  0.00    +0.000 NA
ATOM      9  C   UNL     1       3.008   7.963  17.305  0.00  0.00    +0.000 A 
ATOM     10  C   UNL     1       2.716   6.910  18.180  0.00  0.00    +0.000 A 
ATOM     11  C   UNL     1       2.956   5.532  18.212  0.00  0.00    +0.000 A 
ATOM     12  C   UNL     1       2.680   4.874  19.408  0.00  0.00    +0.000 A 
ATOM     13  C   UNL     1       2.223   5.617  20.491  0.00  0.00    +0.000 A 
ATOM     14  N   UNL     1       1.834   6.920  20.454  0.00  0.00    +0.000 NA
ATOM     15  C   UNL     1       2.062   7.511  19.257  0.00  0.00    +0.000 A 
BRANCH  12  16
ATOM     16  C   UNL     1       2.838   3.459  19.506  0.00  0.00    +0.000 C 
ATOM     17  N   UNL     1       3.016   2.313  19.561  0.00  0.00    +0.000 NA
ENDBRANCH  12  16
ENDBRANCH   4   7
BRANCH   1  19
ATOM     18  N   UNL     1      -1.625  13.718  21.008  0.00  0.00    +0.000 N 
ATOM     19  C   UNL     1      -2.160  12.736  20.206  0.00  0.00    +0.000 C 
ATOM     20  O   UNL     1      -3.326  12.720  19.858  0.00  0.00    +0.000 OA
ATOM     21  H   UNL     1      -0.630  13.692  21.172  0.00  0.00    +0.000 HD
BRANCH  18  25
ATOM     22  C   UNL     1      -1.416  15.140  24.382  0.00  0.00    +0.000 C 
ATOM     23  C   UNL     1      -2.439  14.070  23.978  0.00  0.00    +0.000 C 
ATOM     24  C   UNL     1      -3.266  14.454  22.749  0.00  0.00    +0.000 C 
ATOM     25  C   UNL     1      -2.392  14.855  21.550  0.00  0.00    +0.000 C 
ATOM     26  C   UNL     1      -1.459  15.997  21.971  0.00  0.00    +0.000 C 
ATOM     27  C   UNL     1      -0.595  15.629  23.181  0.00  0.00    +0.000 C 
BRANCH  22  29
ATOM     28  C   UNL     1      -1.449  16.706  26.182  0.00  0.00    +0.000 C 
ATOM     29  O   UNL     1      -2.057  16.279  24.966  0.00  0.00    +0.000 OA
ENDBRANCH  22  29
ENDBRANCH  18  25
ENDBRANCH   1  19
BRANCH   6  30
ATOM     30  N   UNL     1      -1.868  11.676  17.355  0.00  0.00    +0.000 N 
ATOM     31  H   UNL     1      -1.239  11.898  16.581  0.00  0.00    +0.000 HD
BRANCH  30  32
ATOM     32  C   UNL     1      -2.975  10.802  16.883  0.00  0.00    +0.000 C 
ATOM     33  C   UNL     1      -4.291  11.571  16.921  0.00  0.00    +0.000 C 
ATOM     34  C   UNL     1      -2.673  10.290  15.478  0.00  0.00    +0.000 C 
ENDBRANCH  30  32
ENDBRANCH   6  30
TORSDOF 7
ENDMDL
MODEL 8
REMARK VINA RESULT:      -6.8      0.965      1.334
REMARK  Name = 
REMARK  10 active torsions:
REMARK  status: ('A' for Active; 'I' for Inactive)
REMARK    1  A    between atoms: C_1  and  O_2
REMARK    2  A    between atoms: O_2  and  C_3
REMARK    3  A    between atoms: C_6  and  N_7
REMARK    4  A    between atoms: C_8  and  C_10
REMARK    5  A    between atoms: C_13  and  N_14
REMARK    6  A    between atoms: C_19  and  C_20
REMARK    7  A    between atoms: C_26  and  N_27
REMARK    8  A    between atoms: N_27  and  C_28
REMARK    9  A    between atoms: C_28  and  C_29
REMARK   10  A    between atoms: C_28  and  C_30
REMARK                            x       y       z     vdW  Elec       q    Type
REMARK                         _______ _______ _______ _____ _____    ______ ____
ROOT
ATOM      1  C   UNL     1      -0.558  11.762  19.547  0.00  0.00    +0.000 A 
ATOM      2  C   UNL     1       0.362  11.330  20.514  0.00  0.00    +0.000 A 
ATOM      3  N   UNL     1       1.193  10.249  20.390  0.00  0.00    +0.000 NA
ATOM      4  C   UNL     1       1.073   9.530  19.252  0.00  0.00    +0.000 A 
ATOM      5  C   UNL     1       0.090   9.836  18.308  0.00  0.00    +0.000 A 
ATOM      6  C   UNL     1      -0.634  11.032  18.353  0.00  0.00    +0.000 A 
ENDROOT
BRANCH   4   7
ATOM      7  N   UNL     1       1.951   8.443  18.912  0.00  0.00    +0.000 N 
ATOM      8  N   UNL     1       2.848   8.619  17.875  0.00  0.00    +0.000 NA
ATOM      9  C   UNL     1       3.265   7.393  17.583  0.00  0.00    +0.000 A 
ATOM     10  C   UNL     1       2.712   6.426  18.432  0.00  0.00    +0.000 A 
ATOM     11  C   UNL     1       2.704   5.028  18.495  0.00  0.00    +0.000 A 
ATOM     12  C   UNL     1       2.205   4.455  19.662  0.00  0.00    +0.000 A 
ATOM     13  C   UNL     1       1.784   5.290  20.692  0.00  0.00    +0.000 A 
ATOM     14  N   UNL     1       1.633   6.639  20.609  0.00  0.00    +0.000 NA
ATOM     15  C   UNL     1       2.074   7.155  19.437  0.00  0.00    +0.000 A 
BRANCH  12  16
ATOM     16  C   UNL     1       2.104   3.036  19.783  0.00  0.00    +0.000 C 
ATOM     17  N   UNL     1       1.991   1.882  19.835  0.00  0.00    +0.000 NA
ENDBRANCH  12  16
ENDBRANCH   4   7
BRANCH   1  19
ATOM     18  N   UNL     1      -2.350  12.890  20.772  0.00  0.00    +0.000 N 
ATOM     19  C   UNL     1      -1.338  13.005  19.846  0.00  0.00    +0.000 C 
ATOM     20  O   UNL     1      -1.064  14.048  19.282  0.00  0.00    +0.000 OA
ATOM     21  H   UNL     1      -2.445  12.006  21.248  0.00  0.00    +0.000 HD
BRANCH  18  25
ATOM     22  C   UNL     1      -3.240  13.883  24.188  0.00  0.00    +0.000 C 
ATOM     23  C   UNL     1      -4.095  12.937  23.333  0.00  0.00    +0.000 C 
ATOM     24  C   UNL     1      -4.459  13.517  21.964  0.00  0.00    +0.000 C 
ATOM     25  C   UNL     1      -3.229  14.002  21.182  0.00  0.00    +0.000 C 
ATOM     26  C   UNL     1      -2.464  15.023  22.032  0.00  0.00    +0.000 C 
ATOM     27  C   UNL     1      -2.058  14.458  23.397  0.00  0.00    +0.000 C 
BRANCH  22  29
ATOM     28  C   UNL     1      -3.232  15.968  25.347  0.00  0.00    +0.000 C 
ATOM     29  O   UNL     1      -4.015  14.984  24.678  0.00  0.00    +0.000 OA
ENDBRANCH  22  29
ENDBRANCH  18  25
ENDBRANCH   1  19
BRANCH   6  30
ATOM     30  N   UNL     1      -1.444  11.397  17.249  0.00  0.00    +0.000 N 
ATOM     31  H   UNL     1      -0.856  11.555  16.428  0.00  0.00    +0.000 HD
BRANCH  30  32
ATOM     32  C   UNL     1      -2.540  10.447  16.922  0.00  0.00    +0.000 C 
ATOM     33  C   UNL     1      -3.792  10.813  17.712  0.00  0.00    +0.000 C 
ATOM     34  C   UNL     1      -2.808  10.456  15.420  0.00  0.00    +0.000 C 
ENDBRANCH  30  32
ENDBRANCH   6  30
TORSDOF 7
ENDMDL
MODEL 9
REMARK VINA RESULT:      -6.8      3.258      9.361
REMARK  Name = 
REMARK  10 active torsions:
REMARK  status: ('A' for Active; 'I' for Inactive)
REMARK    1  A    between atoms: C_1  and  O_2
REMARK    2  A    between atoms: O_2  and  C_3
REMARK    3  A    between atoms: C_6  and  N_7
REMARK    4  A    between atoms: C_8  and  C_10
REMARK    5  A    between atoms: C_13  and  N_14
REMARK    6  A    between atoms: C_19  and  C_20
REMARK    7  A    between atoms: C_26  and  N_27
REMARK    8  A    between atoms: N_27  and  C_28
REMARK    9  A    between atoms: C_28  and  C_29
REMARK   10  A    between atoms: C_28  and  C_30
REMARK                            x       y       z     vdW  Elec       q    Type
REMARK                         _______ _______ _______ _____ _____    ______ ____
ROOT
ATOM      1  C   UNL     1       1.228   9.279  19.442  0.00  0.00    +0.000 A 
ATOM      2  C   UNL     1       1.601   9.255  20.793  0.00  0.00    +0.000 A 
ATOM      3  N   UNL     1       1.033  10.009  21.786  0.00  0.00    +0.000 NA
ATOM      4  C   UNL     1       0.065  10.869  21.402  0.00  0.00    +0.000 A 
ATOM      5  C   UNL     1      -0.264  11.030  20.054  0.00  0.00    +0.000 A 
ATOM      6  C   UNL     1       0.188  10.143  19.071  0.00  0.00    +0.000 A 
ENDROOT
BRANCH   4   7
ATOM      7  N   UNL     1      -0.714  11.643  22.332  0.00  0.00    +0.000 N 
ATOM      8  N   UNL     1      -1.687  10.999  23.074  0.00  0.00    +0.000 NA
ATOM      9  C   UNL     1      -2.433  11.979  23.568  0.00  0.00    +0.000 A 
ATOM     10  C   UNL     1      -1.948  13.246  23.218  0.00  0.00    +0.000 A 
ATOM     11  C   UNL     1      -2.393  14.566  23.352  0.00  0.00    +0.000 A 
ATOM     12  C   UNL     1      -1.475  15.570  23.058  0.00  0.00    +0.000 A 
ATOM     13  C   UNL     1      -0.183  15.211  22.688  0.00  0.00    +0.000 A 
ATOM     14  N   UNL     1       0.238  13.950  22.399  0.00  0.00    +0.000 NA
ATOM     15  C   UNL     1      -0.700  13.005  22.641  0.00  0.00    +0.000 A 
BRANCH  12  16
ATOM     16  C   UNL     1      -1.866  16.943  23.108  0.00  0.00    +0.000 C 
ATOM     17  N   UNL     1      -2.153  18.067  23.104  0.00  0.00    +0.000 NA
ENDBRANCH  12  16
ENDBRANCH   4   7
BRANCH   1  19
ATOM     18  N   UNL     1       2.081   7.039  18.957  0.00  0.00    +0.000 N 
ATOM     19  C   UNL     1       1.931   8.333  18.517  0.00  0.00    +0.000 C 
ATOM     20  O   UNL     1       2.335   8.723  17.437  0.00  0.00    +0.000 OA
ATOM     21  H   UNL     1       1.637   6.789  19.827  0.00  0.00    +0.000 HD
BRANCH  18  25
ATOM     22  C   UNL     1       2.596   3.549  19.961  0.00  0.00    +0.000 C 
ATOM     23  C   UNL     1       3.635   4.656  20.188  0.00  0.00    +0.000 C 
ATOM     24  C   UNL     1       3.993   5.424  18.914  0.00  0.00    +0.000 C 
ATOM     25  C   UNL     1       2.755   5.975  18.189  0.00  0.00    +0.000 C 
ATOM     26  C   UNL     1       1.794   4.819  17.889  0.00  0.00    +0.000 C 
ATOM     27  C   UNL     1       1.393   4.051  19.153  0.00  0.00    +0.000 C 
BRANCH  22  29
ATOM     28  C   UNL     1       4.422   2.024  19.780  0.00  0.00    +0.000 C 
ATOM     29  O   UNL     1       3.164   2.440  19.256  0.00  0.00    +0.000 OA
ENDBRANCH  22  29
ENDBRANCH  18  25
ENDBRANCH   1  19
BRANCH   6  30
ATOM     30  N   UNL     1      -0.361  10.210  17.767  0.00  0.00    +0.000 N 
ATOM     31  H   UNL     1      -0.092   9.380  17.236  0.00  0.00    +0.000 HD
BRANCH  30  32
ATOM     32  C   UNL     1      -1.835  10.405  17.707  0.00  0.00    +0.000 C 
ATOM     33  C   UNL     1      -2.155  11.892  17.617  0.00  0.00    +0.000 C 
ATOM     34  C   UNL     1      -2.414   9.639  16.521  0.00  0.00    +0.000 C 
ENDBRANCH  30  32
ENDBRANCH   6  30
TORSDOF 7
ENDMDL
