MODEL 1
REMARK VINA RESULT:      -8.2      0.000      0.000
REMARK  Name = 
REMARK  2 active torsions:
REMARK  status: ('A' for Active; 'I' for Inactive)
REMARK    1  A    between atoms: N_5  and  C_6
REMARK    2  A    between atoms: C_14  and  C_15
REMARK                            x       y       z     vdW  Elec       q    Type
REMARK                         _______ _______ _______ _____ _____    ______ ____
ROOT
ATOM      1  O   UNL     1       0.109   8.761  20.945  0.00  0.00    +0.000 OA
ATOM      2  C   UNL     1       0.947   8.517  20.080  0.00  0.00    +0.000 A 
ATOM      3  N   UNL     1       1.435   7.259  19.877  0.00  0.00    +0.000 NA
ATOM      4  C   UNL     1       2.279   6.946  18.920  0.00  0.00    +0.000 A 
ATOM      5  N   UNL     1       2.722   5.589  18.706  0.00  0.00    +0.000 N 
ATOM      6  C   UNL     1       3.714   5.337  17.654  0.00  0.00    +0.000 A 
ATOM      7  C   UNL     1       4.220   4.080  17.211  0.00  0.00    +0.000 A 
ATOM      8  C   UNL     1       5.281   4.047  16.251  0.00  0.00    +0.000 A 
ATOM      9  C   UNL     1       5.784   5.184  15.641  0.00  0.00    +0.000 A 
ATOM     10  C   UNL     1       5.232   6.398  15.972  0.00  0.00    +0.000 A 
ATOM     11  C   UNL     1       4.223   6.480  16.951  0.00  0.00    +0.000 A 
ATOM     12  C   UNL     1       3.701   7.827  17.166  0.00  0.00    +0.000 A 
ATOM     13  C   UNL     1       2.769   8.062  18.081  0.00  0.00    +0.000 A 
ATOM     14  C   UNL     1       2.261   9.427  18.270  0.00  0.00    +0.000 A 
ATOM     15  O   UNL     1       2.603  10.383  17.581  0.00  0.00    +0.000 OA
ATOM     16  N   UNL     1       1.373   9.541  19.289  0.00  0.00    +0.000 N 
ATOM     17  H   UNL     1       0.971  10.447  19.471  0.00  0.00    +0.000 HD
ENDROOT
BRANCH   5  18
ATOM     18  C   UNL     1       2.241   4.630  19.677  0.00  0.00    +0.000 A 
ATOM     19  C   UNL     1       2.905   4.459  20.915  0.00  0.00    +0.000 A 
ATOM     20  C   UNL     1       2.513   3.485  21.840  0.00  0.00    +0.000 A 
ATOM     21  C   UNL     1       1.386   2.714  21.593  0.00  0.00    +0.000 A 
ATOM     22  C   UNL     1       0.696   2.873  20.394  0.00  0.00    +0.000 A 
ATOM     23  C   UNL     1       1.156   3.779  19.432  0.00  0.00    +0.000 A 
ATOM     24  F   UNL     1       0.515   3.828  18.255  0.00  0.00    +0.000 F 
ENDBRANCH   5  18
BRANCH   7  25
ATOM     25  C   UNL     1       3.773   2.676  17.570  0.00  0.00    +0.000 C 
ATOM     26  F   UNL     1       2.490   2.354  17.277  0.00  0.00    +0.000 F 
ATOM     27  F   UNL     1       4.505   1.734  16.890  0.00  0.00    +0.000 F 
ATOM     28  F   UNL     1       3.981   2.373  18.883  0.00  0.00    +0.000 F 
ENDBRANCH   7  25
TORSDOF 2
ENDMDL
MODEL 2
REMARK VINA RESULT:      -7.4      7.434     10.475
REMARK  Name = 
REMARK  2 active torsions:
REMARK  status: ('A' for Active; 'I' for Inactive)
REMARK    1  A    between atoms: N_5  and  C_6
REMARK    2  A    between atoms: C_14  and  C_15
REMARK                            x       y       z     vdW  Elec       q    Type
REMARK                         _______ _______ _______ _____ _____    ______ ____
ROOT
ATOM      1  O   UNL     1      -3.533  10.950  15.430  0.00  0.00    +0.000 OA
ATOM      2  C   UNL     1      -3.978  11.283  16.525  0.00  0.00    +0.000 A 
ATOM      3  N   UNL     1      -3.167  11.508  17.600  0.00  0.00    +0.000 NA
ATOM      4  C   UNL     1      -3.598  11.930  18.767  0.00  0.00    +0.000 A 
ATOM      5  N   UNL     1      -2.696  12.211  19.858  0.00  0.00    +0.000 N 
ATOM      6  C   UNL     1      -3.266  12.619  21.148  0.00  0.00    +0.000 A 
ATOM      7  C   UNL     1      -2.570  13.031  22.322  0.00  0.00    +0.000 A 
ATOM      8  C   UNL     1      -3.304  13.272  23.527  0.00  0.00    +0.000 A 
ATOM      9  C   UNL     1      -4.686  13.227  23.592  0.00  0.00    +0.000 A 
ATOM     10  C   UNL     1      -5.383  12.941  22.442  0.00  0.00    +0.000 A 
ATOM     11  C   UNL     1      -4.697  12.645  21.248  0.00  0.00    +0.000 A 
ATOM     12  C   UNL     1      -5.566  12.405  20.098  0.00  0.00    +0.000 A 
ATOM     13  C   UNL     1      -5.062  12.083  18.915  0.00  0.00    +0.000 A 
ATOM     14  C   UNL     1      -5.962  11.853  17.777  0.00  0.00    +0.000 A 
ATOM     15  O   UNL     1      -7.179  12.002  17.831  0.00  0.00    +0.000 OA
ATOM     16  N   UNL     1      -5.323  11.453  16.649  0.00  0.00    +0.000 N 
ATOM     17  H   UNL     1      -5.876  11.289  15.822  0.00  0.00    +0.000 HD
ENDROOT
BRANCH   5  18
ATOM     18  C   UNL     1      -1.306  11.906  19.594  0.00  0.00    +0.000 A 
ATOM     19  C   UNL     1      -0.759  10.653  19.960  0.00  0.00    +0.000 A 
ATOM     20  C   UNL     1       0.598  10.358  19.791  0.00  0.00    +0.000 A 
ATOM     21  C   UNL     1       1.431  11.276  19.167  0.00  0.00    +0.000 A 
ATOM     22  C   UNL     1       0.919  12.510  18.775  0.00  0.00    +0.000 A 
ATOM     23  C   UNL     1      -0.415  12.835  19.040  0.00  0.00    +0.000 A 
ATOM     24  F   UNL     1      -0.838  14.070  18.730  0.00  0.00    +0.000 F 
ENDBRANCH   5  18
BRANCH   7  25
ATOM     25  C   UNL     1      -1.095  13.318  22.521  0.00  0.00    +0.000 C 
ATOM     26  F   UNL     1      -0.530  14.209  21.671  0.00  0.00    +0.000 F 
ATOM     27  F   UNL     1      -0.859  13.861  23.761  0.00  0.00    +0.000 F 
ATOM     28  F   UNL     1      -0.327  12.191  22.501  0.00  0.00    +0.000 F 
ENDBRANCH   7  25
TORSDOF 2
ENDMDL
MODEL 3
REMARK VINA RESULT:      -7.3      7.071     10.382
REMARK  Name = 
REMARK  2 active torsions:
REMARK  status: ('A' for Active; 'I' for Inactive)
REMARK    1  A    between atoms: N_5  and  C_6
REMARK    2  A    between atoms: C_14  and  C_15
REMARK                            x       y       z     vdW  Elec       q    Type
REMARK                         _______ _______ _______ _____ _____    ______ ____
ROOT
ATOM      1  O   UNL     1      -3.248  10.932  15.326  0.00  0.00    +0.000 OA
ATOM      2  C   UNL     1      -3.705  11.238  16.425  0.00  0.00    +0.000 A 
ATOM      3  N   UNL     1      -2.903  11.566  17.480  0.00  0.00    +0.000 NA
ATOM      4  C   UNL     1      -3.354  11.963  18.648  0.00  0.00    +0.000 A 
ATOM      5  N   UNL     1      -2.466  12.356  19.715  0.00  0.00    +0.000 N 
ATOM      6  C   UNL     1      -3.052  12.728  21.009  0.00  0.00    +0.000 A 
ATOM      7  C   UNL     1      -2.381  13.231  22.162  0.00  0.00    +0.000 A 
ATOM      8  C   UNL     1      -3.113  13.418  23.377  0.00  0.00    +0.000 A 
ATOM      9  C   UNL     1      -4.482  13.233  23.470  0.00  0.00    +0.000 A 
ATOM     10  C   UNL     1      -5.166  12.855  22.339  0.00  0.00    +0.000 A 
ATOM     11  C   UNL     1      -4.476  12.608  21.137  0.00  0.00    +0.000 A 
ATOM     12  C   UNL     1      -5.336  12.259  20.010  0.00  0.00    +0.000 A 
ATOM     13  C   UNL     1      -4.823  11.968  18.822  0.00  0.00    +0.000 A 
ATOM     14  C   UNL     1      -5.715  11.624  17.707  0.00  0.00    +0.000 A 
ATOM     15  O   UNL     1      -6.940  11.648  17.782  0.00  0.00    +0.000 OA
ATOM     16  N   UNL     1      -5.059  11.271  16.573  0.00  0.00    +0.000 N 
ATOM     17  H   UNL     1      -5.606  11.035  15.760  0.00  0.00    +0.000 HD
ENDROOT
BRANCH   5  18
ATOM     18  C   UNL     1      -1.057  12.191  19.429  0.00  0.00    +0.000 A 
ATOM     19  C   UNL     1      -0.329  13.207  18.766  0.00  0.00    +0.000 A 
ATOM     20  C   UNL     1       1.012  13.045  18.404  0.00  0.00    +0.000 A 
ATOM     21  C   UNL     1       1.693  11.893  18.777  0.00  0.00    +0.000 A 
ATOM     22  C   UNL     1       1.011  10.882  19.449  0.00  0.00    +0.000 A 
ATOM     23  C   UNL     1      -0.356  11.012  19.716  0.00  0.00    +0.000 A 
ATOM     24  F   UNL     1      -0.989   9.973  20.281  0.00  0.00    +0.000 F 
ENDBRANCH   5  18
BRANCH   7  25
ATOM     25  C   UNL     1      -0.939  13.673  22.327  0.00  0.00    +0.000 C 
ATOM     26  F   UNL     1      -0.502  14.641  21.487  0.00  0.00    +0.000 F 
ATOM     27  F   UNL     1      -0.724  14.206  23.574  0.00  0.00    +0.000 F 
ATOM     28  F   UNL     1      -0.055  12.637  22.252  0.00  0.00    +0.000 F 
ENDBRANCH   7  25
TORSDOF 2
ENDMDL
MODEL 4
REMARK VINA RESULT:      -7.3      7.268      9.840
REMARK  Name = 
REMARK  2 active torsions:
REMARK  status: ('A' for Active; 'I' for Inactive)
REMARK    1  A    between atoms: N_5  and  C_6
REMARK    2  A    between atoms: C_14  and  C_15
REMARK                            x       y       z     vdW  Elec       q    Type
REMARK                         _______ _______ _______ _____ _____    ______ ____
ROOT
ATOM      1  O   UNL     1      -0.846  14.100  24.071  0.00  0.00    +0.000 OA
ATOM      2  C   UNL     1      -1.825  13.835  23.378  0.00  0.00    +0.000 A 
ATOM      3  N   UNL     1      -1.706  13.324  22.118  0.00  0.00    +0.000 NA
ATOM      4  C   UNL     1      -2.726  12.964  21.373  0.00  0.00    +0.000 A 
ATOM      5  N   UNL     1      -2.549  12.372  20.069  0.00  0.00    +0.000 N 
ATOM      6  C   UNL     1      -3.744  12.057  19.278  0.00  0.00    +0.000 A 
ATOM      7  C   UNL     1      -3.810  11.393  18.018  0.00  0.00    +0.000 A 
ATOM      8  C   UNL     1      -5.067  11.288  17.342  0.00  0.00    +0.000 A 
ATOM      9  C   UNL     1      -6.262  11.712  17.899  0.00  0.00    +0.000 A 
ATOM     10  C   UNL     1      -6.235  12.254  19.161  0.00  0.00    +0.000 A 
ATOM     11  C   UNL     1      -5.012  12.425  19.839  0.00  0.00    +0.000 A 
ATOM     12  C   UNL     1      -5.142  12.971  21.188  0.00  0.00    +0.000 A 
ATOM     13  C   UNL     1      -4.073  13.215  21.933  0.00  0.00    +0.000 A 
ATOM     14  C   UNL     1      -4.237  13.760  23.287  0.00  0.00    +0.000 A 
ATOM     15  O   UNL     1      -5.327  13.954  23.816  0.00  0.00    +0.000 OA
ATOM     16  N   UNL     1      -3.063  14.038  23.907  0.00  0.00    +0.000 N 
ATOM     17  H   UNL     1      -3.096  14.404  24.847  0.00  0.00    +0.000 HD
ENDROOT
BRANCH   5  18
ATOM     18  C   UNL     1      -1.176  12.295  19.616  0.00  0.00    +0.000 A 
ATOM     19  C   UNL     1      -0.614  13.330  18.833  0.00  0.00    +0.000 A 
ATOM     20  C   UNL     1       0.682  13.248  18.313  0.00  0.00    +0.000 A 
ATOM     21  C   UNL     1       1.488  12.166  18.638  0.00  0.00    +0.000 A 
ATOM     22  C   UNL     1       0.973  11.139  19.426  0.00  0.00    +0.000 A 
ATOM     23  C   UNL     1      -0.358  11.183  19.856  0.00  0.00    +0.000 A 
ATOM     24  F   UNL     1      -0.838  10.128  20.531  0.00  0.00    +0.000 F 
ENDBRANCH   5  18
BRANCH   7  25
ATOM     25  C   UNL     1      -2.716  10.693  17.235  0.00  0.00    +0.000 C 
ATOM     26  F   UNL     1      -1.995   9.759  17.900  0.00  0.00    +0.000 F 
ATOM     27  F   UNL     1      -3.235  10.000  16.169  0.00  0.00    +0.000 F 
ATOM     28  F   UNL     1      -1.832  11.562  16.666  0.00  0.00    +0.000 F 
ENDBRANCH   7  25
TORSDOF 2
ENDMDL
MODEL 5
REMARK VINA RESULT:      -7.1      4.319      6.816
REMARK  Name = 
REMARK  2 active torsions:
REMARK  status: ('A' for Active; 'I' for Inactive)
REMARK    1  A    between atoms: N_5  and  C_6
REMARK    2  A    between atoms: C_14  and  C_15
REMARK                            x       y       z     vdW  Elec       q    Type
REMARK                         _______ _______ _______ _____ _____    ______ ____
ROOT
ATOM      1  O   UNL     1       8.938   5.917  12.969  0.00  0.00    +0.000 OA
ATOM      2  C   UNL     1       7.955   5.319  13.400  0.00  0.00    +0.000 A 
ATOM      3  N   UNL     1       7.465   5.537  14.655  0.00  0.00    +0.000 NA
ATOM      4  C   UNL     1       6.378   4.970  15.126  0.00  0.00    +0.000 A 
ATOM      5  N   UNL     1       5.864   5.276  16.439  0.00  0.00    +0.000 N 
ATOM      6  C   UNL     1       4.679   4.551  16.912  0.00  0.00    +0.000 A 
ATOM      7  C   UNL     1       3.953   4.753  18.122  0.00  0.00    +0.000 A 
ATOM      8  C   UNL     1       2.892   3.856  18.465  0.00  0.00    +0.000 A 
ATOM      9  C   UNL     1       2.454   2.847  17.624  0.00  0.00    +0.000 A 
ATOM     10  C   UNL     1       3.068   2.706  16.402  0.00  0.00    +0.000 A 
ATOM     11  C   UNL     1       4.151   3.533  16.049  0.00  0.00    +0.000 A 
ATOM     12  C   UNL     1       4.673   3.299  14.705  0.00  0.00    +0.000 A 
ATOM     13  C   UNL     1       5.714   3.982  14.246  0.00  0.00    +0.000 A 
ATOM     14  C   UNL     1       6.213   3.727  12.889  0.00  0.00    +0.000 A 
ATOM     15  O   UNL     1       5.682   2.948  12.103  0.00  0.00    +0.000 OA
ATOM     16  N   UNL     1       7.328   4.433  12.577  0.00  0.00    +0.000 N 
ATOM     17  H   UNL     1       7.721   4.320  11.655  0.00  0.00    +0.000 HD
ENDROOT
BRANCH   5  18
ATOM     18  C   UNL     1       6.685   6.176  17.220  0.00  0.00    +0.000 A 
ATOM     19  C   UNL     1       6.655   7.571  16.984  0.00  0.00    +0.000 A 
ATOM     20  C   UNL     1       7.494   8.459  17.666  0.00  0.00    +0.000 A 
ATOM     21  C   UNL     1       8.326   7.986  18.672  0.00  0.00    +0.000 A 
ATOM     22  C   UNL     1       8.363   6.621  18.945  0.00  0.00    +0.000 A 
ATOM     23  C   UNL     1       7.595   5.730  18.188  0.00  0.00    +0.000 A 
ATOM     24  F   UNL     1       7.736   4.417  18.424  0.00  0.00    +0.000 F 
ENDBRANCH   5  18
BRANCH   7  25
ATOM     25  C   UNL     1       4.089   5.850  19.160  0.00  0.00    +0.000 C 
ATOM     26  F   UNL     1       3.994   7.125  18.712  0.00  0.00    +0.000 F 
ATOM     27  F   UNL     1       3.096   5.765  20.104  0.00  0.00    +0.000 F 
ATOM     28  F   UNL     1       5.242   5.756  19.883  0.00  0.00    +0.000 F 
ENDBRANCH   7  25
TORSDOF 2
ENDMDL
MODEL 6
REMARK VINA RESULT:      -7.1      0.720      1.360
REMARK  Name = 
REMARK  2 active torsions:
REMARK  status: ('A' for Active; 'I' for Inactive)
REMARK    1  A    between atoms: N_5  and  C_6
REMARK    2  A    between atoms: C_14  and  C_15
REMARK                            x       y       z     vdW  Elec       q    Type
REMARK                         _______ _______ _______ _____ _____    ______ ____
ROOT
ATOM      1  O   UNL     1       0.129   8.230  21.582  0.00  0.00    +0.000 OA
ATOM      2  C   UNL     1       0.899   8.114  20.633  0.00  0.00    +0.000 A 
ATOM      3  N   UNL     1       1.447   6.913  20.284  0.00  0.00    +0.000 NA
ATOM      4  C   UNL     1       2.220   6.736  19.237  0.00  0.00    +0.000 A 
ATOM      5  N   UNL     1       2.728   5.435  18.874  0.00  0.00    +0.000 N 
ATOM      6  C   UNL     1       3.635   5.336  17.724  0.00  0.00    +0.000 A 
ATOM      7  C   UNL     1       4.179   4.156  17.137  0.00  0.00    +0.000 A 
ATOM      8  C   UNL     1       5.150   4.274  16.092  0.00  0.00    +0.000 A 
ATOM      9  C   UNL     1       5.522   5.487  15.539  0.00  0.00    +0.000 A 
ATOM     10  C   UNL     1       4.925   6.630  16.016  0.00  0.00    +0.000 A 
ATOM     11  C   UNL     1       4.005   6.564  17.080  0.00  0.00    +0.000 A 
ATOM     12  C   UNL     1       3.419   7.850  17.450  0.00  0.00    +0.000 A 
ATOM     13  C   UNL     1       2.561   7.946  18.456  0.00  0.00    +0.000 A 
ATOM     14  C   UNL     1       1.986   9.253  18.801  0.00  0.00    +0.000 A 
ATOM     15  O   UNL     1       2.202  10.281  18.168  0.00  0.00    +0.000 OA
ATOM     16  N   UNL     1       1.187   9.224  19.897  0.00  0.00    +0.000 N 
ATOM     17  H   UNL     1       0.745  10.082  20.187  0.00  0.00    +0.000 HD
ENDROOT
BRANCH   5  18
ATOM     18  C   UNL     1       2.398   4.372  19.799  0.00  0.00    +0.000 A 
ATOM     19  C   UNL     1       1.077   3.872  19.884  0.00  0.00    +0.000 A 
ATOM     20  C   UNL     1       0.709   2.902  20.822  0.00  0.00    +0.000 A 
ATOM     21  C   UNL     1       1.674   2.336  21.644  0.00  0.00    +0.000 A 
ATOM     22  C   UNL     1       2.989   2.790  21.570  0.00  0.00    +0.000 A 
ATOM     23  C   UNL     1       3.325   3.832  20.699  0.00  0.00    +0.000 A 
ATOM     24  F   UNL     1       4.582   4.299  20.732  0.00  0.00    +0.000 F 
ENDBRANCH   5  18
BRANCH   7  25
ATOM     25  C   UNL     1       3.856   2.701  17.414  0.00  0.00    +0.000 C 
ATOM     26  F   UNL     1       2.549   2.349  17.367  0.00  0.00    +0.000 F 
ATOM     27  F   UNL     1       4.445   1.878  16.486  0.00  0.00    +0.000 F 
ATOM     28  F   UNL     1       4.354   2.265  18.607  0.00  0.00    +0.000 F 
ENDBRANCH   7  25
TORSDOF 2
ENDMDL
MODEL 7
REMARK VINA RESULT:      -7.0      7.095      9.919
REMARK  Name = 
REMARK  2 active torsions:
REMARK  status: ('A' for Active; 'I' for Inactive)
REMARK    1  A    between atoms: N_5  and  C_6
REMARK    2  A    between atoms: C_14  and  C_15
REMARK                            x       y       z     vdW  Elec       q    Type
REMARK                         _______ _______ _______ _____ _____    ______ ____
ROOT
ATOM      1  O   UNL     1      -0.836  14.038  24.015  0.00  0.00    +0.000 OA
ATOM      2  C   UNL     1      -1.820  13.852  23.303  0.00  0.00    +0.000 A 
ATOM      3  N   UNL     1      -1.724  13.281  22.067  0.00  0.00    +0.000 NA
ATOM      4  C   UNL     1      -2.757  13.004  21.305  0.00  0.00    +0.000 A 
ATOM      5  N   UNL     1      -2.611  12.344  20.030  0.00  0.00    +0.000 N 
ATOM      6  C   UNL     1      -3.812  12.128  19.214  0.00  0.00    +0.000 A 
ATOM      7  C   UNL     1      -3.917  11.425  17.979  0.00  0.00    +0.000 A 
ATOM      8  C   UNL     1      -5.160  11.430  17.269  0.00  0.00    +0.000 A 
ATOM      9  C   UNL     1      -6.315  12.003  17.772  0.00  0.00    +0.000 A 
ATOM     10  C   UNL     1      -6.262  12.590  19.014  0.00  0.00    +0.000 A 
ATOM     11  C   UNL     1      -5.047  12.654  19.722  0.00  0.00    +0.000 A 
ATOM     12  C   UNL     1      -5.152  13.265  21.045  0.00  0.00    +0.000 A 
ATOM     13  C   UNL     1      -4.083  13.422  21.813  0.00  0.00    +0.000 A 
ATOM     14  C   UNL     1      -4.222  14.036  23.140  0.00  0.00    +0.000 A 
ATOM     15  O   UNL     1      -5.298  14.367  23.627  0.00  0.00    +0.000 OA
ATOM     16  N   UNL     1      -3.042  14.210  23.786  0.00  0.00    +0.000 N 
ATOM     17  H   UNL     1      -3.060  14.614  24.709  0.00  0.00    +0.000 HD
ENDROOT
BRANCH   5  18
ATOM     18  C   UNL     1      -1.244  12.100  19.623  0.00  0.00    +0.000 A 
ATOM     19  C   UNL     1      -0.593  10.891  19.963  0.00  0.00    +0.000 A 
ATOM     20  C   UNL     1       0.752  10.658  19.654  0.00  0.00    +0.000 A 
ATOM     21  C   UNL     1       1.461  11.594  18.913  0.00  0.00    +0.000 A 
ATOM     22  C   UNL     1       0.843  12.786  18.543  0.00  0.00    +0.000 A 
ATOM     23  C   UNL     1      -0.471  13.052  18.945  0.00  0.00    +0.000 A 
ATOM     24  F   UNL     1      -0.991  14.252  18.646  0.00  0.00    +0.000 F 
ENDBRANCH   5  18
BRANCH   7  25
ATOM     25  C   UNL     1      -2.885  10.580  17.256  0.00  0.00    +0.000 C 
ATOM     26  F   UNL     1      -2.327   9.568  17.963  0.00  0.00    +0.000 F 
ATOM     27  F   UNL     1      -3.437   9.948  16.169  0.00  0.00    +0.000 F 
ATOM     28  F   UNL     1      -1.868  11.320  16.729  0.00  0.00    +0.000 F 
ENDBRANCH   7  25
TORSDOF 2
ENDMDL
MODEL 8
REMARK VINA RESULT:      -7.0      6.929      9.509
REMARK  Name = 
REMARK  2 active torsions:
REMARK  status: ('A' for Active; 'I' for Inactive)
REMARK    1  A    between atoms: N_5  and  C_6
REMARK    2  A    between atoms: C_14  and  C_15
REMARK                            x       y       z     vdW  Elec       q    Type
REMARK                         _______ _______ _______ _____ _____    ______ ____
ROOT
ATOM      1  O   UNL     1      -6.345  12.624  16.821  0.00  0.00    +0.000 OA
ATOM      2  C   UNL     1      -5.265  12.073  17.018  0.00  0.00    +0.000 A 
ATOM      3  N   UNL     1      -4.563  12.245  18.176  0.00  0.00    +0.000 NA
ATOM      4  C   UNL     1      -3.441  11.622  18.453  0.00  0.00    +0.000 A 
ATOM      5  N   UNL     1      -2.764  11.791  19.716  0.00  0.00    +0.000 N 
ATOM      6  C   UNL     1      -1.483  11.105  19.919  0.00  0.00    +0.000 A 
ATOM      7  C   UNL     1      -0.694  11.056  21.106  0.00  0.00    +0.000 A 
ATOM      8  C   UNL     1       0.595  10.435  21.068  0.00  0.00    +0.000 A 
ATOM      9  C   UNL     1       1.086   9.777  19.954  0.00  0.00    +0.000 A 
ATOM     10  C   UNL     1       0.293   9.717  18.832  0.00  0.00    +0.000 A 
ATOM     11  C   UNL     1      -0.960  10.361  18.809  0.00  0.00    +0.000 A 
ATOM     12  C   UNL     1      -1.710  10.174  17.570  0.00  0.00    +0.000 A 
ATOM     13  C   UNL     1      -2.892  10.749  17.391  0.00  0.00    +0.000 A 
ATOM     14  C   UNL     1      -3.623  10.538  16.136  0.00  0.00    +0.000 A 
ATOM     15  O   UNL     1      -3.235   9.797  15.238  0.00  0.00    +0.000 OA
ATOM     16  N   UNL     1      -4.777  11.246  16.052  0.00  0.00    +0.000 N 
ATOM     17  H   UNL     1      -5.341  11.141  15.223  0.00  0.00    +0.000 HD
ENDROOT
BRANCH   5  18
ATOM     18  C   UNL     1      -3.365  12.762  20.605  0.00  0.00    +0.000 A 
ATOM     19  C   UNL     1      -4.590  12.485  21.256  0.00  0.00    +0.000 A 
ATOM     20  C   UNL     1      -5.237  13.433  22.057  0.00  0.00    +0.000 A 
ATOM     21  C   UNL     1      -4.630  14.657  22.304  0.00  0.00    +0.000 A 
ATOM     22  C   UNL     1      -3.413  14.953  21.695  0.00  0.00    +0.000 A 
ATOM     23  C   UNL     1      -2.825  14.038  20.815  0.00  0.00    +0.000 A 
ATOM     24  F   UNL     1      -1.702  14.406  20.180  0.00  0.00    +0.000 F 
ENDBRANCH   5  18
BRANCH   7  25
ATOM     25  C   UNL     1      -1.020  11.540  22.505  0.00  0.00    +0.000 C 
ATOM     26  F   UNL     1      -2.325  11.514  22.867  0.00  0.00    +0.000 F 
ATOM     27  F   UNL     1      -0.406  10.761  23.455  0.00  0.00    +0.000 F 
ATOM     28  F   UNL     1      -0.552  12.797  22.754  0.00  0.00    +0.000 F 
ENDBRANCH   7  25
TORSDOF 2
ENDMDL
MODEL 9
REMARK VINA RESULT:      -7.0      1.254      4.322
REMARK  Name = 
REMARK  2 active torsions:
REMARK  status: ('A' for Active; 'I' for Inactive)
REMARK    1  A    between atoms: N_5  and  C_6
REMARK    2  A    between atoms: C_14  and  C_15
REMARK                            x       y       z     vdW  Elec       q    Type
REMARK                         _______ _______ _______ _____ _____    ______ ____
ROOT
ATOM      1  O   UNL     1       2.617   9.992  17.451  0.00  0.00    +0.000 OA
ATOM      2  C   UNL     1       2.313   9.085  18.222  0.00  0.00    +0.000 A 
ATOM      3  N   UNL     1       2.870   7.842  18.137  0.00  0.00    +0.000 NA
ATOM      4  C   UNL     1       2.622   6.868  18.982  0.00  0.00    +0.000 A 
ATOM      5  N   UNL     1       3.280   5.587  18.887  0.00  0.00    +0.000 N 
ATOM      6  C   UNL     1       2.900   4.535  19.836  0.00  0.00    +0.000 A 
ATOM      7  C   UNL     1       3.476   3.239  19.984  0.00  0.00    +0.000 A 
ATOM      8  C   UNL     1       2.880   2.303  20.888  0.00  0.00    +0.000 A 
ATOM      9  C   UNL     1       1.819   2.624  21.718  0.00  0.00    +0.000 A 
ATOM     10  C   UNL     1       1.320   3.904  21.670  0.00  0.00    +0.000 A 
ATOM     11  C   UNL     1       1.842   4.840  20.757  0.00  0.00    +0.000 A 
ATOM     12  C   UNL     1       1.246   6.170  20.851  0.00  0.00    +0.000 A 
ATOM     13  C   UNL     1       1.615   7.145  20.031  0.00  0.00    +0.000 A 
ATOM     14  C   UNL     1       1.000   8.472  20.154  0.00  0.00    +0.000 A 
ATOM     15  O   UNL     1       0.189   8.770  21.026  0.00  0.00    +0.000 OA
ATOM     16  N   UNL     1       1.409   9.352  19.205  0.00  0.00    +0.000 N 
ATOM     17  H   UNL     1       1.039  10.289  19.234  0.00  0.00    +0.000 HD
ENDROOT
BRANCH   5  18
ATOM     18  C   UNL     1       4.154   5.435  17.743  0.00  0.00    +0.000 A 
ATOM     19  C   UNL     1       5.331   6.210  17.624  0.00  0.00    +0.000 A 
ATOM     20  C   UNL     1       6.153   6.143  16.493  0.00  0.00    +0.000 A 
ATOM     21  C   UNL     1       5.869   5.230  15.487  0.00  0.00    +0.000 A 
ATOM     22  C   UNL     1       4.729   4.436  15.584  0.00  0.00    +0.000 A 
ATOM     23  C   UNL     1       3.860   4.583  16.670  0.00  0.00    +0.000 A 
ATOM     24  F   UNL     1       2.727   3.864  16.673  0.00  0.00    +0.000 F 
ENDBRANCH   5  18
BRANCH   7  25
ATOM     25  C   UNL     1       4.717   2.653  19.340  0.00  0.00    +0.000 C 
ATOM     26  F   UNL     1       5.773   3.488  19.188  0.00  0.00    +0.000 F 
ATOM     27  F   UNL     1       5.227   1.623  20.093  0.00  0.00    +0.000 F 
ATOM     28  F   UNL     1       4.467   2.084  18.126  0.00  0.00    +0.000 F 
ENDBRANCH   7  25
TORSDOF 2
ENDMDL
