MODEL 1
REMARK VINA RESULT:      -8.9      0.000      0.000
REMARK  Name = 
REMARK  10 active torsions:
REMARK  status: ('A' for Active; 'I' for Inactive)
REMARK    1  A    between atoms: C_1  and  C_2
REMARK    2  A    between atoms: C_2  and  C_3
REMARK    3  A    between atoms: C_2  and  C_4
REMARK    4  A    between atoms: C_4  and  C_5
REMARK    5  A    between atoms: C_5  and  N_6
REMARK    6  A    between atoms: C_5  and  C_22
REMARK    7  A    between atoms: C_7  and  C_9
REMARK    8  A    between atoms: C_12  and  N_13
REMARK    9  A    between atoms: N_16  and  C_17
REMARK   10  A    between atoms: C_26  and  C_27
REMARK                            x       y       z     vdW  Elec       q    Type
REMARK                         _______ _______ _______ _____ _____    ______ ____
ROOT
ATOM      1  C   UNL     1       2.414   4.910  19.282  0.00  0.00    +0.000 C 
ENDROOT
BRANCH   1   2
ATOM      2  C   UNL     1       2.780   4.395  17.854  0.00  0.00    +0.000 C 
ATOM      3  O   UNL     1       1.917   4.069  17.037  0.00  0.00    +0.000 OA
ATOM      4  N   UNL     1       4.127   4.356  17.518  0.00  0.00    +0.000 N 
ATOM      5  C   UNL     1       4.600   3.827  16.242  0.00  0.00    +0.000 C 
ATOM      6  C   UNL     1       6.134   3.980  16.263  0.00  0.00    +0.000 C 
ATOM      7  C   UNL     1       6.448   4.682  17.606  0.00  0.00    +0.000 C 
ATOM      8  O   UNL     1       7.386   5.757  17.508  0.00  0.00    +0.000 OA
ATOM      9  C   UNL     1       6.662   7.002  17.379  0.00  0.00    +0.000 C 
ATOM     10  C   UNL     1       5.224   6.571  17.412  0.00  0.00    +0.000 C 
ATOM     11  O   UNL     1       4.303   7.200  16.918  0.00  0.00    +0.000 OA
ATOM     12  C   UNL     1       5.116   5.229  18.088  0.00  0.00    +0.000 C 
BRANCH   6  13
ATOM     13  C   UNL     1       6.634   4.678  15.013  0.00  0.00    +0.000 C 
ATOM     14  F   UNL     1       6.830   3.756  14.036  0.00  0.00    +0.000 F 
ATOM     15  F   UNL     1       5.704   5.541  14.539  0.00  0.00    +0.000 F 
ENDBRANCH   6  13
ENDBRANCH   1   2
BRANCH   1  16
ATOM     16  N   UNL     1       2.210   6.360  19.206  0.00  0.00    +0.000 N 
ATOM     17  C   UNL     1       1.721   7.136  20.241  0.00  0.00    +0.000 C 
ATOM     18  O   UNL     1       1.495   6.708  21.367  0.00  0.00    +0.000 OA
ATOM     19  H   UNL     1       2.186   6.745  18.274  0.00  0.00    +0.000 HD
BRANCH  17  20
ATOM     20  C   UNL     1       1.495   8.570  19.891  0.00  0.00    +0.000 A 
ATOM     21  C   UNL     1       0.980   9.478  20.822  0.00  0.00    +0.000 A 
ATOM     22  C   UNL     1       0.768  10.813  20.440  0.00  0.00    +0.000 A 
ATOM     23  C   UNL     1       1.092  11.277  19.158  0.00  0.00    +0.000 A 
ATOM     24  C   UNL     1       1.616  10.353  18.257  0.00  0.00    +0.000 A 
ATOM     25  C   UNL     1       1.816   9.031  18.622  0.00  0.00    +0.000 A 
BRANCH  23  26
ATOM     26  N   UNL     1       0.964  12.603  18.801  0.00  0.00    +0.000 N 
ATOM     27  C   UNL     1       2.090  13.361  18.228  0.00  0.00    +0.000 C 
ATOM     28  C   UNL     1       2.057  14.801  18.779  0.00  0.00    +0.000 C 
ATOM     29  N   UNL     1       0.764  15.469  18.516  0.00  0.00    +0.000 NA
ATOM     30  C   UNL     1       0.766  16.816  19.077  0.00  0.00    +0.000 C 
ATOM     31  C   UNL     1      -0.333  14.660  19.101  0.00  0.00    +0.000 C 
ATOM     32  C   UNL     1      -0.351  13.212  18.566  0.00  0.00    +0.000 C 
ENDBRANCH  23  26
ENDBRANCH  17  20
ENDBRANCH   1  16
BRANCH   1  33
ATOM     33  C   UNL     1       1.121   4.277  19.817  0.00  0.00    +0.000 C 
BRANCH  33  35
ATOM     34  C   UNL     1       1.693   1.774  19.662  0.00  0.00    +0.000 C 
ATOM     35  C   UNL     1       1.251   2.932  20.557  0.00  0.00    +0.000 C 
ATOM     36  C   UNL     1       2.256   3.111  21.700  0.00  0.00    +0.000 C 
ENDBRANCH  33  35
ENDBRANCH   1  33
TORSDOF 7
ENDMDL
MODEL 2
REMARK VINA RESULT:      -8.8      1.046      1.528
REMARK  Name = 
REMARK  10 active torsions:
REMARK  status: ('A' for Active; 'I' for Inactive)
REMARK    1  A    between atoms: C_1  and  C_2
REMARK    2  A    between atoms: C_2  and  C_3
REMARK    3  A    between atoms: C_2  and  C_4
REMARK    4  A    between atoms: C_4  and  C_5
REMARK    5  A    between atoms: C_5  and  N_6
REMARK    6  A    between atoms: C_5  and  C_22
REMARK    7  A    between atoms: C_7  and  C_9
REMARK    8  A    between atoms: C_12  and  N_13
REMARK    9  A    between atoms: N_16  and  C_17
REMARK   10  A    between atoms: C_26  and  C_27
REMARK                            x       y       z     vdW  Elec       q    Type
REMARK                         _______ _______ _______ _____ _____    ______ ____
ROOT
ATOM      1  C   UNL     1       2.860   4.220  18.962  0.00  0.00    +0.000 C 
ENDROOT
BRANCH   1   2
ATOM      2  C   UNL     1       3.213   3.918  17.471  0.00  0.00    +0.000 C 
ATOM      3  O   UNL     1       2.352   3.607  16.646  0.00  0.00    +0.000 OA
ATOM      4  N   UNL     1       4.543   4.054  17.093  0.00  0.00    +0.000 N 
ATOM      5  C   UNL     1       5.010   3.730  15.748  0.00  0.00    +0.000 C 
ATOM      6  C   UNL     1       6.522   4.033  15.742  0.00  0.00    +0.000 C 
ATOM      7  C   UNL     1       6.824   4.598  17.150  0.00  0.00    +0.000 C 
ATOM      8  O   UNL     1       7.650   5.766  17.157  0.00  0.00    +0.000 OA
ATOM      9  C   UNL     1       6.805   6.938  17.203  0.00  0.00    +0.000 C 
ATOM     10  C   UNL     1       5.417   6.365  17.226  0.00  0.00    +0.000 C 
ATOM     11  O   UNL     1       4.421   6.952  16.841  0.00  0.00    +0.000 OA
ATOM     12  C   UNL     1       5.467   4.948  17.735  0.00  0.00    +0.000 C 
BRANCH   6  13
ATOM     13  C   UNL     1       6.901   4.921  14.572  0.00  0.00    +0.000 C 
ATOM     14  F   UNL     1       7.112   4.149  13.476  0.00  0.00    +0.000 F 
ATOM     15  F   UNL     1       5.884   5.758  14.255  0.00  0.00    +0.000 F 
ENDBRANCH   6  13
ENDBRANCH   1   2
BRANCH   1  16
ATOM     16  N   UNL     1       2.465   5.628  19.061  0.00  0.00    +0.000 N 
ATOM     17  C   UNL     1       2.208   6.286  20.250  0.00  0.00    +0.000 C 
ATOM     18  O   UNL     1       2.376   5.788  21.356  0.00  0.00    +0.000 OA
ATOM     19  H   UNL     1       2.122   6.043  18.207  0.00  0.00    +0.000 HD
BRANCH  17  20
ATOM     20  C   UNL     1       1.715   7.687  20.092  0.00  0.00    +0.000 A 
ATOM     21  C   UNL     1       1.793   8.357  18.866  0.00  0.00    +0.000 A 
ATOM     22  C   UNL     1       1.332   9.681  18.772  0.00  0.00    +0.000 A 
ATOM     23  C   UNL     1       0.759  10.345  19.865  0.00  0.00    +0.000 A 
ATOM     24  C   UNL     1       0.683   9.648  21.069  0.00  0.00    +0.000 A 
ATOM     25  C   UNL     1       1.147   8.347  21.173  0.00  0.00    +0.000 A 
BRANCH  23  26
ATOM     26  N   UNL     1       0.231  11.614  19.760  0.00  0.00    +0.000 N 
ATOM     27  C   UNL     1      -0.725  11.968  18.696  0.00  0.00    +0.000 C 
ATOM     28  C   UNL     1      -0.431  13.402  18.213  0.00  0.00    +0.000 C 
ATOM     29  N   UNL     1      -0.465  14.382  19.321  0.00  0.00    +0.000 NA
ATOM     30  C   UNL     1      -0.155  15.719  18.826  0.00  0.00    +0.000 C 
ATOM     31  C   UNL     1       0.504  13.973  20.366  0.00  0.00    +0.000 C 
ATOM     32  C   UNL     1       0.238  12.546  20.895  0.00  0.00    +0.000 C 
ENDBRANCH  23  26
ENDBRANCH  17  20
ENDBRANCH   1  16
BRANCH   1  33
ATOM     33  C   UNL     1       1.690   3.364  19.468  0.00  0.00    +0.000 C 
BRANCH  33  35
ATOM     34  C   UNL     1       3.492   2.206  20.893  0.00  0.00    +0.000 C 
ATOM     35  C   UNL     1       2.007   2.307  20.543  0.00  0.00    +0.000 C 
ATOM     36  C   UNL     1       1.205   2.652  21.804  0.00  0.00    +0.000 C 
ENDBRANCH  33  35
ENDBRANCH   1  33
TORSDOF 7
ENDMDL
MODEL 3
REMARK VINA RESULT:      -8.6      1.943      2.331
REMARK  Name = 
REMARK  10 active torsions:
REMARK  status: ('A' for Active; 'I' for Inactive)
REMARK    1  A    between atoms: C_1  and  C_2
REMARK    2  A    between atoms: C_2  and  C_3
REMARK    3  A    between atoms: C_2  and  C_4
REMARK    4  A    between atoms: C_4  and  C_5
REMARK    5  A    between atoms: C_5  and  N_6
REMARK    6  A    between atoms: C_5  and  C_22
REMARK    7  A    between atoms: C_7  and  C_9
REMARK    8  A    between atoms: C_12  and  N_13
REMARK    9  A    between atoms: N_16  and  C_17
REMARK   10  A    between atoms: C_26  and  C_27
REMARK                            x       y       z     vdW  Elec       q    Type
REMARK                         _______ _______ _______ _____ _____    ______ ____
ROOT
ATOM      1  C   UNL     1       2.893   3.848  18.628  0.00  0.00    +0.000 C 
ENDROOT
BRANCH   1   2
ATOM      2  C   UNL     1       3.244   3.663  17.117  0.00  0.00    +0.000 C 
ATOM      3  O   UNL     1       2.382   3.413  16.273  0.00  0.00    +0.000 OA
ATOM      4  N   UNL     1       4.572   3.832  16.749  0.00  0.00    +0.000 N 
ATOM      5  C   UNL     1       5.038   3.614  15.382  0.00  0.00    +0.000 C 
ATOM      6  C   UNL     1       6.550   3.921  15.397  0.00  0.00    +0.000 C 
ATOM      7  C   UNL     1       6.852   4.377  16.844  0.00  0.00    +0.000 C 
ATOM      8  O   UNL     1       7.674   5.543  16.940  0.00  0.00    +0.000 OA
ATOM      9  C   UNL     1       6.826   6.706  17.076  0.00  0.00    +0.000 C 
ATOM     10  C   UNL     1       5.440   6.128  17.058  0.00  0.00    +0.000 C 
ATOM     11  O   UNL     1       4.441   6.741  16.720  0.00  0.00    +0.000 OA
ATOM     12  C   UNL     1       5.495   4.677  17.456  0.00  0.00    +0.000 C 
BRANCH   6  13
ATOM     13  C   UNL     1       6.924   4.897  14.298  0.00  0.00    +0.000 C 
ATOM     14  F   UNL     1       7.104   4.215  13.139  0.00  0.00    +0.000 F 
ATOM     15  F   UNL     1       5.916   5.773  14.070  0.00  0.00    +0.000 F 
ENDBRANCH   6  13
ENDBRANCH   1   2
BRANCH   1  16
ATOM     16  N   UNL     1       2.345   5.197  18.806  0.00  0.00    +0.000 N 
ATOM     17  C   UNL     1       2.874   6.149  19.659  0.00  0.00    +0.000 C 
ATOM     18  O   UNL     1       3.915   5.999  20.287  0.00  0.00    +0.000 OA
ATOM     19  H   UNL     1       1.398   5.326  18.482  0.00  0.00    +0.000 HD
BRANCH  17  20
ATOM     20  C   UNL     1       2.079   7.410  19.754  0.00  0.00    +0.000 A 
ATOM     21  C   UNL     1       1.996   8.305  18.682  0.00  0.00    +0.000 A 
ATOM     22  C   UNL     1       1.251   9.487  18.826  0.00  0.00    +0.000 A 
ATOM     23  C   UNL     1       0.553   9.784  20.004  0.00  0.00    +0.000 A 
ATOM     24  C   UNL     1       0.643   8.867  21.050  0.00  0.00    +0.000 A 
ATOM     25  C   UNL     1       1.387   7.705  20.921  0.00  0.00    +0.000 A 
BRANCH  23  26
ATOM     26  N   UNL     1      -0.246  10.901  20.125  0.00  0.00    +0.000 N 
ATOM     27  C   UNL     1      -0.324  11.663  21.384  0.00  0.00    +0.000 C 
ATOM     28  C   UNL     1      -1.776  12.138  21.595  0.00  0.00    +0.000 C 
ATOM     29  N   UNL     1      -2.276  12.929  20.449  0.00  0.00    +0.000 NA
ATOM     30  C   UNL     1      -3.659  13.334  20.677  0.00  0.00    +0.000 C 
ATOM     31  C   UNL     1      -2.163  12.122  19.210  0.00  0.00    +0.000 C 
ATOM     32  C   UNL     1      -0.721  11.638  18.947  0.00  0.00    +0.000 C 
ENDBRANCH  23  26
ENDBRANCH  17  20
ENDBRANCH   1  16
BRANCH   1  33
ATOM     33  C   UNL     1       1.837   2.842  19.108  0.00  0.00    +0.000 C 
BRANCH  33  35
ATOM     34  C   UNL     1       3.480   2.259  21.001  0.00  0.00    +0.000 C 
ATOM     35  C   UNL     1       2.031   2.238  20.512  0.00  0.00    +0.000 C 
ATOM     36  C   UNL     1       1.147   3.017  21.494  0.00  0.00    +0.000 C 
ENDBRANCH  33  35
ENDBRANCH   1  33
TORSDOF 7
ENDMDL
MODEL 4
REMARK VINA RESULT:      -8.5      2.266      2.866
REMARK  Name = 
REMARK  10 active torsions:
REMARK  status: ('A' for Active; 'I' for Inactive)
REMARK    1  A    between atoms: C_1  and  C_2
REMARK    2  A    between atoms: C_2  and  C_3
REMARK    3  A    between atoms: C_2  and  C_4
REMARK    4  A    between atoms: C_4  and  C_5
REMARK    5  A    between atoms: C_5  and  N_6
REMARK    6  A    between atoms: C_5  and  C_22
REMARK    7  A    between atoms: C_7  and  C_9
REMARK    8  A    between atoms: C_12  and  N_13
REMARK    9  A    between atoms: N_16  and  C_17
REMARK   10  A    between atoms: C_26  and  C_27
REMARK                            x       y       z     vdW  Elec       q    Type
REMARK                         _______ _______ _______ _____ _____    ______ ____
ROOT
ATOM      1  C   UNL     1       3.038   5.848  19.744  0.00  0.00    +0.000 C 
ENDROOT
BRANCH   1   2
ATOM      2  C   UNL     1       2.980   5.262  18.298  0.00  0.00    +0.000 C 
ATOM      3  O   UNL     1       1.939   5.252  17.639  0.00  0.00    +0.000 OA
ATOM      4  N   UNL     1       4.167   4.784  17.758  0.00  0.00    +0.000 N 
ATOM      5  C   UNL     1       4.228   4.146  16.446  0.00  0.00    +0.000 C 
ATOM      6  C   UNL     1       5.710   3.782  16.221  0.00  0.00    +0.000 C 
ATOM      7  C   UNL     1       6.448   4.320  17.469  0.00  0.00    +0.000 C 
ATOM      8  O   UNL     1       7.660   5.026  17.185  0.00  0.00    +0.000 OA
ATOM      9  C   UNL     1       7.375   6.442  17.120  0.00  0.00    +0.000 C 
ATOM     10  C   UNL     1       5.900   6.511  17.394  0.00  0.00    +0.000 C 
ATOM     11  O   UNL     1       5.172   7.417  17.025  0.00  0.00    +0.000 OA
ATOM     12  C   UNL     1       5.466   5.271  18.131  0.00  0.00    +0.000 C 
BRANCH   6  13
ATOM     13  C   UNL     1       6.205   4.292  14.881  0.00  0.00    +0.000 C 
ATOM     14  F   UNL     1       6.116   3.296  13.965  0.00  0.00    +0.000 F 
ATOM     15  F   UNL     1       5.416   5.296  14.429  0.00  0.00    +0.000 F 
ENDBRANCH   6  13
ENDBRANCH   1   2
BRANCH   1  16
ATOM     16  N   UNL     1       2.061   6.937  19.834  0.00  0.00    +0.000 N 
ATOM     17  C   UNL     1       2.120   8.104  19.094  0.00  0.00    +0.000 C 
ATOM     18  O   UNL     1       2.945   8.312  18.212  0.00  0.00    +0.000 OA
ATOM     19  H   UNL     1       1.478   6.928  20.658  0.00  0.00    +0.000 HD
BRANCH  17  20
ATOM     20  C   UNL     1       1.074   9.114  19.439  0.00  0.00    +0.000 A 
ATOM     21  C   UNL     1       0.477   9.912  18.459  0.00  0.00    +0.000 A 
ATOM     22  C   UNL     1      -0.489  10.861  18.835  0.00  0.00    +0.000 A 
ATOM     23  C   UNL     1      -0.902  11.009  20.166  0.00  0.00    +0.000 A 
ATOM     24  C   UNL     1      -0.299  10.190  21.118  0.00  0.00    +0.000 A 
ATOM     25  C   UNL     1       0.664   9.262  20.757  0.00  0.00    +0.000 A 
BRANCH  23  26
ATOM     26  N   UNL     1      -1.906  11.880  20.532  0.00  0.00    +0.000 N 
ATOM     27  C   UNL     1      -1.890  12.577  21.829  0.00  0.00    +0.000 C 
ATOM     28  C   UNL     1      -3.329  12.658  22.376  0.00  0.00    +0.000 C 
ATOM     29  N   UNL     1      -4.252  13.310  21.421  0.00  0.00    +0.000 NA
ATOM     30  C   UNL     1      -5.606  13.340  21.965  0.00  0.00    +0.000 C 
ATOM     31  C   UNL     1      -4.221  12.577  20.132  0.00  0.00    +0.000 C 
ATOM     32  C   UNL     1      -2.799  12.486  19.536  0.00  0.00    +0.000 C 
ENDBRANCH  23  26
ENDBRANCH  17  20
ENDBRANCH   1  16
BRANCH   1  33
ATOM     33  C   UNL     1       2.682   4.803  20.811  0.00  0.00    +0.000 C 
BRANCH  33  35
ATOM     34  C   UNL     1       3.656   2.456  20.411  0.00  0.00    +0.000 C 
ATOM     35  C   UNL     1       2.428   3.363  20.326  0.00  0.00    +0.000 C 
ATOM     36  C   UNL     1       1.292   2.769  21.168  0.00  0.00    +0.000 C 
ENDBRANCH  33  35
ENDBRANCH   1  33
TORSDOF 7
ENDMDL
MODEL 5
REMARK VINA RESULT:      -8.5      1.283      1.632
REMARK  Name = 
REMARK  10 active torsions:
REMARK  status: ('A' for Active; 'I' for Inactive)
REMARK    1  A    between atoms: C_1  and  C_2
REMARK    2  A    between atoms: C_2  and  C_3
REMARK    3  A    between atoms: C_2  and  C_4
REMARK    4  A    between atoms: C_4  and  C_5
REMARK    5  A    between atoms: C_5  and  N_6
REMARK    6  A    between atoms: C_5  and  C_22
REMARK    7  A    between atoms: C_7  and  C_9
REMARK    8  A    between atoms: C_12  and  N_13
REMARK    9  A    between atoms: N_16  and  C_17
REMARK   10  A    between atoms: C_26  and  C_27
REMARK                            x       y       z     vdW  Elec       q    Type
REMARK                         _______ _______ _______ _____ _____    ______ ____
ROOT
ATOM      1  C   UNL     1       2.900   4.174  18.856  0.00  0.00    +0.000 C 
ENDROOT
BRANCH   1   2
ATOM      2  C   UNL     1       3.241   3.858  17.365  0.00  0.00    +0.000 C 
ATOM      3  O   UNL     1       2.379   3.501  16.560  0.00  0.00    +0.000 OA
ATOM      4  N   UNL     1       4.559   4.036  16.964  0.00  0.00    +0.000 N 
ATOM      5  C   UNL     1       5.017   3.706  15.617  0.00  0.00    +0.000 C 
ATOM      6  C   UNL     1       6.517   4.063  15.582  0.00  0.00    +0.000 C 
ATOM      7  C   UNL     1       6.818   4.664  16.976  0.00  0.00    +0.000 C 
ATOM      8  O   UNL     1       7.601   5.862  16.949  0.00  0.00    +0.000 OA
ATOM      9  C   UNL     1       6.714   7.003  16.988  0.00  0.00    +0.000 C 
ATOM     10  C   UNL     1       5.349   6.379  17.043  0.00  0.00    +0.000 C 
ATOM     11  O   UNL     1       4.326   6.923  16.663  0.00  0.00    +0.000 OA
ATOM     12  C   UNL     1       5.458   4.975  17.576  0.00  0.00    +0.000 C 
BRANCH   6  13
ATOM     13  C   UNL     1       6.845   4.943  14.391  0.00  0.00    +0.000 C 
ATOM     14  F   UNL     1       8.192   5.077  14.293  0.00  0.00    +0.000 F 
ATOM     15  F   UNL     1       6.437   4.362  13.238  0.00  0.00    +0.000 F 
ENDBRANCH   6  13
ENDBRANCH   1   2
BRANCH   1  16
ATOM     16  N   UNL     1       2.501   5.582  18.944  0.00  0.00    +0.000 N 
ATOM     17  C   UNL     1       2.266   6.255  20.129  0.00  0.00    +0.000 C 
ATOM     18  O   UNL     1       2.459   5.772  21.239  0.00  0.00    +0.000 OA
ATOM     19  H   UNL     1       2.139   5.984  18.092  0.00  0.00    +0.000 HD
BRANCH  17  20
ATOM     20  C   UNL     1       1.764   7.652  19.963  0.00  0.00    +0.000 A 
ATOM     21  C   UNL     1       1.866   8.326  18.742  0.00  0.00    +0.000 A 
ATOM     22  C   UNL     1       1.396   9.646  18.639  0.00  0.00    +0.000 A 
ATOM     23  C   UNL     1       0.790  10.301  19.720  0.00  0.00    +0.000 A 
ATOM     24  C   UNL     1       0.689   9.600  20.920  0.00  0.00    +0.000 A 
ATOM     25  C   UNL     1       1.163   8.303  21.032  0.00  0.00    +0.000 A 
BRANCH  23  26
ATOM     26  N   UNL     1       0.252  11.566  19.605  0.00  0.00    +0.000 N 
ATOM     27  C   UNL     1       1.097  12.772  19.652  0.00  0.00    +0.000 C 
ATOM     28  C   UNL     1       0.350  13.880  20.419  0.00  0.00    +0.000 C 
ATOM     29  N   UNL     1      -0.976  14.170  19.831  0.00  0.00    +0.000 NA
ATOM     30  C   UNL     1      -1.660  15.202  20.602  0.00  0.00    +0.000 C 
ATOM     31  C   UNL     1      -1.779  12.923  19.797  0.00  0.00    +0.000 C 
ATOM     32  C   UNL     1      -1.077  11.787  19.022  0.00  0.00    +0.000 C 
ENDBRANCH  23  26
ENDBRANCH  17  20
ENDBRANCH   1  16
BRANCH   1  33
ATOM     33  C   UNL     1       1.737   3.319  19.381  0.00  0.00    +0.000 C 
BRANCH  33  35
ATOM     34  C   UNL     1       3.527   2.293  20.918  0.00  0.00    +0.000 C 
ATOM     35  C   UNL     1       2.052   2.325  20.515  0.00  0.00    +0.000 C 
ATOM     36  C   UNL     1       1.196   2.700  21.731  0.00  0.00    +0.000 C 
ENDBRANCH  33  35
ENDBRANCH   1  33
TORSDOF 7
ENDMDL
MODEL 6
REMARK VINA RESULT:      -8.5      1.438      1.727
REMARK  Name = 
REMARK  10 active torsions:
REMARK  status: ('A' for Active; 'I' for Inactive)
REMARK    1  A    between atoms: C_1  and  C_2
REMARK    2  A    between atoms: C_2  and  C_3
REMARK    3  A    between atoms: C_2  and  C_4
REMARK    4  A    between atoms: C_4  and  C_5
REMARK    5  A    between atoms: C_5  and  N_6
REMARK    6  A    between atoms: C_5  and  C_22
REMARK    7  A    between atoms: C_7  and  C_9
REMARK    8  A    between atoms: C_12  and  N_13
REMARK    9  A    between atoms: N_16  and  C_17
REMARK   10  A    between atoms: C_26  and  C_27
REMARK                            x       y       z     vdW  Elec       q    Type
REMARK                         _______ _______ _______ _____ _____    ______ ____
ROOT
ATOM      1  C   UNL     1       2.914   3.878  18.571  0.00  0.00    +0.000 C 
ENDROOT
BRANCH   1   2
ATOM      2  C   UNL     1       3.264   3.667  17.064  0.00  0.00    +0.000 C 
ATOM      3  O   UNL     1       2.407   3.369  16.230  0.00  0.00    +0.000 OA
ATOM      4  N   UNL     1       4.585   3.869  16.685  0.00  0.00    +0.000 N 
ATOM      5  C   UNL     1       5.052   3.633  15.322  0.00  0.00    +0.000 C 
ATOM      6  C   UNL     1       6.553   3.989  15.321  0.00  0.00    +0.000 C 
ATOM      7  C   UNL     1       6.846   4.489  16.756  0.00  0.00    +0.000 C 
ATOM      8  O   UNL     1       7.631   5.684  16.819  0.00  0.00    +0.000 OA
ATOM      9  C   UNL     1       6.746   6.822  16.932  0.00  0.00    +0.000 C 
ATOM     10  C   UNL     1       5.380   6.199  16.934  0.00  0.00    +0.000 C 
ATOM     11  O   UNL     1       4.360   6.771  16.586  0.00  0.00    +0.000 OA
ATOM     12  C   UNL     1       5.483   4.760  17.367  0.00  0.00    +0.000 C 
BRANCH   6  13
ATOM     13  C   UNL     1       6.890   4.949  14.197  0.00  0.00    +0.000 C 
ATOM     14  F   UNL     1       8.235   5.124  14.149  0.00  0.00    +0.000 F 
ATOM     15  F   UNL     1       6.532   4.431  12.998  0.00  0.00    +0.000 F 
ENDBRANCH   6  13
ENDBRANCH   1   2
BRANCH   1  16
ATOM     16  N   UNL     1       2.377   5.233  18.729  0.00  0.00    +0.000 N 
ATOM     17  C   UNL     1       2.905   6.189  19.578  0.00  0.00    +0.000 C 
ATOM     18  O   UNL     1       3.938   6.037  20.219  0.00  0.00    +0.000 OA
ATOM     19  H   UNL     1       1.435   5.367  18.393  0.00  0.00    +0.000 HD
BRANCH  17  20
ATOM     20  C   UNL     1       2.121   7.458  19.650  0.00  0.00    +0.000 A 
ATOM     21  C   UNL     1       1.471   7.851  20.825  0.00  0.00    +0.000 A 
ATOM     22  C   UNL     1       0.730   9.044  20.839  0.00  0.00    +0.000 A 
ATOM     23  C   UNL     1       0.651   9.879  19.716  0.00  0.00    +0.000 A 
ATOM     24  C   UNL     1       1.320   9.469  18.565  0.00  0.00    +0.000 A 
ATOM     25  C   UNL     1       2.041   8.287  18.539  0.00  0.00    +0.000 A 
BRANCH  23  26
ATOM     26  N   UNL     1      -0.006  11.092  19.745  0.00  0.00    +0.000 N 
ATOM     27  C   UNL     1      -0.716  11.614  18.566  0.00  0.00    +0.000 C 
ATOM     28  C   UNL     1      -0.514  13.141  18.493  0.00  0.00    +0.000 C 
ATOM     29  N   UNL     1      -0.948  13.821  19.732  0.00  0.00    +0.000 NA
ATOM     30  C   UNL     1      -0.714  15.258  19.632  0.00  0.00    +0.000 C 
ATOM     31  C   UNL     1      -0.213  13.250  20.887  0.00  0.00    +0.000 C 
ATOM     32  C   UNL     1      -0.400  11.722  21.011  0.00  0.00    +0.000 C 
ENDBRANCH  23  26
ENDBRANCH  17  20
ENDBRANCH   1  16
BRANCH   1  33
ATOM     33  C   UNL     1       1.850   2.887  19.066  0.00  0.00    +0.000 C 
BRANCH  33  35
ATOM     34  C   UNL     1       3.511   2.262  20.929  0.00  0.00    +0.000 C 
ATOM     35  C   UNL     1       2.053   2.281  20.468  0.00  0.00    +0.000 C 
ATOM     36  C   UNL     1       1.210   3.087  21.463  0.00  0.00    +0.000 C 
ENDBRANCH  33  35
ENDBRANCH   1  33
TORSDOF 7
ENDMDL
MODEL 7
REMARK VINA RESULT:      -8.3      2.121      2.500
REMARK  Name = 
REMARK  10 active torsions:
REMARK  status: ('A' for Active; 'I' for Inactive)
REMARK    1  A    between atoms: C_1  and  C_2
REMARK    2  A    between atoms: C_2  and  C_3
REMARK    3  A    between atoms: C_2  and  C_4
REMARK    4  A    between atoms: C_4  and  C_5
REMARK    5  A    between atoms: C_5  and  N_6
REMARK    6  A    between atoms: C_5  and  C_22
REMARK    7  A    between atoms: C_7  and  C_9
REMARK    8  A    between atoms: C_12  and  N_13
REMARK    9  A    between atoms: N_16  and  C_17
REMARK   10  A    between atoms: C_26  and  C_27
REMARK                            x       y       z     vdW  Elec       q    Type
REMARK                         _______ _______ _______ _____ _____    ______ ____
ROOT
ATOM      1  C   UNL     1       3.298   5.176  19.761  0.00  0.00    +0.000 C 
ENDROOT
BRANCH   1   2
ATOM      2  C   UNL     1       3.178   4.864  18.236  0.00  0.00    +0.000 C 
ATOM      3  O   UNL     1       2.108   4.966  17.631  0.00  0.00    +0.000 OA
ATOM      4  N   UNL     1       4.340   4.503  17.567  0.00  0.00    +0.000 N 
ATOM      5  C   UNL     1       4.344   4.117  16.159  0.00  0.00    +0.000 C 
ATOM      6  C   UNL     1       5.815   3.812  15.809  0.00  0.00    +0.000 C 
ATOM      7  C   UNL     1       6.607   4.120  17.102  0.00  0.00    +0.000 C 
ATOM      8  O   UNL     1       7.805   4.875  16.900  0.00  0.00    +0.000 OA
ATOM      9  C   UNL     1       7.516   6.277  17.108  0.00  0.00    +0.000 C 
ATOM     10  C   UNL     1       6.055   6.283  17.452  0.00  0.00    +0.000 C 
ATOM     11  O   UNL     1       5.310   7.234  17.287  0.00  0.00    +0.000 OA
ATOM     12  C   UNL     1       5.654   4.925  17.968  0.00  0.00    +0.000 C 
BRANCH   6  13
ATOM     13  C   UNL     1       6.251   4.563  14.565  0.00  0.00    +0.000 C 
ATOM     14  F   UNL     1       6.019   3.791  13.474  0.00  0.00    +0.000 F 
ATOM     15  F   UNL     1       5.513   5.687  14.399  0.00  0.00    +0.000 F 
ENDBRANCH   6  13
ENDBRANCH   1   2
BRANCH   1  16
ATOM     16  N   UNL     1       2.377   6.272  20.076  0.00  0.00    +0.000 N 
ATOM     17  C   UNL     1       2.350   7.486  19.414  0.00  0.00    +0.000 C 
ATOM     18  O   UNL     1       3.032   7.741  18.428  0.00  0.00    +0.000 OA
ATOM     19  H   UNL     1       1.931   6.217  20.980  0.00  0.00    +0.000 HD
BRANCH  17  20
ATOM     20  C   UNL     1       1.400   8.487  19.986  0.00  0.00    +0.000 A 
ATOM     21  C   UNL     1       0.901   8.362  21.286  0.00  0.00    +0.000 A 
ATOM     22  C   UNL     1      -0.005   9.319  21.773  0.00  0.00    +0.000 A 
ATOM     23  C   UNL     1      -0.399  10.423  21.006  0.00  0.00    +0.000 A 
ATOM     24  C   UNL     1       0.125  10.529  19.719  0.00  0.00    +0.000 A 
ATOM     25  C   UNL     1       1.008   9.581  19.227  0.00  0.00    +0.000 A 
BRANCH  23  26
ATOM     26  N   UNL     1      -1.224  11.410  21.505  0.00  0.00    +0.000 N 
ATOM     27  C   UNL     1      -2.168  12.137  20.640  0.00  0.00    +0.000 C 
ATOM     28  C   UNL     1      -2.217  13.615  21.079  0.00  0.00    +0.000 C 
ATOM     29  N   UNL     1      -2.567  13.760  22.509  0.00  0.00    +0.000 NA
ATOM     30  C   UNL     1      -2.574  15.169  22.889  0.00  0.00    +0.000 C 
ATOM     31  C   UNL     1      -1.595  13.001  23.331  0.00  0.00    +0.000 C 
ATOM     32  C   UNL     1      -1.524  11.508  22.938  0.00  0.00    +0.000 C 
ENDBRANCH  23  26
ENDBRANCH  17  20
ENDBRANCH   1  16
BRANCH   1  33
ATOM     33  C   UNL     1       2.917   3.972  20.634  0.00  0.00    +0.000 C 
BRANCH  33  35
ATOM     34  C   UNL     1       0.775   3.000  19.592  0.00  0.00    +0.000 C 
ATOM     35  C   UNL     1       1.415   3.676  20.806  0.00  0.00    +0.000 C 
ATOM     36  C   UNL     1       1.241   2.785  22.041  0.00  0.00    +0.000 C 
ENDBRANCH  33  35
ENDBRANCH   1  33
TORSDOF 7
ENDMDL
MODEL 8
REMARK VINA RESULT:      -8.3      0.927      1.357
REMARK  Name = 
REMARK  10 active torsions:
REMARK  status: ('A' for Active; 'I' for Inactive)
REMARK    1  A    between atoms: C_1  and  C_2
REMARK    2  A    between atoms: C_2  and  C_3
REMARK    3  A    between atoms: C_2  and  C_4
REMARK    4  A    between atoms: C_4  and  C_5
REMARK    5  A    between atoms: C_5  and  N_6
REMARK    6  A    between atoms: C_5  and  C_22
REMARK    7  A    between atoms: C_7  and  C_9
REMARK    8  A    between atoms: C_12  and  N_13
REMARK    9  A    between atoms: N_16  and  C_17
REMARK   10  A    between atoms: C_26  and  C_27
REMARK                            x       y       z     vdW  Elec       q    Type
REMARK                         _______ _______ _______ _____ _____    ______ ____
ROOT
ATOM      1  C   UNL     1       2.999   5.669  19.751  0.00  0.00    +0.000 C 
ENDROOT
BRANCH   1   2
ATOM      2  C   UNL     1       3.029   5.124  18.288  0.00  0.00    +0.000 C 
ATOM      3  O   UNL     1       2.011   5.056  17.596  0.00  0.00    +0.000 OA
ATOM      4  N   UNL     1       4.264   4.750  17.774  0.00  0.00    +0.000 N 
ATOM      5  C   UNL     1       4.412   4.158  16.447  0.00  0.00    +0.000 C 
ATOM      6  C   UNL     1       5.923   3.912  16.261  0.00  0.00    +0.000 C 
ATOM      7  C   UNL     1       6.581   4.466  17.547  0.00  0.00    +0.000 C 
ATOM      8  O   UNL     1       7.745   5.267  17.321  0.00  0.00    +0.000 OA
ATOM      9  C   UNL     1       7.357   6.659  17.286  0.00  0.00    +0.000 C 
ATOM     10  C   UNL     1       5.873   6.611  17.514  0.00  0.00    +0.000 C 
ATOM     11  O   UNL     1       5.090   7.471  17.147  0.00  0.00    +0.000 OA
ATOM     12  C   UNL     1       5.511   5.322  18.202  0.00  0.00    +0.000 C 
BRANCH   6  13
ATOM     13  C   UNL     1       6.419   4.496  14.953  0.00  0.00    +0.000 C 
ATOM     14  F   UNL     1       6.411   3.530  14.001  0.00  0.00    +0.000 F 
ATOM     15  F   UNL     1       5.584   5.468  14.513  0.00  0.00    +0.000 F 
ENDBRANCH   6  13
ENDBRANCH   1   2
BRANCH   1  16
ATOM     16  N   UNL     1       2.539   7.060  19.709  0.00  0.00    +0.000 N 
ATOM     17  C   UNL     1       1.563   7.586  20.536  0.00  0.00    +0.000 C 
ATOM     18  O   UNL     1       1.043   6.968  21.458  0.00  0.00    +0.000 OA
ATOM     19  H   UNL     1       2.770   7.568  18.868  0.00  0.00    +0.000 HD
BRANCH  17  20
ATOM     20  C   UNL     1       1.184   8.999  20.232  0.00  0.00    +0.000 A 
ATOM     21  C   UNL     1       1.329   9.535  18.949  0.00  0.00    +0.000 A 
ATOM     22  C   UNL     1       0.976  10.875  18.717  0.00  0.00    +0.000 A 
ATOM     23  C   UNL     1       0.447  11.688  19.729  0.00  0.00    +0.000 A 
ATOM     24  C   UNL     1       0.302  11.122  20.994  0.00  0.00    +0.000 A 
ATOM     25  C   UNL     1       0.660   9.805  21.234  0.00  0.00    +0.000 A 
BRANCH  23  26
ATOM     26  N   UNL     1       0.022  12.978  19.490  0.00  0.00    +0.000 N 
ATOM     27  C   UNL     1       0.640  13.814  18.447  0.00  0.00    +0.000 C 
ATOM     28  C   UNL     1       0.729  15.267  18.955  0.00  0.00    +0.000 C 
ATOM     29  N   UNL     1      -0.590  15.797  19.364  0.00  0.00    +0.000 NA
ATOM     30  C   UNL     1      -0.456  17.162  19.863  0.00  0.00    +0.000 C 
ATOM     31  C   UNL     1      -1.171  14.914  20.404  0.00  0.00    +0.000 C 
ATOM     32  C   UNL     1      -1.296  13.448  19.934  0.00  0.00    +0.000 C 
ENDBRANCH  23  26
ENDBRANCH  17  20
ENDBRANCH   1  16
BRANCH   1  33
ATOM     33  C   UNL     1       2.035   4.879  20.648  0.00  0.00    +0.000 C 
BRANCH  33  35
ATOM     34  C   UNL     1       2.306   2.598  21.807  0.00  0.00    +0.000 C 
ATOM     35  C   UNL     1       2.036   3.345  20.501  0.00  0.00    +0.000 C 
ATOM     36  C   UNL     1       0.676   2.918  19.937  0.00  0.00    +0.000 C 
ENDBRANCH  33  35
ENDBRANCH   1  33
TORSDOF 7
ENDMDL
MODEL 9
REMARK VINA RESULT:      -8.3      2.086      2.639
REMARK  Name = 
REMARK  10 active torsions:
REMARK  status: ('A' for Active; 'I' for Inactive)
REMARK    1  A    between atoms: C_1  and  C_2
REMARK    2  A    between atoms: C_2  and  C_3
REMARK    3  A    between atoms: C_2  and  C_4
REMARK    4  A    between atoms: C_4  and  C_5
REMARK    5  A    between atoms: C_5  and  N_6
REMARK    6  A    between atoms: C_5  and  C_22
REMARK    7  A    between atoms: C_7  and  C_9
REMARK    8  A    between atoms: C_12  and  N_13
REMARK    9  A    between atoms: N_16  and  C_17
REMARK   10  A    between atoms: C_26  and  C_27
REMARK                            x       y       z     vdW  Elec       q    Type
REMARK                         _______ _______ _______ _____ _____    ______ ____
ROOT
ATOM      1  C   UNL     1       3.154   5.685  19.888  0.00  0.00    +0.000 C 
ENDROOT
BRANCH   1   2
ATOM      2  C   UNL     1       3.021   5.201  18.410  0.00  0.00    +0.000 C 
ATOM      3  O   UNL     1       1.954   5.261  17.797  0.00  0.00    +0.000 OA
ATOM      4  N   UNL     1       4.171   4.731  17.789  0.00  0.00    +0.000 N 
ATOM      5  C   UNL     1       4.162   4.183  16.436  0.00  0.00    +0.000 C 
ATOM      6  C   UNL     1       5.622   3.799  16.125  0.00  0.00    +0.000 C 
ATOM      7  C   UNL     1       6.425   4.233  17.374  0.00  0.00    +0.000 C 
ATOM      8  O   UNL     1       7.643   4.926  17.086  0.00  0.00    +0.000 OA
ATOM      9  C   UNL     1       7.395   6.350  17.128  0.00  0.00    +0.000 C 
ATOM     10  C   UNL     1       5.935   6.437  17.469  0.00  0.00    +0.000 C 
ATOM     11  O   UNL     1       5.217   7.383  17.193  0.00  0.00    +0.000 OA
ATOM     12  C   UNL     1       5.497   5.161  18.139  0.00  0.00    +0.000 C 
BRANCH   6  13
ATOM     13  C   UNL     1       6.076   4.387  14.802  0.00  0.00    +0.000 C 
ATOM     14  F   UNL     1       5.934   3.454  13.828  0.00  0.00    +0.000 F 
ATOM     15  F   UNL     1       5.290   5.431  14.445  0.00  0.00    +0.000 F 
ENDBRANCH   6  13
ENDBRANCH   1   2
BRANCH   1  16
ATOM     16  N   UNL     1       2.216   6.793  20.091  0.00  0.00    +0.000 N 
ATOM     17  C   UNL     1       2.191   7.947  19.327  0.00  0.00    +0.000 C 
ATOM     18  O   UNL     1       2.890   8.124  18.336  0.00  0.00    +0.000 OA
ATOM     19  H   UNL     1       1.752   6.810  20.987  0.00  0.00    +0.000 HD
BRANCH  17  20
ATOM     20  C   UNL     1       1.219   8.981  19.793  0.00  0.00    +0.000 A 
ATOM     21  C   UNL     1       0.748   9.980  18.935  0.00  0.00    +0.000 A 
ATOM     22  C   UNL     1      -0.151  10.943  19.424  0.00  0.00    +0.000 A 
ATOM     23  C   UNL     1      -0.623  10.912  20.744  0.00  0.00    +0.000 A 
ATOM     24  C   UNL     1      -0.146   9.897  21.571  0.00  0.00    +0.000 A 
ATOM     25  C   UNL     1       0.751   8.952  21.099  0.00  0.00    +0.000 A 
BRANCH  23  26
ATOM     26  N   UNL     1      -1.567  11.803  21.209  0.00  0.00    +0.000 N 
ATOM     27  C   UNL     1      -2.543  12.436  20.305  0.00  0.00    +0.000 C 
ATOM     28  C   UNL     1      -2.765  13.896  20.748  0.00  0.00    +0.000 C 
ATOM     29  N   UNL     1      -3.192  13.992  22.161  0.00  0.00    +0.000 NA
ATOM     30  C   UNL     1      -3.363  15.389  22.546  0.00  0.00    +0.000 C 
ATOM     31  C   UNL     1      -2.183  13.331  23.023  0.00  0.00    +0.000 C 
ATOM     32  C   UNL     1      -1.939  11.858  22.628  0.00  0.00    +0.000 C 
ENDBRANCH  23  26
ENDBRANCH  17  20
ENDBRANCH   1  16
BRANCH   1  33
ATOM     33  C   UNL     1       2.806   4.581  20.897  0.00  0.00    +0.000 C 
BRANCH  33  35
ATOM     34  C   UNL     1       3.851   2.275  20.436  0.00  0.00    +0.000 C 
ATOM     35  C   UNL     1       2.606   3.158  20.340  0.00  0.00    +0.000 C 
ATOM     36  C   UNL     1       1.451   2.503  21.107  0.00  0.00    +0.000 C 
ENDBRANCH  33  35
ENDBRANCH   1  33
TORSDOF 7
ENDMDL
