MODEL 1
REMARK VINA RESULT:      -7.3      0.000      0.000
REMARK  Name = 
REMARK  9 active torsions:
REMARK  status: ('A' for Active; 'I' for Inactive)
REMARK    1  A    between atoms: C_1  and  O_2
REMARK    2  A    between atoms: O_2  and  C_3
REMARK    3  A    between atoms: C_3  and  C_5
REMARK    4  A    between atoms: C_5  and  C_6
REMARK    5  A    between atoms: C_11  and  N_12
REMARK    6  A    between atoms: C_13  and  C_15
REMARK    7  A    between atoms: C_15  and  C_16
REMARK    8  A    between atoms: C_24  and  C_25
REMARK    9  A    between atoms: C_25  and  O_26
REMARK                            x       y       z     vdW  Elec       q    Type
REMARK                         _______ _______ _______ _____ _____    ______ ____
ROOT
ATOM      1  C   UNL     1       2.615   4.923  18.682  0.00  0.00    +0.000 C 
ATOM      2  C   UNL     1       3.668   6.016  18.508  0.00  0.00    +0.000 C 
ATOM      3  C   UNL     1       4.738   5.621  17.485  0.00  0.00    +0.000 C 
ATOM      4  C   UNL     1       6.010   6.345  17.747  0.00  0.00    +0.000 A 
ATOM      5  C   UNL     1       6.370   7.646  17.434  0.00  0.00    +0.000 A 
ATOM      6  C   UNL     1       7.607   8.127  17.878  0.00  0.00    +0.000 A 
ATOM      7  C   UNL     1       8.453   7.278  18.627  0.00  0.00    +0.000 A 
ATOM      8  C   UNL     1       8.067   5.970  18.947  0.00  0.00    +0.000 A 
ATOM      9  C   UNL     1       6.849   5.529  18.484  0.00  0.00    +0.000 A 
ATOM     10  O   UNL     1       6.324   4.280  18.702  0.00  0.00    +0.000 OA
ATOM     11  C   UNL     1       5.273   4.197  17.692  0.00  0.00    +0.000 C 
ATOM     12  C   UNL     1       4.203   3.181  18.104  0.00  0.00    +0.000 C 
ATOM     13  O   UNL     1       3.261   3.706  19.053  0.00  0.00    +0.000 OA
ENDROOT
BRANCH   6  14
ATOM     14  N   UNL     1       8.055   9.444  17.622  0.00  0.00    +0.000 N 
ATOM     15  C   UNL     1       8.848  10.213  18.458  0.00  0.00    +0.000 C 
ATOM     16  O   UNL     1       9.295   9.870  19.552  0.00  0.00    +0.000 OA
ATOM     17  H   UNL     1       7.850   9.815  16.703  0.00  0.00    +0.000 HD
BRANCH  15  18
ATOM     18  C   UNL     1       9.221  11.572  17.881  0.00  0.00    +0.000 C 
BRANCH  18  19
ATOM     19  C   UNL     1      10.712  11.707  17.770  0.00  0.00    +0.000 C 
ATOM     20  C   UNL     1      11.285  12.930  17.103  0.00  0.00    +0.000 C 
ATOM     21  C   UNL     1      11.503  12.707  18.574  0.00  0.00    +0.000 C 
ENDBRANCH  18  19
ENDBRANCH  15  18
ENDBRANCH   6  14
BRANCH   1  22
ATOM     22  C   UNL     1       1.664   5.321  19.815  0.00  0.00    +0.000 C 
BRANCH  22  23
ATOM     23  C   UNL     1       1.110   4.130  20.548  0.00  0.00    +0.000 C 
ATOM     24  O   UNL     1       0.206   3.423  20.120  0.00  0.00    +0.000 OA
BRANCH  23  26
ATOM     25  C   UNL     1       2.044   2.513  21.952  0.00  0.00    +0.000 C 
ATOM     26  O   UNL     1       1.806   3.899  21.695  0.00  0.00    +0.000 OA
ENDBRANCH  23  26
ENDBRANCH  22  23
ENDBRANCH   1  22
BRANCH  12  27
ATOM     27  C   UNL     1       3.502   2.588  16.864  0.00  0.00    +0.000 C 
BRANCH  27  28
ATOM     28  O   UNL     1       2.312   1.881  17.200  0.00  0.00    +0.000 OA
ATOM     29  H   UNL     1       2.133   2.023  18.147  0.00  0.00    +0.000 HD
ENDBRANCH  27  28
ENDBRANCH  12  27
TORSDOF 8
ENDMDL
MODEL 2
REMARK VINA RESULT:      -7.3      4.321      7.698
REMARK  Name = 
REMARK  9 active torsions:
REMARK  status: ('A' for Active; 'I' for Inactive)
REMARK    1  A    between atoms: C_1  and  O_2
REMARK    2  A    between atoms: O_2  and  C_3
REMARK    3  A    between atoms: C_3  and  C_5
REMARK    4  A    between atoms: C_5  and  C_6
REMARK    5  A    between atoms: C_11  and  N_12
REMARK    6  A    between atoms: C_13  and  C_15
REMARK    7  A    between atoms: C_15  and  C_16
REMARK    8  A    between atoms: C_24  and  C_25
REMARK    9  A    between atoms: C_25  and  O_26
REMARK                            x       y       z     vdW  Elec       q    Type
REMARK                         _______ _______ _______ _____ _____    ______ ____
ROOT
ATOM      1  C   UNL     1       6.310   5.122  15.763  0.00  0.00    +0.000 C 
ATOM      2  C   UNL     1       5.132   6.037  16.091  0.00  0.00    +0.000 C 
ATOM      3  C   UNL     1       5.260   6.655  17.486  0.00  0.00    +0.000 C 
ATOM      4  C   UNL     1       3.923   7.019  18.026  0.00  0.00    +0.000 A 
ATOM      5  C   UNL     1       3.125   8.116  17.751  0.00  0.00    +0.000 A 
ATOM      6  C   UNL     1       1.851   8.183  18.325  0.00  0.00    +0.000 A 
ATOM      7  C   UNL     1       1.415   7.136  19.169  0.00  0.00    +0.000 A 
ATOM      8  C   UNL     1       2.229   6.026  19.426  0.00  0.00    +0.000 A 
ATOM      9  C   UNL     1       3.479   6.001  18.852  0.00  0.00    +0.000 A 
ATOM     10  O   UNL     1       4.401   4.996  19.004  0.00  0.00    +0.000 OA
ATOM     11  C   UNL     1       5.640   5.632  18.567  0.00  0.00    +0.000 C 
ATOM     12  C   UNL     1       6.656   4.583  18.104  0.00  0.00    +0.000 C 
ATOM     13  O   UNL     1       6.415   4.114  16.768  0.00  0.00    +0.000 OA
ENDROOT
BRANCH   6  14
ATOM     14  N   UNL     1       0.957   9.254  18.090  0.00  0.00    +0.000 N 
ATOM     15  C   UNL     1       0.587  10.225  19.008  0.00  0.00    +0.000 C 
ATOM     16  O   UNL     1       0.982  10.313  20.170  0.00  0.00    +0.000 OA
ATOM     17  H   UNL     1       0.637   9.369  17.137  0.00  0.00    +0.000 HD
BRANCH  15  18
ATOM     18  C   UNL     1      -0.343  11.289  18.442  0.00  0.00    +0.000 C 
BRANCH  18  19
ATOM     19  C   UNL     1      -1.682  10.696  18.107  0.00  0.00    +0.000 C 
ATOM     20  C   UNL     1      -2.896  11.586  18.121  0.00  0.00    +0.000 C 
ATOM     21  C   UNL     1      -2.410  11.003  16.823  0.00  0.00    +0.000 C 
ENDBRANCH  18  19
ENDBRANCH  15  18
ENDBRANCH   6  14
BRANCH   1  22
ATOM     22  C   UNL     1       6.048   4.430  14.422  0.00  0.00    +0.000 C 
BRANCH  22  23
ATOM     23  C   UNL     1       7.089   4.765  13.388  0.00  0.00    +0.000 C 
ATOM     24  O   UNL     1       8.003   5.560  13.569  0.00  0.00    +0.000 OA
BRANCH  23  26
ATOM     25  C   UNL     1       5.691   3.285  12.242  0.00  0.00    +0.000 C 
ATOM     26  O   UNL     1       6.926   4.003  12.271  0.00  0.00    +0.000 OA
ENDBRANCH  23  26
ENDBRANCH  22  23
ENDBRANCH   1  22
BRANCH  12  27
ATOM     27  C   UNL     1       8.099   5.098  18.282  0.00  0.00    +0.000 C 
BRANCH  27  28
ATOM     28  O   UNL     1       8.224   5.987  19.389  0.00  0.00    +0.000 OA
ATOM     29  H   UNL     1       7.375   6.449  19.504  0.00  0.00    +0.000 HD
ENDBRANCH  27  28
ENDBRANCH  12  27
TORSDOF 8
ENDMDL
MODEL 3
REMARK VINA RESULT:      -7.2      5.605      8.727
REMARK  Name = 
REMARK  9 active torsions:
REMARK  status: ('A' for Active; 'I' for Inactive)
REMARK    1  A    between atoms: C_1  and  O_2
REMARK    2  A    between atoms: O_2  and  C_3
REMARK    3  A    between atoms: C_3  and  C_5
REMARK    4  A    between atoms: C_5  and  C_6
REMARK    5  A    between atoms: C_11  and  N_12
REMARK    6  A    between atoms: C_13  and  C_15
REMARK    7  A    between atoms: C_15  and  C_16
REMARK    8  A    between atoms: C_24  and  C_25
REMARK    9  A    between atoms: C_25  and  O_26
REMARK                            x       y       z     vdW  Elec       q    Type
REMARK                         _______ _______ _______ _____ _____    ______ ____
ROOT
ATOM      1  C   UNL     1       1.542  12.438  18.531  0.00  0.00    +0.000 C 
ATOM      2  C   UNL     1       2.254  11.110  18.281  0.00  0.00    +0.000 C 
ATOM      3  C   UNL     1       1.262   9.963  18.061  0.00  0.00    +0.000 C 
ATOM      4  C   UNL     1       1.879   8.657  18.416  0.00  0.00    +0.000 A 
ATOM      5  C   UNL     1       2.759   7.868  17.694  0.00  0.00    +0.000 A 
ATOM      6  C   UNL     1       3.275   6.714  18.295  0.00  0.00    +0.000 A 
ATOM      7  C   UNL     1       2.885   6.383  19.612  0.00  0.00    +0.000 A 
ATOM      8  C   UNL     1       2.005   7.201  20.333  0.00  0.00    +0.000 A 
ATOM      9  C   UNL     1       1.510   8.321  19.706  0.00  0.00    +0.000 A 
ATOM     10  O   UNL     1       0.639   9.222  20.265  0.00  0.00    +0.000 OA
ATOM     11  C   UNL     1       0.130   9.937  19.098  0.00  0.00    +0.000 C 
ATOM     12  C   UNL     1      -0.387  11.324  19.493  0.00  0.00    +0.000 C 
ATOM     13  O   UNL     1       0.660  12.296  19.643  0.00  0.00    +0.000 OA
ENDROOT
BRANCH   6  14
ATOM     14  N   UNL     1       4.191   5.854  17.644  0.00  0.00    +0.000 N 
ATOM     15  C   UNL     1       3.923   4.577  17.177  0.00  0.00    +0.000 C 
ATOM     16  O   UNL     1       2.842   3.992  17.247  0.00  0.00    +0.000 OA
ATOM     17  H   UNL     1       5.095   6.251  17.421  0.00  0.00    +0.000 HD
BRANCH  15  18
ATOM     18  C   UNL     1       5.095   3.920  16.461  0.00  0.00    +0.000 C 
BRANCH  18  19
ATOM     19  C   UNL     1       5.473   4.705  15.238  0.00  0.00    +0.000 C 
ATOM     20  C   UNL     1       6.929   4.825  14.872  0.00  0.00    +0.000 C 
ATOM     21  C   UNL     1       5.994   4.054  13.982  0.00  0.00    +0.000 C 
ENDBRANCH  18  19
ENDBRANCH  15  18
ENDBRANCH   6  14
BRANCH   1  22
ATOM     22  C   UNL     1       2.584  13.504  18.883  0.00  0.00    +0.000 C 
BRANCH  22  23
ATOM     23  C   UNL     1       2.067  14.903  18.681  0.00  0.00    +0.000 C 
ATOM     24  O   UNL     1       0.878  15.196  18.648  0.00  0.00    +0.000 OA
BRANCH  23  26
ATOM     25  C   UNL     1       3.948  15.624  17.499  0.00  0.00    +0.000 C 
ATOM     26  O   UNL     1       3.093  15.797  18.630  0.00  0.00    +0.000 OA
ENDBRANCH  23  26
ENDBRANCH  22  23
ENDBRANCH   1  22
BRANCH  12  27
ATOM     27  C   UNL     1      -1.481  11.802  18.516  0.00  0.00    +0.000 C 
BRANCH  27  28
ATOM     28  O   UNL     1      -2.035  13.059  18.895  0.00  0.00    +0.000 OA
ATOM     29  H   UNL     1      -1.756  13.722  18.239  0.00  0.00    +0.000 HD
ENDBRANCH  27  28
ENDBRANCH  12  27
TORSDOF 8
ENDMDL
MODEL 4
REMARK VINA RESULT:      -7.2      4.365      6.627
REMARK  Name = 
REMARK  9 active torsions:
REMARK  status: ('A' for Active; 'I' for Inactive)
REMARK    1  A    between atoms: C_1  and  O_2
REMARK    2  A    between atoms: O_2  and  C_3
REMARK    3  A    between atoms: C_3  and  C_5
REMARK    4  A    between atoms: C_5  and  C_6
REMARK    5  A    between atoms: C_11  and  N_12
REMARK    6  A    between atoms: C_13  and  C_15
REMARK    7  A    between atoms: C_15  and  C_16
REMARK    8  A    between atoms: C_24  and  C_25
REMARK    9  A    between atoms: C_25  and  O_26
REMARK                            x       y       z     vdW  Elec       q    Type
REMARK                         _______ _______ _______ _____ _____    ______ ____
ROOT
ATOM      1  C   UNL     1       2.036   7.224  18.669  0.00  0.00    +0.000 C 
ATOM      2  C   UNL     1       2.893   6.586  17.577  0.00  0.00    +0.000 C 
ATOM      3  C   UNL     1       3.258   5.137  17.913  0.00  0.00    +0.000 C 
ATOM      4  C   UNL     1       4.512   4.735  17.222  0.00  0.00    +0.000 A 
ATOM      5  C   UNL     1       4.716   4.350  15.907  0.00  0.00    +0.000 A 
ATOM      6  C   UNL     1       6.023   4.109  15.472  0.00  0.00    +0.000 A 
ATOM      7  C   UNL     1       7.096   4.262  16.379  0.00  0.00    +0.000 A 
ATOM      8  C   UNL     1       6.874   4.666  17.701  0.00  0.00    +0.000 A 
ATOM      9  C   UNL     1       5.574   4.883  18.096  0.00  0.00    +0.000 A 
ATOM     10  O   UNL     1       5.183   5.276  19.351  0.00  0.00    +0.000 OA
ATOM     11  C   UNL     1       3.758   4.958  19.354  0.00  0.00    +0.000 C 
ATOM     12  C   UNL     1       3.012   5.812  20.384  0.00  0.00    +0.000 C 
ATOM     13  O   UNL     1       2.724   7.139  19.916  0.00  0.00    +0.000 OA
ENDROOT
BRANCH   6  14
ATOM     14  N   UNL     1       6.332   3.728  14.145  0.00  0.00    +0.000 N 
ATOM     15  C   UNL     1       7.050   4.478  13.226  0.00  0.00    +0.000 C 
ATOM     16  O   UNL     1       7.539   5.591  13.422  0.00  0.00    +0.000 OA
ATOM     17  H   UNL     1       6.084   2.784  13.881  0.00  0.00    +0.000 HD
BRANCH  15  18
ATOM     18  C   UNL     1       7.278   3.774  11.895  0.00  0.00    +0.000 C 
BRANCH  18  19
ATOM     19  C   UNL     1       6.775   2.361  11.953  0.00  0.00    +0.000 C 
ATOM     20  C   UNL     1       5.524   2.001  11.195  0.00  0.00    +0.000 C 
ATOM     21  C   UNL     1       6.846   1.422  10.776  0.00  0.00    +0.000 C 
ENDBRANCH  18  19
ENDBRANCH  15  18
ENDBRANCH   6  14
BRANCH   1  22
ATOM     22  C   UNL     1       1.830   8.706  18.339  0.00  0.00    +0.000 C 
BRANCH  22  23
ATOM     23  C   UNL     1       1.048   9.430  19.402  0.00  0.00    +0.000 C 
ATOM     24  O   UNL     1       0.613   8.896  20.414  0.00  0.00    +0.000 OA
BRANCH  23  26
ATOM     25  C   UNL     1      -0.289  11.162  18.585  0.00  0.00    +0.000 C 
ATOM     26  O   UNL     1       0.971  10.761  19.126  0.00  0.00    +0.000 OA
ENDBRANCH  23  26
ENDBRANCH  22  23
ENDBRANCH   1  22
BRANCH  12  27
ATOM     27  C   UNL     1       1.744   5.090  20.882  0.00  0.00    +0.000 C 
BRANCH  27  28
ATOM     28  O   UNL     1       2.045   3.876  21.565  0.00  0.00    +0.000 OA
ATOM     29  H   UNL     1       1.209   3.499  21.894  0.00  0.00    +0.000 HD
ENDBRANCH  27  28
ENDBRANCH  12  27
TORSDOF 8
ENDMDL
MODEL 5
REMARK VINA RESULT:      -7.2      5.795      9.032
REMARK  Name = 
REMARK  9 active torsions:
REMARK  status: ('A' for Active; 'I' for Inactive)
REMARK    1  A    between atoms: C_1  and  O_2
REMARK    2  A    between atoms: O_2  and  C_3
REMARK    3  A    between atoms: C_3  and  C_5
REMARK    4  A    between atoms: C_5  and  C_6
REMARK    5  A    between atoms: C_11  and  N_12
REMARK    6  A    between atoms: C_13  and  C_15
REMARK    7  A    between atoms: C_15  and  C_16
REMARK    8  A    between atoms: C_24  and  C_25
REMARK    9  A    between atoms: C_25  and  O_26
REMARK                            x       y       z     vdW  Elec       q    Type
REMARK                         _______ _______ _______ _____ _____    ______ ____
ROOT
ATOM      1  C   UNL     1       1.708  12.747  18.637  0.00  0.00    +0.000 C 
ATOM      2  C   UNL     1       2.278  11.353  18.383  0.00  0.00    +0.000 C 
ATOM      3  C   UNL     1       1.172  10.304  18.231  0.00  0.00    +0.000 C 
ATOM      4  C   UNL     1       1.677   8.950  18.584  0.00  0.00    +0.000 A 
ATOM      5  C   UNL     1       2.443   8.068  17.840  0.00  0.00    +0.000 A 
ATOM      6  C   UNL     1       2.873   6.879  18.439  0.00  0.00    +0.000 A 
ATOM      7  C   UNL     1       2.515   6.609  19.780  0.00  0.00    +0.000 A 
ATOM      8  C   UNL     1       1.752   7.519  20.523  0.00  0.00    +0.000 A 
ATOM      9  C   UNL     1       1.338   8.672  19.896  0.00  0.00    +0.000 A 
ATOM     10  O   UNL     1       0.584   9.661  20.475  0.00  0.00    +0.000 OA
ATOM     11  C   UNL     1       0.092  10.404  19.318  0.00  0.00    +0.000 C 
ATOM     12  C   UNL     1      -0.271  11.840  19.707  0.00  0.00    +0.000 C 
ATOM     13  O   UNL     1       0.870  12.708  19.791  0.00  0.00    +0.000 OA
ENDROOT
BRANCH   6  14
ATOM     14  N   UNL     1       3.671   5.925  17.766  0.00  0.00    +0.000 N 
ATOM     15  C   UNL     1       3.305   4.625  17.458  0.00  0.00    +0.000 C 
ATOM     16  O   UNL     1       2.223   4.096  17.715  0.00  0.00    +0.000 OA
ATOM     17  H   UNL     1       4.552   6.260  17.398  0.00  0.00    +0.000 HD
BRANCH  15  18
ATOM     18  C   UNL     1       4.355   3.855  16.670  0.00  0.00    +0.000 C 
BRANCH  18  19
ATOM     19  C   UNL     1       5.277   4.801  15.955  0.00  0.00    +0.000 C 
ATOM     20  C   UNL     1       6.762   4.560  16.023  0.00  0.00    +0.000 C 
ATOM     21  C   UNL     1       6.038   4.414  14.713  0.00  0.00    +0.000 C 
ENDBRANCH  18  19
ENDBRANCH  15  18
ENDBRANCH   6  14
BRANCH   1  22
ATOM     22  C   UNL     1       2.863  13.713  18.920  0.00  0.00    +0.000 C 
BRANCH  22  23
ATOM     23  C   UNL     1       2.715  15.019  18.187  0.00  0.00    +0.000 C 
ATOM     24  O   UNL     1       3.483  15.404  17.314  0.00  0.00    +0.000 OA
BRANCH  23  26
ATOM     25  C   UNL     1       1.616  17.073  18.353  0.00  0.00    +0.000 C 
ATOM     26  O   UNL     1       1.574  15.660  18.561  0.00  0.00    +0.000 OA
ENDBRANCH  23  26
ENDBRANCH  22  23
ENDBRANCH   1  22
BRANCH  12  27
ATOM     27  C   UNL     1      -1.359  12.405  18.772  0.00  0.00    +0.000 C 
BRANCH  27  28
ATOM     28  O   UNL     1      -2.243  13.297  19.445  0.00  0.00    +0.000 OA
ATOM     29  H   UNL     1      -3.148  12.948  19.359  0.00  0.00    +0.000 HD
ENDBRANCH  27  28
ENDBRANCH  12  27
TORSDOF 8
ENDMDL
MODEL 6
REMARK VINA RESULT:      -7.2      4.123      7.532
REMARK  Name = 
REMARK  9 active torsions:
REMARK  status: ('A' for Active; 'I' for Inactive)
REMARK    1  A    between atoms: C_1  and  O_2
REMARK    2  A    between atoms: O_2  and  C_3
REMARK    3  A    between atoms: C_3  and  C_5
REMARK    4  A    between atoms: C_5  and  C_6
REMARK    5  A    between atoms: C_11  and  N_12
REMARK    6  A    between atoms: C_13  and  C_15
REMARK    7  A    between atoms: C_15  and  C_16
REMARK    8  A    between atoms: C_24  and  C_25
REMARK    9  A    between atoms: C_25  and  O_26
REMARK                            x       y       z     vdW  Elec       q    Type
REMARK                         _______ _______ _______ _____ _____    ______ ____
ROOT
ATOM      1  C   UNL     1       5.331   4.562  19.129  0.00  0.00    +0.000 C 
ATOM      2  C   UNL     1       4.474   5.685  19.710  0.00  0.00    +0.000 C 
ATOM      3  C   UNL     1       2.994   5.517  19.351  0.00  0.00    +0.000 C 
ATOM      4  C   UNL     1       2.294   6.829  19.371  0.00  0.00    +0.000 A 
ATOM      5  C   UNL     1       1.821   7.565  20.445  0.00  0.00    +0.000 A 
ATOM      6  C   UNL     1       1.276   8.831  20.205  0.00  0.00    +0.000 A 
ATOM      7  C   UNL     1       1.220   9.323  18.881  0.00  0.00    +0.000 A 
ATOM      8  C   UNL     1       1.716   8.572  17.808  0.00  0.00    +0.000 A 
ATOM      9  C   UNL     1       2.235   7.327  18.081  0.00  0.00    +0.000 A 
ATOM     10  O   UNL     1       2.755   6.464  17.151  0.00  0.00    +0.000 OA
ATOM     11  C   UNL     1       2.766   5.192  17.867  0.00  0.00    +0.000 C 
ATOM     12  C   UNL     1       3.806   4.239  17.270  0.00  0.00    +0.000 C 
ATOM     13  O   UNL     1       5.144   4.512  17.716  0.00  0.00    +0.000 OA
ENDROOT
BRANCH   6  14
ATOM     14  N   UNL     1       0.782   9.663  21.237  0.00  0.00    +0.000 N 
ATOM     15  C   UNL     1      -0.257   9.361  22.103  0.00  0.00    +0.000 C 
ATOM     16  O   UNL     1      -0.911   8.318  22.115  0.00  0.00    +0.000 OA
ATOM     17  H   UNL     1       1.302  10.513  21.413  0.00  0.00    +0.000 HD
BRANCH  15  18
ATOM     18  C   UNL     1      -0.519  10.431  23.154  0.00  0.00    +0.000 C 
BRANCH  18  19
ATOM     19  C   UNL     1      -1.294  11.573  22.563  0.00  0.00    +0.000 C 
ATOM     20  C   UNL     1      -2.509  12.083  23.292  0.00  0.00    +0.000 C 
ATOM     21  C   UNL     1      -1.291  12.956  23.162  0.00  0.00    +0.000 C 
ENDBRANCH  18  19
ENDBRANCH  15  18
ENDBRANCH   6  14
BRANCH   1  22
ATOM     22  C   UNL     1       6.807   4.869  19.403  0.00  0.00    +0.000 C 
BRANCH  22  23
ATOM     23  C   UNL     1       7.585   5.127  18.141  0.00  0.00    +0.000 C 
ATOM     24  O   UNL     1       8.265   4.283  17.572  0.00  0.00    +0.000 OA
BRANCH  23  26
ATOM     25  C   UNL     1       8.193   7.378  18.285  0.00  0.00    +0.000 C 
ATOM     26  O   UNL     1       7.358   6.388  17.681  0.00  0.00    +0.000 OA
ENDBRANCH  23  26
ENDBRANCH  22  23
ENDBRANCH   1  22
BRANCH  12  27
ATOM     27  C   UNL     1       3.406   2.769  17.510  0.00  0.00    +0.000 C 
BRANCH  27  28
ATOM     28  O   UNL     1       1.993   2.587  17.527  0.00  0.00    +0.000 OA
ATOM     29  H   UNL     1       1.812   1.630  17.539  0.00  0.00    +0.000 HD
ENDBRANCH  27  28
ENDBRANCH  12  27
TORSDOF 8
ENDMDL
MODEL 7
REMARK VINA RESULT:      -7.1      5.911      8.822
REMARK  Name = 
REMARK  9 active torsions:
REMARK  status: ('A' for Active; 'I' for Inactive)
REMARK    1  A    between atoms: C_1  and  O_2
REMARK    2  A    between atoms: O_2  and  C_3
REMARK    3  A    between atoms: C_3  and  C_5
REMARK    4  A    between atoms: C_5  and  C_6
REMARK    5  A    between atoms: C_11  and  N_12
REMARK    6  A    between atoms: C_13  and  C_15
REMARK    7  A    between atoms: C_15  and  C_16
REMARK    8  A    between atoms: C_24  and  C_25
REMARK    9  A    between atoms: C_25  and  O_26
REMARK                            x       y       z     vdW  Elec       q    Type
REMARK                         _______ _______ _______ _____ _____    ______ ____
ROOT
ATOM      1  C   UNL     1       1.700  12.709  18.544  0.00  0.00    +0.000 C 
ATOM      2  C   UNL     1       2.202  11.296  18.252  0.00  0.00    +0.000 C 
ATOM      3  C   UNL     1       1.062  10.273  18.255  0.00  0.00    +0.000 C 
ATOM      4  C   UNL     1       1.575   8.914  18.573  0.00  0.00    +0.000 A 
ATOM      5  C   UNL     1       2.225   7.999  17.761  0.00  0.00    +0.000 A 
ATOM      6  C   UNL     1       2.697   6.811  18.329  0.00  0.00    +0.000 A 
ATOM      7  C   UNL     1       2.497   6.574  19.707  0.00  0.00    +0.000 A 
ATOM      8  C   UNL     1       1.850   7.515  20.518  0.00  0.00    +0.000 A 
ATOM      9  C   UNL     1       1.391   8.667  19.922  0.00  0.00    +0.000 A 
ATOM     10  O   UNL     1       0.734   9.685  20.567  0.00  0.00    +0.000 OA
ATOM     11  C   UNL     1       0.124  10.419  19.462  0.00  0.00    +0.000 C 
ATOM     12  C   UNL     1      -0.157  11.871  19.863  0.00  0.00    +0.000 C 
ATOM     13  O   UNL     1       1.006  12.711  19.791  0.00  0.00    +0.000 OA
ENDROOT
BRANCH   6  14
ATOM     14  N   UNL     1       3.387   5.825  17.584  0.00  0.00    +0.000 N 
ATOM     15  C   UNL     1       4.704   5.896  17.159  0.00  0.00    +0.000 C 
ATOM     16  O   UNL     1       5.485   6.825  17.369  0.00  0.00    +0.000 OA
ATOM     17  H   UNL     1       2.896   4.954  17.434  0.00  0.00    +0.000 HD
BRANCH  15  18
ATOM     18  C   UNL     1       5.188   4.650  16.431  0.00  0.00    +0.000 C 
BRANCH  18  19
ATOM     19  C   UNL     1       5.556   4.977  15.013  0.00  0.00    +0.000 C 
ATOM     20  C   UNL     1       7.001   4.887  14.596  0.00  0.00    +0.000 C 
ATOM     21  C   UNL     1       5.995   3.929  14.022  0.00  0.00    +0.000 C 
ENDBRANCH  18  19
ENDBRANCH  15  18
ENDBRANCH   6  14
BRANCH   1  22
ATOM     22  C   UNL     1       2.902  13.651  18.667  0.00  0.00    +0.000 C 
BRANCH  22  23
ATOM     23  C   UNL     1       2.519  15.008  19.194  0.00  0.00    +0.000 C 
ATOM     24  O   UNL     1       3.156  15.615  20.046  0.00  0.00    +0.000 OA
BRANCH  23  26
ATOM     25  C   UNL     1       1.377  16.923  18.500  0.00  0.00    +0.000 C 
ATOM     26  O   UNL     1       1.432  15.496  18.534  0.00  0.00    +0.000 OA
ENDBRANCH  23  26
ENDBRANCH  22  23
ENDBRANCH   1  22
BRANCH  12  27
ATOM     27  C   UNL     1      -1.336  12.447  19.053  0.00  0.00    +0.000 C 
BRANCH  27  28
ATOM     28  O   UNL     1      -1.240  13.859  18.885  0.00  0.00    +0.000 OA
ATOM     29  H   UNL     1      -2.139  14.229  18.919  0.00  0.00    +0.000 HD
ENDBRANCH  27  28
ENDBRANCH  12  27
TORSDOF 8
ENDMDL
MODEL 8
REMARK VINA RESULT:      -7.0      5.763      8.750
REMARK  Name = 
REMARK  9 active torsions:
REMARK  status: ('A' for Active; 'I' for Inactive)
REMARK    1  A    between atoms: C_1  and  O_2
REMARK    2  A    between atoms: O_2  and  C_3
REMARK    3  A    between atoms: C_3  and  C_5
REMARK    4  A    between atoms: C_5  and  C_6
REMARK    5  A    between atoms: C_11  and  N_12
REMARK    6  A    between atoms: C_13  and  C_15
REMARK    7  A    between atoms: C_15  and  C_16
REMARK    8  A    between atoms: C_24  and  C_25
REMARK    9  A    between atoms: C_25  and  O_26
REMARK                            x       y       z     vdW  Elec       q    Type
REMARK                         _______ _______ _______ _____ _____    ______ ____
ROOT
ATOM      1  C   UNL     1       1.423  12.791  18.570  0.00  0.00    +0.000 C 
ATOM      2  C   UNL     1       2.068  11.416  18.403  0.00  0.00    +0.000 C 
ATOM      3  C   UNL     1       1.020  10.312  18.231  0.00  0.00    +0.000 C 
ATOM      4  C   UNL     1       1.563   8.998  18.665  0.00  0.00    +0.000 A 
ATOM      5  C   UNL     1       2.409   8.125  18.001  0.00  0.00    +0.000 A 
ATOM      6  C   UNL     1       2.856   6.981  18.671  0.00  0.00    +0.000 A 
ATOM      7  C   UNL     1       2.434   6.744  19.998  0.00  0.00    +0.000 A 
ATOM      8  C   UNL     1       1.590   7.644  20.661  0.00  0.00    +0.000 A 
ATOM      9  C   UNL     1       1.162   8.753  19.967  0.00  0.00    +0.000 A 
ATOM     10  O   UNL     1       0.332   9.727  20.462  0.00  0.00    +0.000 OA
ATOM     11  C   UNL     1      -0.125  10.402  19.251  0.00  0.00    +0.000 C 
ATOM     12  C   UNL     1      -0.573  11.833  19.562  0.00  0.00    +0.000 C 
ATOM     13  O   UNL     1       0.522  12.756  19.675  0.00  0.00    +0.000 OA
ENDROOT
BRANCH   6  14
ATOM     14  N   UNL     1       3.734   6.041  18.082  0.00  0.00    +0.000 N 
ATOM     15  C   UNL     1       3.380   4.803  17.568  0.00  0.00    +0.000 C 
ATOM     16  O   UNL     1       2.245   4.329  17.535  0.00  0.00    +0.000 OA
ATOM     17  H   UNL     1       4.689   6.347  17.943  0.00  0.00    +0.000 HD
BRANCH  15  18
ATOM     18  C   UNL     1       4.538   4.039  16.939  0.00  0.00    +0.000 C 
BRANCH  18  19
ATOM     19  C   UNL     1       5.214   4.875  15.891  0.00  0.00    +0.000 C 
ATOM     20  C   UNL     1       6.630   4.545  15.498  0.00  0.00    +0.000 C 
ATOM     21  C   UNL     1       5.515   4.359  14.507  0.00  0.00    +0.000 C 
ENDBRANCH  18  19
ENDBRANCH  15  18
ENDBRANCH   6  14
BRANCH   1  22
ATOM     22  C   UNL     1       2.515  13.820  18.879  0.00  0.00    +0.000 C 
BRANCH  22  23
ATOM     23  C   UNL     1       2.598  14.150  20.345  0.00  0.00    +0.000 C 
ATOM     24  O   UNL     1       3.015  13.376  21.197  0.00  0.00    +0.000 OA
BRANCH  23  26
ATOM     25  C   UNL     1       1.209  15.581  21.560  0.00  0.00    +0.000 C 
ATOM     26  O   UNL     1       2.233  15.442  20.574  0.00  0.00    +0.000 OA
ENDBRANCH  23  26
ENDBRANCH  22  23
ENDBRANCH   1  22
BRANCH  12  27
ATOM     27  C   UNL     1      -1.629  12.312  18.545  0.00  0.00    +0.000 C 
BRANCH  27  28
ATOM     28  O   UNL     1      -2.933  12.389  19.113  0.00  0.00    +0.000 OA
ATOM     29  H   UNL     1      -3.582  12.288  18.395  0.00  0.00    +0.000 HD
ENDBRANCH  27  28
ENDBRANCH  12  27
TORSDOF 8
ENDMDL
MODEL 9
REMARK VINA RESULT:      -7.0      4.240      7.709
REMARK  Name = 
REMARK  9 active torsions:
REMARK  status: ('A' for Active; 'I' for Inactive)
REMARK    1  A    between atoms: C_1  and  O_2
REMARK    2  A    between atoms: O_2  and  C_3
REMARK    3  A    between atoms: C_3  and  C_5
REMARK    4  A    between atoms: C_5  and  C_6
REMARK    5  A    between atoms: C_11  and  N_12
REMARK    6  A    between atoms: C_13  and  C_15
REMARK    7  A    between atoms: C_15  and  C_16
REMARK    8  A    between atoms: C_24  and  C_25
REMARK    9  A    between atoms: C_25  and  O_26
REMARK                            x       y       z     vdW  Elec       q    Type
REMARK                         _______ _______ _______ _____ _____    ______ ____
ROOT
ATOM      1  C   UNL     1       6.032   4.794  16.088  0.00  0.00    +0.000 C 
ATOM      2  C   UNL     1       4.847   5.721  16.354  0.00  0.00    +0.000 C 
ATOM      3  C   UNL     1       5.075   6.596  17.591  0.00  0.00    +0.000 C 
ATOM      4  C   UNL     1       3.778   7.018  18.184  0.00  0.00    +0.000 A 
ATOM      5  C   UNL     1       2.908   8.021  17.790  0.00  0.00    +0.000 A 
ATOM      6  C   UNL     1       1.690   8.159  18.465  0.00  0.00    +0.000 A 
ATOM      7  C   UNL     1       1.383   7.280  19.528  0.00  0.00    +0.000 A 
ATOM      8  C   UNL     1       2.268   6.262  19.905  0.00  0.00    +0.000 A 
ATOM      9  C   UNL     1       3.460   6.164  19.225  0.00  0.00    +0.000 A 
ATOM     10  O   UNL     1       4.437   5.232  19.469  0.00  0.00    +0.000 OA
ATOM     11  C   UNL     1       5.600   5.807  18.800  0.00  0.00    +0.000 C 
ATOM     12  C   UNL     1       6.616   4.719  18.442  0.00  0.00    +0.000 C 
ATOM     13  O   UNL     1       6.275   3.998  17.247  0.00  0.00    +0.000 OA
ENDROOT
BRANCH   6  14
ATOM     14  N   UNL     1       0.731   9.141  18.125  0.00  0.00    +0.000 N 
ATOM     15  C   UNL     1       0.317  10.191  18.929  0.00  0.00    +0.000 C 
ATOM     16  O   UNL     1       0.724  10.441  20.063  0.00  0.00    +0.000 OA
ATOM     17  H   UNL     1       0.390   9.122  17.172  0.00  0.00    +0.000 HD
BRANCH  15  18
ATOM     18  C   UNL     1      -0.685  11.125  18.261  0.00  0.00    +0.000 C 
BRANCH  18  19
ATOM     19  C   UNL     1      -1.606  10.353  17.361  0.00  0.00    +0.000 C 
ATOM     20  C   UNL     1      -3.074  10.299  17.695  0.00  0.00    +0.000 C 
ATOM     21  C   UNL     1      -2.613  11.021  16.460  0.00  0.00    +0.000 C 
ENDBRANCH  18  19
ENDBRANCH  15  18
ENDBRANCH   6  14
BRANCH   1  22
ATOM     22  C   UNL     1       5.679   3.854  14.931  0.00  0.00    +0.000 C 
BRANCH  22  23
ATOM     23  C   UNL     1       6.471   4.149  13.686  0.00  0.00    +0.000 C 
ATOM     24  O   UNL     1       6.352   3.530  12.636  0.00  0.00    +0.000 OA
BRANCH  23  26
ATOM     25  C   UNL     1       8.136   5.501  12.762  0.00  0.00    +0.000 C 
ATOM     26  O   UNL     1       7.261   5.244  13.862  0.00  0.00    +0.000 OA
ENDBRANCH  23  26
ENDBRANCH  22  23
ENDBRANCH   1  22
BRANCH  12  27
ATOM     27  C   UNL     1       8.044   5.299  18.377  0.00  0.00    +0.000 C 
BRANCH  27  28
ATOM     28  O   UNL     1       8.401   5.993  19.568  0.00  0.00    +0.000 OA
ATOM     29  H   UNL     1       8.767   5.346  20.198  0.00  0.00    +0.000 HD
ENDBRANCH  27  28
ENDBRANCH  12  27
TORSDOF 8
ENDMDL
