MODEL 1
REMARK VINA RESULT:      -7.6      0.000      0.000
REMARK  Name = 
REMARK  3 active torsions:
REMARK  status: ('A' for Active; 'I' for Inactive)
REMARK    1  A    between atoms: C_1  and  C_2
REMARK    2  A    between atoms: C_4  and  C_5
REMARK    3  A    between atoms: C_15  and  C_16
REMARK                            x       y       z     vdW  Elec       q    Type
REMARK                         _______ _______ _______ _____ _____    ______ ____
ROOT
ATOM      1  C   UNL     1      10.868  14.016  20.404  0.00  0.00    +0.000 C 
ATOM      2  C   UNL     1       9.654  14.845  20.816  0.00  0.00    +0.000 C 
ATOM      3  O   UNL     1       9.425  14.401  22.173  0.00  0.00    +0.000 OA
ATOM      4  C   UNL     1       8.372  15.134  22.795  0.00  0.00    +0.000 C 
ATOM      5  C   UNL     1       8.257  14.654  24.236  0.00  0.00    +0.000 C 
ATOM      6  C   UNL     1       7.057  14.887  22.053  0.00  0.00    +0.000 C 
ATOM      7  N   UNL     1       7.182  15.239  20.619  0.00  0.00    +0.000 N 
ATOM      8  C   UNL     1       5.954  15.279  19.917  0.00  0.00    +0.000 A 
ATOM      9  C   UNL     1       5.871  14.910  18.556  0.00  0.00    +0.000 A 
ATOM     10  C   UNL     1       4.614  14.850  17.861  0.00  0.00    +0.000 A 
ATOM     11  C   UNL     1       3.454  15.414  18.468  0.00  0.00    +0.000 A 
ATOM     12  C   UNL     1       2.308  16.158  18.010  0.00  0.00    +0.000 A 
ATOM     13  N   UNL     1       0.922  16.088  18.465  0.00  0.00    +0.000 N 
ATOM     14  C   UNL     1       0.049  17.171  18.389  0.00  0.00    +0.000 A 
ATOM     15  C   UNL     1      -1.005  16.939  19.233  0.00  0.00    +0.000 A 
ATOM     16  C   UNL     1      -0.787  15.622  19.676  0.00  0.00    +0.000 A 
ATOM     17  N   UNL     1       0.345  15.082  19.198  0.00  0.00    +0.000 NA
ATOM     18  N   UNL     1       2.711  17.446  18.078  0.00  0.00    +0.000 NA
ATOM     19  O   UNL     1       3.261  17.436  19.401  0.00  0.00    +0.000 OA
ATOM     20  C   UNL     1       3.785  16.171  19.584  0.00  0.00    +0.000 A 
ATOM     21  C   UNL     1       4.819  15.913  20.462  0.00  0.00    +0.000 A 
ATOM     22  F   UNL     1       4.864  16.590  21.618  0.00  0.00    +0.000 F 
ATOM     23  C   UNL     1       7.146  14.776  17.740  0.00  0.00    +0.000 C 
ATOM     24  C   UNL     1       8.453  15.204  18.473  0.00  0.00    +0.000 C 
ATOM     25  C   UNL     1       9.572  14.542  17.707  0.00  0.00    +0.000 C 
ATOM     26  O   UNL     1       9.634  13.307  17.536  0.00  0.00    +0.000 OA
ATOM     27  N   UNL     1      10.576  15.330  17.218  0.00  0.00    +0.000 N 
ATOM     28  C   UNL     1      10.789  16.639  17.513  0.00  0.00    +0.000 C 
ATOM     29  O   UNL     1      11.757  17.249  17.079  0.00  0.00    +0.000 OA
ATOM     30  N   UNL     1       9.849  17.233  18.298  0.00  0.00    +0.000 N 
ATOM     31  C   UNL     1       8.594  16.733  18.463  0.00  0.00    +0.000 C 
ATOM     32  O   UNL     1       7.660  17.526  18.572  0.00  0.00    +0.000 OA
ATOM     33  C   UNL     1       8.369  14.640  19.923  0.00  0.00    +0.000 C 
ATOM     34  H   UNL     1      11.320  14.869  16.701  0.00  0.00    +0.000 HD
ATOM     35  H   UNL     1       9.917  18.243  18.311  0.00  0.00    +0.000 HD
ENDROOT
BRANCH  15  36
ATOM     36  C   UNL     1      -2.029  17.871  19.565  0.00  0.00    +0.000 C 
ATOM     37  N   UNL     1      -2.861  18.631  19.855  0.00  0.00    +0.000 NA
ENDBRANCH  15  36
TORSDOF 1
ENDMDL
MODEL 2
REMARK VINA RESULT:      -7.4      3.697      6.902
REMARK  Name = 
REMARK  3 active torsions:
REMARK  status: ('A' for Active; 'I' for Inactive)
REMARK    1  A    between atoms: C_1  and  C_2
REMARK    2  A    between atoms: C_4  and  C_5
REMARK    3  A    between atoms: C_15  and  C_16
REMARK                            x       y       z     vdW  Elec       q    Type
REMARK                         _______ _______ _______ _____ _____    ______ ____
ROOT
ATOM      1  C   UNL     1       9.028  17.773  18.127  0.00  0.00    +0.000 C 
ATOM      2  C   UNL     1       8.082  16.696  18.654  0.00  0.00    +0.000 C 
ATOM      3  O   UNL     1       6.790  17.330  18.518  0.00  0.00    +0.000 OA
ATOM      4  C   UNL     1       5.730  16.442  18.871  0.00  0.00    +0.000 C 
ATOM      5  C   UNL     1       4.413  17.167  18.623  0.00  0.00    +0.000 C 
ATOM      6  C   UNL     1       5.846  16.054  20.347  0.00  0.00    +0.000 C 
ATOM      7  N   UNL     1       7.169  15.452  20.634  0.00  0.00    +0.000 N 
ATOM      8  C   UNL     1       7.269  14.840  21.906  0.00  0.00    +0.000 A 
ATOM      9  C   UNL     1       8.481  14.842  22.632  0.00  0.00    +0.000 A 
ATOM     10  C   UNL     1       8.568  14.312  23.966  0.00  0.00    +0.000 A 
ATOM     11  C   UNL     1       7.486  13.540  24.482  0.00  0.00    +0.000 A 
ATOM     12  C   UNL     1       7.358  12.368  25.310  0.00  0.00    +0.000 A 
ATOM     13  N   UNL     1       6.355  12.064  26.328  0.00  0.00    +0.000 N 
ATOM     14  C   UNL     1       5.980  10.762  26.649  0.00  0.00    +0.000 A 
ATOM     15  C   UNL     1       4.780  10.806  27.308  0.00  0.00    +0.000 A 
ATOM     16  C   UNL     1       4.557  12.182  27.492  0.00  0.00    +0.000 A 
ATOM     17  N   UNL     1       5.509  12.952  26.942  0.00  0.00    +0.000 NA
ATOM     18  N   UNL     1       7.392  11.345  24.429  0.00  0.00    +0.000 NA
ATOM     19  O   UNL     1       6.438  11.839  23.480  0.00  0.00    +0.000 OA
ATOM     20  C   UNL     1       6.578  13.213  23.484  0.00  0.00    +0.000 A 
ATOM     21  C   UNL     1       6.250  13.998  22.396  0.00  0.00    +0.000 A 
ATOM     22  F   UNL     1       5.187  13.655  21.655  0.00  0.00    +0.000 F 
ATOM     23  C   UNL     1       9.773  15.213  21.925  0.00  0.00    +0.000 C 
ATOM     24  C   UNL     1       9.651  15.432  20.386  0.00  0.00    +0.000 C 
ATOM     25  C   UNL     1      10.864  16.244  20.004  0.00  0.00    +0.000 C 
ATOM     26  O   UNL     1      11.121  17.354  20.513  0.00  0.00    +0.000 OA
ATOM     27  N   UNL     1      11.689  15.755  19.029  0.00  0.00    +0.000 N 
ATOM     28  C   UNL     1      11.434  14.699  18.214  0.00  0.00    +0.000 C 
ATOM     29  O   UNL     1      12.204  14.373  17.320  0.00  0.00    +0.000 OA
ATOM     30  N   UNL     1      10.286  14.014  18.467  0.00  0.00    +0.000 N 
ATOM     31  C   UNL     1       9.626  14.081  19.656  0.00  0.00    +0.000 C 
ATOM     32  O   UNL     1       9.076  13.065  20.076  0.00  0.00    +0.000 OA
ATOM     33  C   UNL     1       8.344  16.245  20.143  0.00  0.00    +0.000 C 
ATOM     34  H   UNL     1      12.503  16.312  18.786  0.00  0.00    +0.000 HD
ATOM     35  H   UNL     1      10.241  13.118  17.998  0.00  0.00    +0.000 HD
ENDROOT
BRANCH  15  36
ATOM     36  C   UNL     1       3.983   9.681  27.665  0.00  0.00    +0.000 C 
ATOM     37  N   UNL     1       3.348   8.750  27.956  0.00  0.00    +0.000 NA
ENDBRANCH  15  36
TORSDOF 1
ENDMDL
MODEL 3
REMARK VINA RESULT:      -7.3      7.305     11.237
REMARK  Name = 
REMARK  3 active torsions:
REMARK  status: ('A' for Active; 'I' for Inactive)
REMARK    1  A    between atoms: C_1  and  C_2
REMARK    2  A    between atoms: C_4  and  C_5
REMARK    3  A    between atoms: C_15  and  C_16
REMARK                            x       y       z     vdW  Elec       q    Type
REMARK                         _______ _______ _______ _____ _____    ______ ____
ROOT
ATOM      1  C   UNL     1      -3.116  13.133  20.923  0.00  0.00    +0.000 C 
ATOM      2  C   UNL     1      -2.356  12.483  19.769  0.00  0.00    +0.000 C 
ATOM      3  O   UNL     1      -3.429  11.979  18.941  0.00  0.00    +0.000 OA
ATOM      4  C   UNL     1      -2.934  11.405  17.732  0.00  0.00    +0.000 C 
ATOM      5  C   UNL     1      -4.132  10.976  16.894  0.00  0.00    +0.000 C 
ATOM      6  C   UNL     1      -2.056  10.193  18.052  0.00  0.00    +0.000 C 
ATOM      7  N   UNL     1      -0.948  10.566  18.963  0.00  0.00    +0.000 N 
ATOM      8  C   UNL     1       0.047   9.571  19.109  0.00  0.00    +0.000 A 
ATOM      9  C   UNL     1       0.740   9.396  20.328  0.00  0.00    +0.000 A 
ATOM     10  C   UNL     1       1.681   8.325  20.519  0.00  0.00    +0.000 A 
ATOM     11  C   UNL     1       2.122   7.575  19.390  0.00  0.00    +0.000 A 
ATOM     12  C   UNL     1       3.369   6.993  18.963  0.00  0.00    +0.000 A 
ATOM     13  N   UNL     1       3.605   5.736  18.256  0.00  0.00    +0.000 N 
ATOM     14  C   UNL     1       4.701   5.537  17.421  0.00  0.00    +0.000 A 
ATOM     15  C   UNL     1       4.442   4.462  16.612  0.00  0.00    +0.000 A 
ATOM     16  C   UNL     1       3.231   3.957  17.118  0.00  0.00    +0.000 A 
ATOM     17  N   UNL     1       2.731   4.688  18.127  0.00  0.00    +0.000 NA
ATOM     18  N   UNL     1       3.970   7.987  18.272  0.00  0.00    +0.000 NA
ATOM     19  O   UNL     1       2.868   8.375  17.441  0.00  0.00    +0.000 OA
ATOM     20  C   UNL     1       1.732   8.175  18.201  0.00  0.00    +0.000 A 
ATOM     21  C   UNL     1       0.564   8.882  17.993  0.00  0.00    +0.000 A 
ATOM     22  F   UNL     1       0.217   9.193  16.736  0.00  0.00    +0.000 F 
ATOM     23  C   UNL     1       0.658  10.474  21.395  0.00  0.00    +0.000 C 
ATOM     24  C   UNL     1      -0.096  11.772  20.973  0.00  0.00    +0.000 C 
ATOM     25  C   UNL     1      -0.479  12.447  22.267  0.00  0.00    +0.000 C 
ATOM     26  O   UNL     1      -1.172  11.886  23.141  0.00  0.00    +0.000 OA
ATOM     27  N   UNL     1      -0.080  13.739  22.466  0.00  0.00    +0.000 N 
ATOM     28  C   UNL     1       0.465  14.566  21.535  0.00  0.00    +0.000 C 
ATOM     29  O   UNL     1       0.730  15.734  21.786  0.00  0.00    +0.000 OA
ATOM     30  N   UNL     1       0.717  14.010  20.320  0.00  0.00    +0.000 N 
ATOM     31  C   UNL     1       0.817  12.666  20.122  0.00  0.00    +0.000 C 
ATOM     32  O   UNL     1       1.634  12.257  19.300  0.00  0.00    +0.000 OA
ATOM     33  C   UNL     1      -1.365  11.327  20.187  0.00  0.00    +0.000 C 
ATOM     34  H   UNL     1      -0.343  14.177  23.344  0.00  0.00    +0.000 HD
ATOM     35  H   UNL     1       1.318  14.578  19.735  0.00  0.00    +0.000 HD
ENDROOT
BRANCH  15  36
ATOM     36  C   UNL     1       5.240   4.031  15.514  0.00  0.00    +0.000 C 
ATOM     37  N   UNL     1       5.909   3.685  14.628  0.00  0.00    +0.000 NA
ENDBRANCH  15  36
TORSDOF 1
ENDMDL
MODEL 4
REMARK VINA RESULT:      -7.1      9.057     10.078
REMARK  Name = 
REMARK  3 active torsions:
REMARK  status: ('A' for Active; 'I' for Inactive)
REMARK    1  A    between atoms: C_1  and  C_2
REMARK    2  A    between atoms: C_4  and  C_5
REMARK    3  A    between atoms: C_15  and  C_16
REMARK                            x       y       z     vdW  Elec       q    Type
REMARK                         _______ _______ _______ _____ _____    ______ ____
ROOT
ATOM      1  C   UNL     1       4.349   1.779  18.398  0.00  0.00    +0.000 C 
ATOM      2  C   UNL     1       3.892   2.895  19.334  0.00  0.00    +0.000 C 
ATOM      3  O   UNL     1       2.865   2.241  20.113  0.00  0.00    +0.000 OA
ATOM      4  C   UNL     1       2.358   3.094  21.138  0.00  0.00    +0.000 C 
ATOM      5  C   UNL     1       1.345   2.298  21.950  0.00  0.00    +0.000 C 
ATOM      6  C   UNL     1       1.685   4.317  20.510  0.00  0.00    +0.000 C 
ATOM      7  N   UNL     1       2.622   5.042  19.621  0.00  0.00    +0.000 N 
ATOM      8  C   UNL     1       2.164   6.313  19.201  0.00  0.00    +0.000 A 
ATOM      9  C   UNL     1       2.489   6.828  17.926  0.00  0.00    +0.000 A 
ATOM     10  C   UNL     1       1.947   8.072  17.450  0.00  0.00    +0.000 A 
ATOM     11  C   UNL     1       1.273   8.935  18.363  0.00  0.00    +0.000 A 
ATOM     12  C   UNL     1       1.195  10.358  18.571  0.00  0.00    +0.000 A 
ATOM     13  N   UNL     1       0.051  11.169  18.982  0.00  0.00    +0.000 N 
ATOM     14  C   UNL     1       0.188  12.367  19.677  0.00  0.00    +0.000 A 
ATOM     15  C   UNL     1      -1.013  12.671  20.260  0.00  0.00    +0.000 A 
ATOM     16  C   UNL     1      -1.883  11.693  19.748  0.00  0.00    +0.000 A 
ATOM     17  N   UNL     1      -1.270  10.803  18.951  0.00  0.00    +0.000 NA
ATOM     18  N   UNL     1       2.222  10.620  19.409  0.00  0.00    +0.000 NA
ATOM     19  O   UNL     1       1.982   9.592  20.378  0.00  0.00    +0.000 OA
ATOM     20  C   UNL     1       1.458   8.524  19.676  0.00  0.00    +0.000 A 
ATOM     21  C   UNL     1       1.578   7.218  20.109  0.00  0.00    +0.000 A 
ATOM     22  F   UNL     1       1.510   6.969  21.424  0.00  0.00    +0.000 F 
ATOM     23  C   UNL     1       3.595   6.174  17.116  0.00  0.00    +0.000 C 
ATOM     24  C   UNL     1       4.380   5.045  17.851  0.00  0.00    +0.000 C 
ATOM     25  C   UNL     1       5.037   4.241  16.756  0.00  0.00    +0.000 C 
ATOM     26  O   UNL     1       4.390   3.699  15.836  0.00  0.00    +0.000 OA
ATOM     27  N   UNL     1       6.392   4.070  16.804  0.00  0.00    +0.000 N 
ATOM     28  C   UNL     1       7.208   4.381  17.845  0.00  0.00    +0.000 C 
ATOM     29  O   UNL     1       8.405   4.129  17.825  0.00  0.00    +0.000 OA
ATOM     30  N   UNL     1       6.616   5.009  18.897  0.00  0.00    +0.000 N 
ATOM     31  C   UNL     1       5.420   5.653  18.803  0.00  0.00    +0.000 C 
ATOM     32  O   UNL     1       5.257   6.679  19.461  0.00  0.00    +0.000 OA
ATOM     33  C   UNL     1       3.331   4.183  18.615  0.00  0.00    +0.000 C 
ATOM     34  H   UNL     1       6.819   3.529  16.057  0.00  0.00    +0.000 HD
ATOM     35  H   UNL     1       7.278   5.421  19.543  0.00  0.00    +0.000 HD
ENDROOT
BRANCH  15  36
ATOM     36  C   UNL     1      -1.248  13.729  21.185  0.00  0.00    +0.000 C 
ATOM     37  N   UNL     1      -1.443  14.605  21.924  0.00  0.00    +0.000 NA
ENDBRANCH  15  36
TORSDOF 1
ENDMDL
MODEL 5
REMARK VINA RESULT:      -6.9      9.064     10.286
REMARK  Name = 
REMARK  3 active torsions:
REMARK  status: ('A' for Active; 'I' for Inactive)
REMARK    1  A    between atoms: C_1  and  C_2
REMARK    2  A    between atoms: C_4  and  C_5
REMARK    3  A    between atoms: C_15  and  C_16
REMARK                            x       y       z     vdW  Elec       q    Type
REMARK                         _______ _______ _______ _____ _____    ______ ____
ROOT
ATOM      1  C   UNL     1       4.530   2.276  16.546  0.00  0.00    +0.000 C 
ATOM      2  C   UNL     1       3.842   2.959  17.726  0.00  0.00    +0.000 C 
ATOM      3  O   UNL     1       2.645   2.164  17.884  0.00  0.00    +0.000 OA
ATOM      4  C   UNL     1       1.885   2.578  19.019  0.00  0.00    +0.000 C 
ATOM      5  C   UNL     1       0.693   1.640  19.150  0.00  0.00    +0.000 C 
ATOM      6  C   UNL     1       1.403   4.017  18.824  0.00  0.00    +0.000 C 
ATOM      7  N   UNL     1       2.543   4.931  18.578  0.00  0.00    +0.000 N 
ATOM      8  C   UNL     1       2.213   6.306  18.636  0.00  0.00    +0.000 A 
ATOM      9  C   UNL     1       2.864   7.255  17.817  0.00  0.00    +0.000 A 
ATOM     10  C   UNL     1       2.468   8.638  17.796  0.00  0.00    +0.000 A 
ATOM     11  C   UNL     1       1.578   9.124  18.797  0.00  0.00    +0.000 A 
ATOM     12  C   UNL     1       1.448  10.339  19.560  0.00  0.00    +0.000 A 
ATOM     13  N   UNL     1       0.237  11.035  19.987  0.00  0.00    +0.000 N 
ATOM     14  C   UNL     1       0.186  11.824  21.133  0.00  0.00    +0.000 A 
ATOM     15  C   UNL     1      -1.127  11.997  21.483  0.00  0.00    +0.000 A 
ATOM     16  C   UNL     1      -1.831  11.416  20.414  0.00  0.00    +0.000 A 
ATOM     17  N   UNL     1      -1.029  10.864  19.488  0.00  0.00    +0.000 NA
ATOM     18  N   UNL     1       2.217  10.120  20.649  0.00  0.00    +0.000 NA
ATOM     19  O   UNL     1       1.728   8.821  21.006  0.00  0.00    +0.000 OA
ATOM     20  C   UNL     1       1.409   8.197  19.816  0.00  0.00    +0.000 A 
ATOM     21  C   UNL     1       1.408   6.823  19.672  0.00  0.00    +0.000 A 
ATOM     22  F   UNL     1       0.995   6.070  20.701  0.00  0.00    +0.000 F 
ATOM     23  C   UNL     1       4.145   6.867  17.098  0.00  0.00    +0.000 C 
ATOM     24  C   UNL     1       4.706   5.457  17.453  0.00  0.00    +0.000 C 
ATOM     25  C   UNL     1       5.629   5.099  16.314  0.00  0.00    +0.000 C 
ATOM     26  O   UNL     1       5.249   5.055  15.126  0.00  0.00    +0.000 OA
ATOM     27  N   UNL     1       6.924   4.772  16.608  0.00  0.00    +0.000 N 
ATOM     28  C   UNL     1       7.434   4.540  17.846  0.00  0.00    +0.000 C 
ATOM     29  O   UNL     1       8.594   4.185  18.009  0.00  0.00    +0.000 OA
ATOM     30  N   UNL     1       6.586   4.748  18.889  0.00  0.00    +0.000 N 
ATOM     31  C   UNL     1       5.458   5.504  18.791  0.00  0.00    +0.000 C 
ATOM     32  O   UNL     1       5.127   6.184  19.760  0.00  0.00    +0.000 OA
ATOM     33  C   UNL     1       3.492   4.482  17.506  0.00  0.00    +0.000 C 
ATOM     34  H   UNL     1       7.533   4.538  15.830  0.00  0.00    +0.000 HD
ATOM     35  H   UNL     1       7.054   4.784  19.786  0.00  0.00    +0.000 HD
ENDROOT
BRANCH  15  36
ATOM     36  C   UNL     1      -1.598  12.606  22.681  0.00  0.00    +0.000 C 
ATOM     37  N   UNL     1      -1.973  13.121  23.654  0.00  0.00    +0.000 NA
ENDBRANCH  15  36
TORSDOF 1
ENDMDL
MODEL 6
REMARK VINA RESULT:      -6.7      7.136     10.515
REMARK  Name = 
REMARK  3 active torsions:
REMARK  status: ('A' for Active; 'I' for Inactive)
REMARK    1  A    between atoms: C_1  and  C_2
REMARK    2  A    between atoms: C_4  and  C_5
REMARK    3  A    between atoms: C_15  and  C_16
REMARK                            x       y       z     vdW  Elec       q    Type
REMARK                         _______ _______ _______ _____ _____    ______ ____
ROOT
ATOM      1  C   UNL     1      -3.053  16.129  21.530  0.00  0.00    +0.000 C 
ATOM      2  C   UNL     1      -3.005  14.859  20.684  0.00  0.00    +0.000 C 
ATOM      3  O   UNL     1      -4.238  14.199  21.050  0.00  0.00    +0.000 OA
ATOM      4  C   UNL     1      -4.446  13.012  20.287  0.00  0.00    +0.000 C 
ATOM      5  C   UNL     1      -5.798  12.433  20.683  0.00  0.00    +0.000 C 
ATOM      6  C   UNL     1      -3.335  12.002  20.584  0.00  0.00    +0.000 C 
ATOM      7  N   UNL     1      -2.000  12.587  20.315  0.00  0.00    +0.000 N 
ATOM      8  C   UNL     1      -0.940  11.651  20.323  0.00  0.00    +0.000 A 
ATOM      9  C   UNL     1       0.353  12.005  20.771  0.00  0.00    +0.000 A 
ATOM     10  C   UNL     1       1.411  11.037  20.878  0.00  0.00    +0.000 A 
ATOM     11  C   UNL     1       1.242   9.751  20.285  0.00  0.00    +0.000 A 
ATOM     12  C   UNL     1       2.086   8.824  19.576  0.00  0.00    +0.000 A 
ATOM     13  N   UNL     1       2.099   7.364  19.626  0.00  0.00    +0.000 N 
ATOM     14  C   UNL     1       2.513   6.577  18.555  0.00  0.00    +0.000 A 
ATOM     15  C   UNL     1       2.041   5.305  18.742  0.00  0.00    +0.000 A 
ATOM     16  C   UNL     1       1.479   5.351  20.030  0.00  0.00    +0.000 A 
ATOM     17  N   UNL     1       1.535   6.569  20.591  0.00  0.00    +0.000 NA
ATOM     18  N   UNL     1       1.966   9.202  18.284  0.00  0.00    +0.000 NA
ATOM     19  O   UNL     1       0.538   9.297  18.214  0.00  0.00    +0.000 OA
ATOM     20  C   UNL     1       0.125   9.716  19.463  0.00  0.00    +0.000 A 
ATOM     21  C   UNL     1      -1.053  10.410  19.664  0.00  0.00    +0.000 A 
ATOM     22  F   UNL     1      -2.121  10.089  18.920  0.00  0.00    +0.000 F 
ATOM     23  C   UNL     1       0.706  13.472  20.946  0.00  0.00    +0.000 C 
ATOM     24  C   UNL     1      -0.383  14.480  20.469  0.00  0.00    +0.000 C 
ATOM     25  C   UNL     1      -0.057  15.777  21.169  0.00  0.00    +0.000 C 
ATOM     26  O   UNL     1       0.015  15.874  22.411  0.00  0.00    +0.000 OA
ATOM     27  N   UNL     1       0.127  16.896  20.405  0.00  0.00    +0.000 N 
ATOM     28  C   UNL     1      -0.146  17.020  19.080  0.00  0.00    +0.000 C 
ATOM     29  O   UNL     1      -0.013  18.085  18.491  0.00  0.00    +0.000 OA
ATOM     30  N   UNL     1      -0.551  15.886  18.446  0.00  0.00    +0.000 N 
ATOM     31  C   UNL     1      -0.332  14.637  18.942  0.00  0.00    +0.000 C 
ATOM     32  O   UNL     1      -0.090  13.730  18.150  0.00  0.00    +0.000 OA
ATOM     33  C   UNL     1      -1.758  13.926  20.947  0.00  0.00    +0.000 C 
ATOM     34  H   UNL     1       0.350  17.760  20.891  0.00  0.00    +0.000 HD
ATOM     35  H   UNL     1      -0.528  15.960  17.437  0.00  0.00    +0.000 HD
ENDROOT
BRANCH  15  36
ATOM     36  C   UNL     1       2.111   4.242  17.797  0.00  0.00    +0.000 C 
ATOM     37  N   UNL     1       2.171   3.360  17.041  0.00  0.00    +0.000 NA
ENDBRANCH  15  36
TORSDOF 1
ENDMDL
MODEL 7
REMARK VINA RESULT:      -6.7      9.258     10.855
REMARK  Name = 
REMARK  3 active torsions:
REMARK  status: ('A' for Active; 'I' for Inactive)
REMARK    1  A    between atoms: C_1  and  C_2
REMARK    2  A    between atoms: C_4  and  C_5
REMARK    3  A    between atoms: C_15  and  C_16
REMARK                            x       y       z     vdW  Elec       q    Type
REMARK                         _______ _______ _______ _____ _____    ______ ____
ROOT
ATOM      1  C   UNL     1       4.659   2.319  19.615  0.00  0.00    +0.000 C 
ATOM      2  C   UNL     1       4.412   3.646  18.902  0.00  0.00    +0.000 C 
ATOM      3  O   UNL     1       5.755   4.137  18.692  0.00  0.00    +0.000 OA
ATOM      4  C   UNL     1       5.761   5.347  17.937  0.00  0.00    +0.000 C 
ATOM      5  C   UNL     1       7.213   5.742  17.700  0.00  0.00    +0.000 C 
ATOM      6  C   UNL     1       5.038   6.448  18.716  0.00  0.00    +0.000 C 
ATOM      7  N   UNL     1       3.657   6.036  19.059  0.00  0.00    +0.000 N 
ATOM      8  C   UNL     1       2.841   7.081  19.555  0.00  0.00    +0.000 A 
ATOM      9  C   UNL     1       1.843   6.839  20.525  0.00  0.00    +0.000 A 
ATOM     10  C   UNL     1       1.077   7.907  21.109  0.00  0.00    +0.000 A 
ATOM     11  C   UNL     1       1.137   9.207  20.526  0.00  0.00    +0.000 A 
ATOM     12  C   UNL     1       0.197  10.271  20.283  0.00  0.00    +0.000 A 
ATOM     13  N   UNL     1       0.401  11.716  20.360  0.00  0.00    +0.000 N 
ATOM     14  C   UNL     1      -0.334  12.622  19.599  0.00  0.00    +0.000 A 
ATOM     15  C   UNL     1       0.335  13.816  19.579  0.00  0.00    +0.000 A 
ATOM     16  C   UNL     1       1.395  13.613  20.481  0.00  0.00    +0.000 A 
ATOM     17  N   UNL     1       1.431  12.370  20.986  0.00  0.00    +0.000 NA
ATOM     18  N   UNL     1      -0.314   9.980  19.067  0.00  0.00    +0.000 NA
ATOM     19  O   UNL     1       0.912   9.734  18.366  0.00  0.00    +0.000 OA
ATOM     20  C   UNL     1       1.773   9.179  19.293  0.00  0.00    +0.000 A 
ATOM     21  C   UNL     1       2.816   8.347  18.936  0.00  0.00    +0.000 A 
ATOM     22  F   UNL     1       3.481   8.602  17.801  0.00  0.00    +0.000 F 
ATOM     23  C   UNL     1       1.413   5.410  20.813  0.00  0.00    +0.000 C 
ATOM     24  C   UNL     1       2.038   4.327  19.883  0.00  0.00    +0.000 C 
ATOM     25  C   UNL     1       1.884   3.025  20.632  0.00  0.00    +0.000 C 
ATOM     26  O   UNL     1       2.354   2.845  21.774  0.00  0.00    +0.000 OA
ATOM     27  N   UNL     1       1.238   1.994  20.010  0.00  0.00    +0.000 N 
ATOM     28  C   UNL     1       0.882   1.939  18.700  0.00  0.00    +0.000 C 
ATOM     29  O   UNL     1       0.365   0.942  18.213  0.00  0.00    +0.000 OA
ATOM     30  N   UNL     1       1.113   3.065  17.973  0.00  0.00    +0.000 N 
ATOM     31  C   UNL     1       1.301   4.290  18.536  0.00  0.00    +0.000 C 
ATOM     32  O   UNL     1       0.857   5.276  17.951  0.00  0.00    +0.000 OA
ATOM     33  C   UNL     1       3.543   4.688  19.709  0.00  0.00    +0.000 C 
ATOM     34  H   UNL     1       1.140   1.126  20.529  0.00  0.00    +0.000 HD
ATOM     35  H   UNL     1       0.639   3.070  17.078  0.00  0.00    +0.000 HD
ENDROOT
BRANCH  15  36
ATOM     36  C   UNL     1      -0.001  14.948  18.783  0.00  0.00    +0.000 C 
ATOM     37  N   UNL     1      -0.274  15.885  18.150  0.00  0.00    +0.000 NA
ENDBRANCH  15  36
TORSDOF 1
ENDMDL
MODEL 8
REMARK VINA RESULT:      -6.6      3.262      9.345
REMARK  Name = 
REMARK  3 active torsions:
REMARK  status: ('A' for Active; 'I' for Inactive)
REMARK    1  A    between atoms: C_1  and  C_2
REMARK    2  A    between atoms: C_4  and  C_5
REMARK    3  A    between atoms: C_15  and  C_16
REMARK                            x       y       z     vdW  Elec       q    Type
REMARK                         _______ _______ _______ _____ _____    ______ ____
ROOT
ATOM      1  C   UNL     1      -2.782  12.644  21.152  0.00  0.00    +0.000 C 
ATOM      2  C   UNL     1      -1.648  12.855  20.151  0.00  0.00    +0.000 C 
ATOM      3  O   UNL     1      -1.359  11.503  19.727  0.00  0.00    +0.000 OA
ATOM      4  C   UNL     1      -0.373  11.475  18.696  0.00  0.00    +0.000 C 
ATOM      5  C   UNL     1      -0.193  10.026  18.262  0.00  0.00    +0.000 C 
ATOM      6  C   UNL     1       0.950  12.033  19.227  0.00  0.00    +0.000 C 
ATOM      7  N   UNL     1       0.771  13.403  19.763  0.00  0.00    +0.000 N 
ATOM      8  C   UNL     1       1.980  14.083  20.042  0.00  0.00    +0.000 A 
ATOM      9  C   UNL     1       2.080  15.000  21.113  0.00  0.00    +0.000 A 
ATOM     10  C   UNL     1       3.328  15.620  21.467  0.00  0.00    +0.000 A 
ATOM     11  C   UNL     1       4.436  15.516  20.576  0.00  0.00    +0.000 A 
ATOM     12  C   UNL     1       5.498  16.389  20.145  0.00  0.00    +0.000 A 
ATOM     13  N   UNL     1       6.891  16.067  19.845  0.00  0.00    +0.000 N 
ATOM     14  C   UNL     1       7.654  16.799  18.939  0.00  0.00    +0.000 A 
ATOM     15  C   UNL     1       8.736  16.044  18.573  0.00  0.00    +0.000 A 
ATOM     16  C   UNL     1       8.653  14.921  19.416  0.00  0.00    +0.000 A 
ATOM     17  N   UNL     1       7.571  14.934  20.211  0.00  0.00    +0.000 NA
ATOM     18  N   UNL     1       4.974  17.035  19.081  0.00  0.00    +0.000 NA
ATOM     19  O   UNL     1       4.445  15.905  18.376  0.00  0.00    +0.000 OA
ATOM     20  C   UNL     1       4.049  15.005  19.345  0.00  0.00    +0.000 A 
ATOM     21  C   UNL     1       3.056  14.069  19.131  0.00  0.00    +0.000 A 
ATOM     22  F   UNL     1       2.962  13.498  17.922  0.00  0.00    +0.000 F 
ATOM     23  C   UNL     1       0.813  15.510  21.778  0.00  0.00    +0.000 C 
ATOM     24  C   UNL     1      -0.520  15.063  21.104  0.00  0.00    +0.000 C 
ATOM     25  C   UNL     1      -1.580  15.245  22.163  0.00  0.00    +0.000 C 
ATOM     26  O   UNL     1      -1.525  14.684  23.276  0.00  0.00    +0.000 OA
ATOM     27  N   UNL     1      -2.662  16.027  21.867  0.00  0.00    +0.000 N 
ATOM     28  C   UNL     1      -2.996  16.510  20.641  0.00  0.00    +0.000 C 
ATOM     29  O   UNL     1      -4.024  17.147  20.458  0.00  0.00    +0.000 OA
ATOM     30  N   UNL     1      -2.107  16.262  19.642  0.00  0.00    +0.000 N 
ATOM     31  C   UNL     1      -0.807  15.927  19.867  0.00  0.00    +0.000 C 
ATOM     32  O   UNL     1       0.047  16.346  19.089  0.00  0.00    +0.000 OA
ATOM     33  C   UNL     1      -0.362  13.558  20.735  0.00  0.00    +0.000 C 
ATOM     34  H   UNL     1      -3.364  16.142  22.591  0.00  0.00    +0.000 HD
ATOM     35  H   UNL     1      -2.272  16.818  18.811  0.00  0.00    +0.000 HD
ENDROOT
BRANCH  15  36
ATOM     36  C   UNL     1       9.671  16.366  17.547  0.00  0.00    +0.000 C 
ATOM     37  N   UNL     1      10.443  16.611  16.713  0.00  0.00    +0.000 NA
ENDBRANCH  15  36
TORSDOF 1
ENDMDL
MODEL 9
REMARK VINA RESULT:      -6.6      2.876      9.208
REMARK  Name = 
REMARK  3 active torsions:
REMARK  status: ('A' for Active; 'I' for Inactive)
REMARK    1  A    between atoms: C_1  and  C_2
REMARK    2  A    between atoms: C_4  and  C_5
REMARK    3  A    between atoms: C_15  and  C_16
REMARK                            x       y       z     vdW  Elec       q    Type
REMARK                         _______ _______ _______ _____ _____    ______ ____
ROOT
ATOM      1  C   UNL     1      -2.742  13.980  20.825  0.00  0.00    +0.000 C 
ATOM      2  C   UNL     1      -1.527  13.769  19.925  0.00  0.00    +0.000 C 
ATOM      3  O   UNL     1      -1.434  12.328  19.866  0.00  0.00    +0.000 OA
ATOM      4  C   UNL     1      -0.402  11.903  18.979  0.00  0.00    +0.000 C 
ATOM      5  C   UNL     1      -0.432  10.381  18.922  0.00  0.00    +0.000 C 
ATOM      6  C   UNL     1       0.957  12.383  19.494  0.00  0.00    +0.000 C 
ATOM      7  N   UNL     1       0.969  13.855  19.668  0.00  0.00    +0.000 N 
ATOM      8  C   UNL     1       2.252  14.405  19.899  0.00  0.00    +0.000 A 
ATOM      9  C   UNL     1       2.430  15.537  20.725  0.00  0.00    +0.000 A 
ATOM     10  C   UNL     1       3.737  16.044  21.048  0.00  0.00    +0.000 A 
ATOM     11  C   UNL     1       4.868  15.564  20.326  0.00  0.00    +0.000 A 
ATOM     12  C   UNL     1       6.084  16.141  19.811  0.00  0.00    +0.000 A 
ATOM     13  N   UNL     1       7.422  15.560  19.740  0.00  0.00    +0.000 N 
ATOM     14  C   UNL     1       8.351  15.925  18.769  0.00  0.00    +0.000 A 
ATOM     15  C   UNL     1       9.317  14.957  18.706  0.00  0.00    +0.000 A 
ATOM     16  C   UNL     1       8.999  14.105  19.779  0.00  0.00    +0.000 A 
ATOM     17  N   UNL     1       7.884  14.471  20.433  0.00  0.00    +0.000 NA
ATOM     18  N   UNL     1       5.741  16.566  18.576  0.00  0.00    +0.000 NA
ATOM     19  O   UNL     1       5.083  15.382  18.109  0.00  0.00    +0.000 OA
ATOM     20  C   UNL     1       4.483  14.820  19.219  0.00  0.00    +0.000 A 
ATOM     21  C   UNL     1       3.367  14.010  19.133  0.00  0.00    +0.000 A 
ATOM     22  F   UNL     1       3.260  13.173  18.091  0.00  0.00    +0.000 F 
ATOM     23  C   UNL     1       1.223  16.372  21.117  0.00  0.00    +0.000 C 
ATOM     24  C   UNL     1      -0.118  15.964  20.436  0.00  0.00    +0.000 C 
ATOM     25  C   UNL     1      -1.201  16.554  21.306  0.00  0.00    +0.000 C 
ATOM     26  O   UNL     1      -1.310  16.288  22.521  0.00  0.00    +0.000 OA
ATOM     27  N   UNL     1      -2.120  17.381  20.723  0.00  0.00    +0.000 N 
ATOM     28  C   UNL     1      -2.292  17.584  19.391  0.00  0.00    +0.000 C 
ATOM     29  O   UNL     1      -3.189  18.293  18.956  0.00  0.00    +0.000 OA
ATOM     30  N   UNL     1      -1.393  16.970  18.575  0.00  0.00    +0.000 N 
ATOM     31  C   UNL     1      -0.181  16.521  19.006  0.00  0.00    +0.000 C 
ATOM     32  O   UNL     1       0.778  16.607  18.242  0.00  0.00    +0.000 OA
ATOM     33  C   UNL     1      -0.184  14.407  20.453  0.00  0.00    +0.000 C 
ATOM     34  H   UNL     1      -2.840  17.773  21.324  0.00  0.00    +0.000 HD
ATOM     35  H   UNL     1      -1.411  17.317  17.624  0.00  0.00    +0.000 HD
ENDROOT
BRANCH  15  36
ATOM     36  C   UNL     1      10.356  14.875  17.735  0.00  0.00    +0.000 C 
ATOM     37  N   UNL     1      11.206  14.830  16.943  0.00  0.00    +0.000 NA
ENDBRANCH  15  36
TORSDOF 1
ENDMDL
