MODEL 1
REMARK VINA RESULT:      -7.7      0.000      0.000
REMARK  Name = 
REMARK  5 active torsions:
REMARK  status: ('A' for Active; 'I' for Inactive)
REMARK    1  A    between atoms: C_2  and  C_3
REMARK    2  A    between atoms: C_6  and  N_7
REMARK    3  A    between atoms: C_10  and  S_11
REMARK    4  A    between atoms: C_13  and  C_14
REMARK    5  A    between atoms: C_14  and  C_15
REMARK                            x       y       z     vdW  Elec       q    Type
REMARK                         _______ _______ _______ _____ _____    ______ ____
ROOT
ATOM      1  N   UNL     1       2.178   7.808  19.553  0.00  0.00    +0.000 N 
ATOM      2  C   UNL     1       2.584   6.478  19.700  0.00  0.00    +0.000 A 
ATOM      3  N   UNL     1       1.847   5.615  20.382  0.00  0.00    +0.000 NA
ATOM      4  C   UNL     1       2.356   4.401  20.531  0.00  0.00    +0.000 A 
ATOM      5  N   UNL     1       3.529   3.999  20.069  0.00  0.00    +0.000 NA
ATOM      6  C   UNL     1       4.201   4.922  19.387  0.00  0.00    +0.000 A 
ATOM      7  N   UNL     1       3.762   6.165  19.163  0.00  0.00    +0.000 NA
ATOM      8  H   UNL     1       2.884   8.314  19.037  0.00  0.00    +0.000 HD
ENDROOT
BRANCH   1  12
ATOM      9  C   UNL     1      -0.385  10.228  21.898  0.00  0.00    +0.000 A 
ATOM     10  C   UNL     1      -0.354  10.354  20.507  0.00  0.00    +0.000 A 
ATOM     11  C   UNL     1       0.483   9.528  19.744  0.00  0.00    +0.000 A 
ATOM     12  C   UNL     1       1.314   8.576  20.351  0.00  0.00    +0.000 A 
ATOM     13  C   UNL     1       1.240   8.449  21.746  0.00  0.00    +0.000 A 
ATOM     14  C   UNL     1       0.412   9.269  22.515  0.00  0.00    +0.000 A 
BRANCH   9  16
ATOM     15  N   UNL     1      -1.914  11.748  23.338  0.00  0.00    +0.000 NA
ATOM     16  C   UNL     1      -1.227  11.072  22.688  0.00  0.00    +0.000 C 
ENDBRANCH   9  16
ENDBRANCH   1  12
BRANCH   4  17
ATOM     17  S   UNL     1       1.375   3.251  21.444  0.00  0.00    +0.000 S 
ATOM     18  H   UNL     1       0.288   3.448  20.690  0.00  0.00    +0.000 HD
ENDBRANCH   4  17
BRANCH   6  19
ATOM     19  C   UNL     1       5.593   4.567  18.923  0.00  0.00    +0.000 C 
BRANCH  19  20
ATOM     20  C   UNL     1       5.832   4.715  17.435  0.00  0.00    +0.000 A 
ATOM     21  C   UNL     1       6.765   5.643  16.934  0.00  0.00    +0.000 A 
ATOM     22 CL   UNL     1       7.638   6.724  17.965  0.00  0.00    +0.000 Cl
ATOM     23  C   UNL     1       7.045   5.721  15.564  0.00  0.00    +0.000 A 
ATOM     24  C   UNL     1       6.394   4.883  14.665  0.00  0.00    +0.000 A 
ATOM     25  C   UNL     1       5.440   3.985  15.132  0.00  0.00    +0.000 A 
ATOM     26  C   UNL     1       5.150   3.911  16.500  0.00  0.00    +0.000 A 
ATOM     27 CL   UNL     1       3.935   2.772  16.969  0.00  0.00    +0.000 Cl
ENDBRANCH  19  20
ENDBRANCH   6  19
TORSDOF 5
ENDMDL
MODEL 2
REMARK VINA RESULT:      -7.7      0.102      1.833
REMARK  Name = 
REMARK  5 active torsions:
REMARK  status: ('A' for Active; 'I' for Inactive)
REMARK    1  A    between atoms: C_2  and  C_3
REMARK    2  A    between atoms: C_6  and  N_7
REMARK    3  A    between atoms: C_10  and  S_11
REMARK    4  A    between atoms: C_13  and  C_14
REMARK    5  A    between atoms: C_14  and  C_15
REMARK                            x       y       z     vdW  Elec       q    Type
REMARK                         _______ _______ _______ _____ _____    ______ ____
ROOT
ATOM      1  N   UNL     1       2.183   7.850  19.616  0.00  0.00    +0.000 N 
ATOM      2  C   UNL     1       2.570   6.511  19.741  0.00  0.00    +0.000 A 
ATOM      3  N   UNL     1       1.803   5.641  20.380  0.00  0.00    +0.000 NA
ATOM      4  C   UNL     1       2.294   4.418  20.512  0.00  0.00    +0.000 A 
ATOM      5  N   UNL     1       3.475   4.012  20.074  0.00  0.00    +0.000 NA
ATOM      6  C   UNL     1       4.177   4.944  19.436  0.00  0.00    +0.000 A 
ATOM      7  N   UNL     1       3.759   6.198  19.231  0.00  0.00    +0.000 NA
ATOM      8  H   UNL     1       2.911   8.360  19.134  0.00  0.00    +0.000 HD
ENDROOT
BRANCH   1  12
ATOM      9  C   UNL     1      -0.426  10.240  21.940  0.00  0.00    +0.000 A 
ATOM     10  C   UNL     1      -0.420  10.332  20.546  0.00  0.00    +0.000 A 
ATOM     11  C   UNL     1       0.434   9.516  19.791  0.00  0.00    +0.000 A 
ATOM     12  C   UNL     1       1.306   8.608  20.409  0.00  0.00    +0.000 A 
ATOM     13  C   UNL     1       1.256   8.513  21.807  0.00  0.00    +0.000 A 
ATOM     14  C   UNL     1       0.411   9.324  22.569  0.00  0.00    +0.000 A 
BRANCH   9  16
ATOM     15  N   UNL     1      -1.992  11.753  23.347  0.00  0.00    +0.000 NA
ATOM     16  C   UNL     1      -1.285  11.075  22.722  0.00  0.00    +0.000 C 
ENDBRANCH   9  16
ENDBRANCH   1  12
BRANCH   4  17
ATOM     17  S   UNL     1       1.273   3.257  21.367  0.00  0.00    +0.000 S 
ATOM     18  H   UNL     1       2.313   2.616  21.914  0.00  0.00    +0.000 HD
ENDBRANCH   4  17
BRANCH   6  19
ATOM     19  C   UNL     1       5.578   4.584  19.003  0.00  0.00    +0.000 C 
BRANCH  19  20
ATOM     20  C   UNL     1       5.840   4.696  17.516  0.00  0.00    +0.000 A 
ATOM     21  C   UNL     1       5.146   3.895  16.589  0.00  0.00    +0.000 A 
ATOM     22 CL   UNL     1       4.015   2.681  17.081  0.00  0.00    +0.000 Cl
ATOM     23  C   UNL     1       5.329   4.058  15.210  0.00  0.00    +0.000 A 
ATOM     24  C   UNL     1       6.213   5.017  14.727  0.00  0.00    +0.000 A 
ATOM     25  C   UNL     1       6.939   5.793  15.625  0.00  0.00    +0.000 A 
ATOM     26  C   UNL     1       6.766   5.627  17.004  0.00  0.00    +0.000 A 
ATOM     27 CL   UNL     1       7.731   6.633  18.028  0.00  0.00    +0.000 Cl
ENDBRANCH  19  20
ENDBRANCH   6  19
TORSDOF 5
ENDMDL
MODEL 3
REMARK VINA RESULT:      -7.1      4.362      8.820
REMARK  Name = 
REMARK  5 active torsions:
REMARK  status: ('A' for Active; 'I' for Inactive)
REMARK    1  A    between atoms: C_2  and  C_3
REMARK    2  A    between atoms: C_6  and  N_7
REMARK    3  A    between atoms: C_10  and  S_11
REMARK    4  A    between atoms: C_13  and  C_14
REMARK    5  A    between atoms: C_14  and  C_15
REMARK                            x       y       z     vdW  Elec       q    Type
REMARK                         _______ _______ _______ _____ _____    ______ ____
ROOT
ATOM      1  N   UNL     1       2.138   8.491  18.466  0.00  0.00    +0.000 N 
ATOM      2  C   UNL     1       1.266   9.307  19.195  0.00  0.00    +0.000 A 
ATOM      3  N   UNL     1       1.083   9.115  20.492  0.00  0.00    +0.000 NA
ATOM      4  C   UNL     1       0.179   9.888  21.075  0.00  0.00    +0.000 A 
ATOM      5  N   UNL     1      -0.552  10.809  20.467  0.00  0.00    +0.000 NA
ATOM      6  C   UNL     1      -0.299  10.945  19.168  0.00  0.00    +0.000 A 
ATOM      7  N   UNL     1       0.609  10.230  18.495  0.00  0.00    +0.000 NA
ATOM      8  H   UNL     1       2.114   8.767  17.494  0.00  0.00    +0.000 HD
ENDROOT
BRANCH   1  12
ATOM      9  C   UNL     1       3.447   4.526  19.160  0.00  0.00    +0.000 A 
ATOM     10  C   UNL     1       3.862   5.230  18.027  0.00  0.00    +0.000 A 
ATOM     11  C   UNL     1       3.438   6.550  17.825  0.00  0.00    +0.000 A 
ATOM     12  C   UNL     1       2.583   7.187  18.737  0.00  0.00    +0.000 A 
ATOM     13  C   UNL     1       2.208   6.468  19.881  0.00  0.00    +0.000 A 
ATOM     14  C   UNL     1       2.623   5.151  20.090  0.00  0.00    +0.000 A 
BRANCH   9  16
ATOM     15  N   UNL     1       4.212   2.077  19.533  0.00  0.00    +0.000 NA
ATOM     16  C   UNL     1       3.865   3.174  19.372  0.00  0.00    +0.000 C 
ENDBRANCH   9  16
ENDBRANCH   1  12
BRANCH   4  17
ATOM     17  S   UNL     1      -0.069   9.631  22.805  0.00  0.00    +0.000 S 
ATOM     18  H   UNL     1       1.231   9.760  23.097  0.00  0.00    +0.000 HD
ENDBRANCH   4  17
BRANCH   6  19
ATOM     19  C   UNL     1      -1.169  11.901  18.388  0.00  0.00    +0.000 C 
BRANCH  19  20
ATOM     20  C   UNL     1      -2.652  11.598  18.424  0.00  0.00    +0.000 A 
ATOM     21  C   UNL     1      -3.510  12.256  19.326  0.00  0.00    +0.000 A 
ATOM     22 CL   UNL     1      -2.928  13.388  20.498  0.00  0.00    +0.000 Cl
ATOM     23  C   UNL     1      -4.893  12.035  19.302  0.00  0.00    +0.000 A 
ATOM     24  C   UNL     1      -5.447  11.147  18.386  0.00  0.00    +0.000 A 
ATOM     25  C   UNL     1      -4.614  10.456  17.512  0.00  0.00    +0.000 A 
ATOM     26  C   UNL     1      -3.230  10.667  17.539  0.00  0.00    +0.000 A 
ATOM     27 CL   UNL     1      -2.289   9.743  16.420  0.00  0.00    +0.000 Cl
ENDBRANCH  19  20
ENDBRANCH   6  19
TORSDOF 5
ENDMDL
MODEL 4
REMARK VINA RESULT:      -7.1      1.436      2.239
REMARK  Name = 
REMARK  5 active torsions:
REMARK  status: ('A' for Active; 'I' for Inactive)
REMARK    1  A    between atoms: C_2  and  C_3
REMARK    2  A    between atoms: C_6  and  N_7
REMARK    3  A    between atoms: C_10  and  S_11
REMARK    4  A    between atoms: C_13  and  C_14
REMARK    5  A    between atoms: C_14  and  C_15
REMARK                            x       y       z     vdW  Elec       q    Type
REMARK                         _______ _______ _______ _____ _____    ______ ____
ROOT
ATOM      1  N   UNL     1       2.221   7.671  19.306  0.00  0.00    +0.000 N 
ATOM      2  C   UNL     1       2.693   6.365  19.471  0.00  0.00    +0.000 A 
ATOM      3  N   UNL     1       2.079   5.520  20.286  0.00  0.00    +0.000 NA
ATOM      4  C   UNL     1       2.648   4.333  20.433  0.00  0.00    +0.000 A 
ATOM      5  N   UNL     1       3.770   3.941  19.850  0.00  0.00    +0.000 NA
ATOM      6  C   UNL     1       4.316   4.844  19.040  0.00  0.00    +0.000 A 
ATOM      7  N   UNL     1       3.805   6.058  18.808  0.00  0.00    +0.000 NA
ATOM      8  H   UNL     1       2.839   8.169  18.679  0.00  0.00    +0.000 HD
ENDROOT
BRANCH   1  12
ATOM      9  C   UNL     1      -0.098  10.143  21.843  0.00  0.00    +0.000 A 
ATOM     10  C   UNL     1      -0.044  10.377  20.466  0.00  0.00    +0.000 A 
ATOM     11  C   UNL     1       0.709   9.535  19.638  0.00  0.00    +0.000 A 
ATOM     12  C   UNL     1       1.435   8.456  20.165  0.00  0.00    +0.000 A 
ATOM     13  C   UNL     1       1.338   8.225  21.545  0.00  0.00    +0.000 A 
ATOM     14  C   UNL     1       0.592   9.061  22.379  0.00  0.00    +0.000 A 
BRANCH   9  16
ATOM     15  N   UNL     1      -1.475  11.707  23.384  0.00  0.00    +0.000 NA
ATOM     16  C   UNL     1      -0.855  11.003  22.699  0.00  0.00    +0.000 C 
ENDBRANCH   9  16
ENDBRANCH   1  12
BRANCH   4  17
ATOM     17  S   UNL     1       1.833   3.207  21.522  0.00  0.00    +0.000 S 
ATOM     18  H   UNL     1       2.341   3.771  22.625  0.00  0.00    +0.000 HD
ENDBRANCH   4  17
BRANCH   6  19
ATOM     19  C   UNL     1       5.652   4.506  18.424  0.00  0.00    +0.000 C 
BRANCH  19  20
ATOM     20  C   UNL     1       6.537   5.696  18.114  0.00  0.00    +0.000 A 
ATOM     21  C   UNL     1       6.343   6.468  16.952  0.00  0.00    +0.000 A 
ATOM     22 CL   UNL     1       5.145   6.070  15.768  0.00  0.00    +0.000 Cl
ATOM     23  C   UNL     1       7.107   7.616  16.710  0.00  0.00    +0.000 A 
ATOM     24  C   UNL     1       8.086   8.013  17.614  0.00  0.00    +0.000 A 
ATOM     25  C   UNL     1       8.322   7.244  18.749  0.00  0.00    +0.000 A 
ATOM     26  C   UNL     1       7.566   6.091  18.991  0.00  0.00    +0.000 A 
ATOM     27 CL   UNL     1       7.955   5.202  20.423  0.00  0.00    +0.000 Cl
ENDBRANCH  19  20
ENDBRANCH   6  19
TORSDOF 5
ENDMDL
MODEL 5
REMARK VINA RESULT:      -7.0      4.194      8.754
REMARK  Name = 
REMARK  5 active torsions:
REMARK  status: ('A' for Active; 'I' for Inactive)
REMARK    1  A    between atoms: C_2  and  C_3
REMARK    2  A    between atoms: C_6  and  N_7
REMARK    3  A    between atoms: C_10  and  S_11
REMARK    4  A    between atoms: C_13  and  C_14
REMARK    5  A    between atoms: C_14  and  C_15
REMARK                            x       y       z     vdW  Elec       q    Type
REMARK                         _______ _______ _______ _____ _____    ______ ____
ROOT
ATOM      1  N   UNL     1       2.326   8.072  17.861  0.00  0.00    +0.000 N 
ATOM      2  C   UNL     1       1.610   8.906  18.726  0.00  0.00    +0.000 A 
ATOM      3  N   UNL     1       1.506   8.618  20.014  0.00  0.00    +0.000 NA
ATOM      4  C   UNL     1       0.742   9.426  20.733  0.00  0.00    +0.000 A 
ATOM      5  N   UNL     1       0.077  10.471  20.267  0.00  0.00    +0.000 NA
ATOM      6  C   UNL     1       0.243  10.697  18.967  0.00  0.00    +0.000 A 
ATOM      7  N   UNL     1       1.011   9.954  18.163  0.00  0.00    +0.000 NA
ATOM      8  H   UNL     1       2.259   8.437  16.920  0.00  0.00    +0.000 HD
ENDROOT
BRANCH   1  12
ATOM      9  C   UNL     1       3.172   3.949  18.315  0.00  0.00    +0.000 A 
ATOM     10  C   UNL     1       1.874   4.389  18.047  0.00  0.00    +0.000 A 
ATOM     11  C   UNL     1       1.615   5.756  17.876  0.00  0.00    +0.000 A 
ATOM     12  C   UNL     1       2.639   6.709  17.984  0.00  0.00    +0.000 A 
ATOM     13  C   UNL     1       3.938   6.237  18.222  0.00  0.00    +0.000 A 
ATOM     14  C   UNL     1       4.205   4.877  18.398  0.00  0.00    +0.000 A 
BRANCH   9  16
ATOM     15  N   UNL     1       3.655   1.425  18.654  0.00  0.00    +0.000 NA
ATOM     16  C   UNL     1       3.446   2.558  18.503  0.00  0.00    +0.000 C 
ENDBRANCH   9  16
ENDBRANCH   1  12
BRANCH   4  17
ATOM     17  S   UNL     1       0.600   9.041  22.451  0.00  0.00    +0.000 S 
ATOM     18  H   UNL     1       0.046  10.220  22.758  0.00  0.00    +0.000 HD
ENDBRANCH   4  17
BRANCH   6  19
ATOM     19  C   UNL     1      -0.569  11.807  18.346  0.00  0.00    +0.000 C 
BRANCH  19  20
ATOM     20  C   UNL     1      -2.064  11.711  18.565  0.00  0.00    +0.000 A 
ATOM     21  C   UNL     1      -2.701  12.441  19.588  0.00  0.00    +0.000 A 
ATOM     22 CL   UNL     1      -1.821  13.428  20.704  0.00  0.00    +0.000 Cl
ATOM     23  C   UNL     1      -4.093  12.415  19.737  0.00  0.00    +0.000 A 
ATOM     24  C   UNL     1      -4.878  11.654  18.877  0.00  0.00    +0.000 A 
ATOM     25  C   UNL     1      -4.268  10.894  17.885  0.00  0.00    +0.000 A 
ATOM     26  C   UNL     1      -2.876  10.910  17.738  0.00  0.00    +0.000 A 
ATOM     27 CL   UNL     1      -2.223   9.914  16.483  0.00  0.00    +0.000 Cl
ENDBRANCH  19  20
ENDBRANCH   6  19
TORSDOF 5
ENDMDL
MODEL 6
REMARK VINA RESULT:      -7.0      4.410      8.959
REMARK  Name = 
REMARK  5 active torsions:
REMARK  status: ('A' for Active; 'I' for Inactive)
REMARK    1  A    between atoms: C_2  and  C_3
REMARK    2  A    between atoms: C_6  and  N_7
REMARK    3  A    between atoms: C_10  and  S_11
REMARK    4  A    between atoms: C_13  and  C_14
REMARK    5  A    between atoms: C_14  and  C_15
REMARK                            x       y       z     vdW  Elec       q    Type
REMARK                         _______ _______ _______ _____ _____    ______ ____
ROOT
ATOM      1  N   UNL     1       2.064   8.613  18.538  0.00  0.00    +0.000 N 
ATOM      2  C   UNL     1       1.181   9.412  19.272  0.00  0.00    +0.000 A 
ATOM      3  N   UNL     1       0.960   9.176  20.556  0.00  0.00    +0.000 NA
ATOM      4  C   UNL     1       0.048   9.937  21.142  0.00  0.00    +0.000 A 
ATOM      5  N   UNL     1      -0.655  10.888  20.547  0.00  0.00    +0.000 NA
ATOM      6  C   UNL     1      -0.366  11.068  19.262  0.00  0.00    +0.000 A 
ATOM      7  N   UNL     1       0.554  10.367  18.589  0.00  0.00    +0.000 NA
ATOM      8  H   UNL     1       2.070   8.924  17.576  0.00  0.00    +0.000 HD
ENDROOT
BRANCH   1  12
ATOM      9  C   UNL     1       3.302   4.608  19.128  0.00  0.00    +0.000 A 
ATOM     10  C   UNL     1       3.680   5.314  17.983  0.00  0.00    +0.000 A 
ATOM     11  C   UNL     1       3.281   6.647  17.815  0.00  0.00    +0.000 A 
ATOM     12  C   UNL     1       2.487   7.294  18.774  0.00  0.00    +0.000 A 
ATOM     13  C   UNL     1       2.149   6.573  19.927  0.00  0.00    +0.000 A 
ATOM     14  C   UNL     1       2.539   5.242  20.102  0.00  0.00    +0.000 A 
BRANCH   9  16
ATOM     15  N   UNL     1       4.008   2.136  19.461  0.00  0.00    +0.000 NA
ATOM     16  C   UNL     1       3.694   3.244  19.305  0.00  0.00    +0.000 C 
ENDBRANCH   9  16
ENDBRANCH   1  12
BRANCH   4  17
ATOM     17  S   UNL     1      -0.249   9.622  22.854  0.00  0.00    +0.000 S 
ATOM     18  H   UNL     1      -0.161   8.294  22.713  0.00  0.00    +0.000 HD
ENDBRANCH   4  17
BRANCH   6  19
ATOM     19  C   UNL     1      -1.203  12.061  18.493  0.00  0.00    +0.000 C 
BRANCH  19  20
ATOM     20  C   UNL     1      -2.689  11.771  18.474  0.00  0.00    +0.000 A 
ATOM     21  C   UNL     1      -3.245  10.869  17.545  0.00  0.00    +0.000 A 
ATOM     22 CL   UNL     1      -2.294  10.099  16.322  0.00  0.00    +0.000 Cl
ATOM     23  C   UNL     1      -4.605  10.538  17.582  0.00  0.00    +0.000 A 
ATOM     24  C   UNL     1      -5.441  11.105  18.538  0.00  0.00    +0.000 A 
ATOM     25  C   UNL     1      -4.922  12.028  19.441  0.00  0.00    +0.000 A 
ATOM     26  C   UNL     1      -3.564  12.369  19.401  0.00  0.00    +0.000 A 
ATOM     27 CL   UNL     1      -3.030  13.539  20.558  0.00  0.00    +0.000 Cl
ENDBRANCH  19  20
ENDBRANCH   6  19
TORSDOF 5
ENDMDL
MODEL 7
REMARK VINA RESULT:      -6.8      4.129      8.909
REMARK  Name = 
REMARK  5 active torsions:
REMARK  status: ('A' for Active; 'I' for Inactive)
REMARK    1  A    between atoms: C_2  and  C_3
REMARK    2  A    between atoms: C_6  and  N_7
REMARK    3  A    between atoms: C_10  and  S_11
REMARK    4  A    between atoms: C_13  and  C_14
REMARK    5  A    between atoms: C_14  and  C_15
REMARK                            x       y       z     vdW  Elec       q    Type
REMARK                         _______ _______ _______ _____ _____    ______ ____
ROOT
ATOM      1  N   UNL     1       2.461   8.006  17.977  0.00  0.00    +0.000 N 
ATOM      2  C   UNL     1       1.741   8.869  18.810  0.00  0.00    +0.000 A 
ATOM      3  N   UNL     1       1.539   8.571  20.084  0.00  0.00    +0.000 NA
ATOM      4  C   UNL     1       0.779   9.413  20.767  0.00  0.00    +0.000 A 
ATOM      5  N   UNL     1       0.207  10.502  20.278  0.00  0.00    +0.000 NA
ATOM      6  C   UNL     1       0.469  10.735  18.995  0.00  0.00    +0.000 A 
ATOM      7  N   UNL     1       1.241   9.958  18.228  0.00  0.00    +0.000 NA
ATOM      8  H   UNL     1       2.475   8.386  17.040  0.00  0.00    +0.000 HD
ENDROOT
BRANCH   1  12
ATOM      9  C   UNL     1       3.228   3.851  18.246  0.00  0.00    +0.000 A 
ATOM     10  C   UNL     1       4.275   4.777  18.265  0.00  0.00    +0.000 A 
ATOM     11  C   UNL     1       4.001   6.149  18.199  0.00  0.00    +0.000 A 
ATOM     12  C   UNL     1       2.685   6.625  18.097  0.00  0.00    +0.000 A 
ATOM     13  C   UNL     1       1.653   5.676  18.112  0.00  0.00    +0.000 A 
ATOM     14  C   UNL     1       1.915   4.305  18.174  0.00  0.00    +0.000 A 
BRANCH   9  16
ATOM     15  N   UNL     1       3.702   1.305  18.354  0.00  0.00    +0.000 NA
ATOM     16  C   UNL     1       3.496   2.447  18.302  0.00  0.00    +0.000 C 
ENDBRANCH   9  16
ENDBRANCH   1  12
BRANCH   4  17
ATOM     17  S   UNL     1       0.505   9.014  22.466  0.00  0.00    +0.000 S 
ATOM     18  H   UNL     1       0.309  10.289  22.823  0.00  0.00    +0.000 HD
ENDBRANCH   4  17
BRANCH   6  19
ATOM     19  C   UNL     1      -0.236  11.900  18.343  0.00  0.00    +0.000 C 
BRANCH  19  20
ATOM     20  C   UNL     1      -1.720  11.996  18.631  0.00  0.00    +0.000 A 
ATOM     21  C   UNL     1      -2.662  11.295  17.853  0.00  0.00    +0.000 A 
ATOM     22 CL   UNL     1      -2.204  10.347  16.480  0.00  0.00    +0.000 Cl
ATOM     23  C   UNL     1      -4.025  11.319  18.172  0.00  0.00    +0.000 A 
ATOM     24  C   UNL     1      -4.479  12.049  19.265  0.00  0.00    +0.000 A 
ATOM     25  C   UNL     1      -3.572  12.782  20.024  0.00  0.00    +0.000 A 
ATOM     26  C   UNL     1      -2.209  12.767  19.703  0.00  0.00    +0.000 A 
ATOM     27 CL   UNL     1      -1.173  13.727  20.703  0.00  0.00    +0.000 Cl
ENDBRANCH  19  20
ENDBRANCH   6  19
TORSDOF 5
ENDMDL
MODEL 8
REMARK VINA RESULT:      -6.8      4.240      8.879
REMARK  Name = 
REMARK  5 active torsions:
REMARK  status: ('A' for Active; 'I' for Inactive)
REMARK    1  A    between atoms: C_2  and  C_3
REMARK    2  A    between atoms: C_6  and  N_7
REMARK    3  A    between atoms: C_10  and  S_11
REMARK    4  A    between atoms: C_13  and  C_14
REMARK    5  A    between atoms: C_14  and  C_15
REMARK                            x       y       z     vdW  Elec       q    Type
REMARK                         _______ _______ _______ _____ _____    ______ ____
ROOT
ATOM      1  N   UNL     1       2.317   8.132  18.147  0.00  0.00    +0.000 N 
ATOM      2  C   UNL     1       1.489   8.931  18.943  0.00  0.00    +0.000 A 
ATOM      3  N   UNL     1       1.229   8.600  20.198  0.00  0.00    +0.000 NA
ATOM      4  C   UNL     1       0.372   9.378  20.842  0.00  0.00    +0.000 A 
ATOM      5  N   UNL     1      -0.243  10.432  20.330  0.00  0.00    +0.000 NA
ATOM      6  C   UNL     1       0.082  10.703  19.069  0.00  0.00    +0.000 A 
ATOM      7  N   UNL     1       0.953   9.993  18.344  0.00  0.00    +0.000 NA
ATOM      8  H   UNL     1       2.364   8.527  17.218  0.00  0.00    +0.000 HD
ENDROOT
BRANCH   1  12
ATOM      9  C   UNL     1       3.138   3.999  18.551  0.00  0.00    +0.000 A 
ATOM     10  C   UNL     1       1.959   4.440  17.945  0.00  0.00    +0.000 A 
ATOM     11  C   UNL     1       1.714   5.812  17.798  0.00  0.00    +0.000 A 
ATOM     12  C   UNL     1       2.628   6.768  18.265  0.00  0.00    +0.000 A 
ATOM     13  C   UNL     1       3.818   6.298  18.840  0.00  0.00    +0.000 A 
ATOM     14  C   UNL     1       4.069   4.932  18.994  0.00  0.00    +0.000 A 
BRANCH   9  16
ATOM     15  N   UNL     1       3.615   1.468  18.849  0.00  0.00    +0.000 NA
ATOM     16  C   UNL     1       3.394   2.601  18.716  0.00  0.00    +0.000 C 
ENDBRANCH   9  16
ENDBRANCH   1  12
BRANCH   4  17
ATOM     17  S   UNL     1       0.021   8.934  22.515  0.00  0.00    +0.000 S 
ATOM     18  H   UNL     1       1.256   8.472  22.742  0.00  0.00    +0.000 HD
ENDBRANCH   4  17
BRANCH   6  19
ATOM     19  C   UNL     1      -0.659  11.827  18.387  0.00  0.00    +0.000 C 
BRANCH  19  20
ATOM     20  C   UNL     1      -2.167  11.776  18.519  0.00  0.00    +0.000 A 
ATOM     21  C   UNL     1      -2.950  10.990  17.651  0.00  0.00    +0.000 A 
ATOM     22 CL   UNL     1      -2.262  10.099  16.338  0.00  0.00    +0.000 Cl
ATOM     23  C   UNL     1      -4.335  10.878  17.827  0.00  0.00    +0.000 A 
ATOM     24  C   UNL     1      -4.969  11.555  18.864  0.00  0.00    +0.000 A 
ATOM     25  C   UNL     1      -4.222  12.368  19.709  0.00  0.00    +0.000 A 
ATOM     26  C   UNL     1      -2.838  12.490  19.531  0.00  0.00    +0.000 A 
ATOM     27 CL   UNL     1      -2.010  13.541  20.628  0.00  0.00    +0.000 Cl
ENDBRANCH  19  20
ENDBRANCH   6  19
TORSDOF 5
ENDMDL
MODEL 9
REMARK VINA RESULT:      -6.7      0.951      2.123
REMARK  Name = 
REMARK  5 active torsions:
REMARK  status: ('A' for Active; 'I' for Inactive)
REMARK    1  A    between atoms: C_2  and  C_3
REMARK    2  A    between atoms: C_6  and  N_7
REMARK    3  A    between atoms: C_10  and  S_11
REMARK    4  A    between atoms: C_13  and  C_14
REMARK    5  A    between atoms: C_14  and  C_15
REMARK                            x       y       z     vdW  Elec       q    Type
REMARK                         _______ _______ _______ _____ _____    ______ ____
ROOT
ATOM      1  N   UNL     1       2.272   8.085  18.541  0.00  0.00    +0.000 N 
ATOM      2  C   UNL     1       2.646   6.788  18.907  0.00  0.00    +0.000 A 
ATOM      3  N   UNL     1       1.828   6.020  19.611  0.00  0.00    +0.000 NA
ATOM      4  C   UNL     1       2.306   4.839  19.975  0.00  0.00    +0.000 A 
ATOM      5  N   UNL     1       3.519   4.384  19.705  0.00  0.00    +0.000 NA
ATOM      6  C   UNL     1       4.272   5.212  18.985  0.00  0.00    +0.000 A 
ATOM      7  N   UNL     1       3.872   6.412  18.551  0.00  0.00    +0.000 NA
ATOM      8  H   UNL     1       3.036   8.522  18.044  0.00  0.00    +0.000 HD
ENDROOT
BRANCH   1  12
ATOM      9  C   UNL     1      -0.518  10.780  20.237  0.00  0.00    +0.000 A 
ATOM     10  C   UNL     1      -0.396  10.651  18.851  0.00  0.00    +0.000 A 
ATOM     11  C   UNL     1       0.516   9.737  18.306  0.00  0.00    +0.000 A 
ATOM     12  C   UNL     1       1.332   8.947  19.129  0.00  0.00    +0.000 A 
ATOM     13  C   UNL     1       1.167   9.073  20.516  0.00  0.00    +0.000 A 
ATOM     14  C   UNL     1       0.263   9.984  21.068  0.00  0.00    +0.000 A 
BRANCH   9  16
ATOM     15  N   UNL     1      -2.176  12.488  21.263  0.00  0.00    +0.000 NA
ATOM     16  C   UNL     1      -1.438  11.717  20.804  0.00  0.00    +0.000 C 
ENDBRANCH   9  16
ENDBRANCH   1  12
BRANCH   4  17
ATOM     17  S   UNL     1       1.218   3.815  20.917  0.00  0.00    +0.000 S 
ATOM     18  H   UNL     1       1.439   4.481  22.057  0.00  0.00    +0.000 HD
ENDBRANCH   4  17
BRANCH   6  19
ATOM     19  C   UNL     1       5.703   4.805  18.730  0.00  0.00    +0.000 C 
BRANCH  19  20
ATOM     20  C   UNL     1       6.105   4.750  17.272  0.00  0.00    +0.000 A 
ATOM     21  C   UNL     1       5.552   3.795  16.397  0.00  0.00    +0.000 A 
ATOM     22 CL   UNL     1       4.446   2.578  16.936  0.00  0.00    +0.000 Cl
ATOM     23  C   UNL     1       5.862   3.798  15.031  0.00  0.00    +0.000 A 
ATOM     24  C   UNL     1       6.736   4.747  14.511  0.00  0.00    +0.000 A 
ATOM     25  C   UNL     1       7.325   5.675  15.363  0.00  0.00    +0.000 A 
ATOM     26  C   UNL     1       7.025   5.670  16.730  0.00  0.00    +0.000 A 
ATOM     27 CL   UNL     1       7.826   6.858  17.699  0.00  0.00    +0.000 Cl
ENDBRANCH  19  20
ENDBRANCH   6  19
TORSDOF 5
ENDMDL
