MODEL 1
REMARK VINA RESULT:      -7.7      0.000      0.000
REMARK  Name = 
REMARK  6 active torsions:
REMARK  status: ('A' for Active; 'I' for Inactive)
REMARK    1  A    between atoms: C_1  and  C_2
REMARK    2  A    between atoms: C_5  and  C_6
REMARK    3  A    between atoms: C_6  and  C_7
REMARK    4  A    between atoms: C_6  and  N_13
REMARK    5  A    between atoms: C_9  and  C_10
REMARK    6  A    between atoms: N_16  and  C_17
REMARK                            x       y       z     vdW  Elec       q    Type
REMARK                         _______ _______ _______ _____ _____    ______ ____
ROOT
ATOM      1  C   UNL     1       4.621   5.061  18.191  0.00  0.00    +0.000 C 
ENDROOT
BRANCH   1   6
ATOM      2  C   UNL     1       0.942   9.588  18.634  0.00  0.00    +0.000 C 
ATOM      3  C   UNL     1       1.955   8.486  18.560  0.00  0.00    +0.000 A 
ATOM      4  C   UNL     1       2.766   8.345  17.433  0.00  0.00    +0.000 A 
ATOM      5  C   UNL     1       3.684   7.299  17.353  0.00  0.00    +0.000 A 
ATOM      6  C   UNL     1       3.772   6.327  18.362  0.00  0.00    +0.000 A 
ATOM      7  C   UNL     1       2.997   6.512  19.521  0.00  0.00    +0.000 A 
ATOM      8  C   UNL     1       2.106   7.587  19.620  0.00  0.00    +0.000 A 
ENDBRANCH   1   6
BRANCH   1   9
ATOM      9  N   UNL     1       3.860   3.785  18.380  0.00  0.00    +0.000 NA
ATOM     10  C   UNL     1       2.421   3.859  18.054  0.00  0.00    +0.000 C 
ATOM     11  C   UNL     1       1.670   2.530  18.270  0.00  0.00    +0.000 C 
ATOM     12  N   UNL     1       1.827   1.962  19.619  0.00  0.00    +0.000 NA
ATOM     13  C   UNL     1       1.116   2.760  20.621  0.00  0.00    +0.000 C 
ATOM     14  C   UNL     1       3.271   1.878  19.921  0.00  0.00    +0.000 C 
ATOM     15  C   UNL     1       4.063   3.194  19.715  0.00  0.00    +0.000 C 
ENDBRANCH   1   9
BRANCH   1  16
ATOM     16  C   UNL     1       5.470   5.008  16.931  0.00  0.00    +0.000 A 
ATOM     17  C   UNL     1       5.274   4.278  15.768  0.00  0.00    +0.000 A 
ATOM     18  C   UNL     1       6.299   4.535  14.810  0.00  0.00    +0.000 A 
ATOM     19  C   UNL     1       6.353   3.976  13.433  0.00  0.00    +0.000 C 
ATOM     20  N   UNL     1       7.271   5.353  15.210  0.00  0.00    +0.000 NA
ATOM     21  S   UNL     1       6.971   5.823  16.770  0.00  0.00    +0.000 S 
ENDBRANCH   1  16
TORSDOF 3
ENDMDL
MODEL 2
REMARK VINA RESULT:      -7.7      0.668      1.248
REMARK  Name = 
REMARK  6 active torsions:
REMARK  status: ('A' for Active; 'I' for Inactive)
REMARK    1  A    between atoms: C_1  and  C_2
REMARK    2  A    between atoms: C_5  and  C_6
REMARK    3  A    between atoms: C_6  and  C_7
REMARK    4  A    between atoms: C_6  and  N_13
REMARK    5  A    between atoms: C_9  and  C_10
REMARK    6  A    between atoms: N_16  and  C_17
REMARK                            x       y       z     vdW  Elec       q    Type
REMARK                         _______ _______ _______ _____ _____    ______ ____
ROOT
ATOM      1  C   UNL     1       4.308   5.507  18.547  0.00  0.00    +0.000 C 
ENDROOT
BRANCH   1   6
ATOM      2  C   UNL     1       0.885  10.238  18.908  0.00  0.00    +0.000 C 
ATOM      3  C   UNL     1       1.683   8.976  18.781  0.00  0.00    +0.000 A 
ATOM      4  C   UNL     1       1.732   8.061  19.832  0.00  0.00    +0.000 A 
ATOM      5  C   UNL     1       2.503   6.904  19.723  0.00  0.00    +0.000 A 
ATOM      6  C   UNL     1       3.299   6.662  18.591  0.00  0.00    +0.000 A 
ATOM      7  C   UNL     1       3.193   7.556  17.512  0.00  0.00    +0.000 A 
ATOM      8  C   UNL     1       2.386   8.696  17.604  0.00  0.00    +0.000 A 
ENDBRANCH   1   6
BRANCH   1   9
ATOM      9  N   UNL     1       3.684   4.148  18.613  0.00  0.00    +0.000 NA
ATOM     10  C   UNL     1       2.255   4.095  18.241  0.00  0.00    +0.000 C 
ATOM     11  C   UNL     1       1.645   2.681  18.332  0.00  0.00    +0.000 C 
ATOM     12  N   UNL     1       1.824   2.032  19.640  0.00  0.00    +0.000 NA
ATOM     13  C   UNL     1       1.004   2.670  20.672  0.00  0.00    +0.000 C 
ATOM     14  C   UNL     1       3.259   2.076  19.987  0.00  0.00    +0.000 C 
ATOM     15  C   UNL     1       3.911   3.481  19.907  0.00  0.00    +0.000 C 
ENDBRANCH   1   9
BRANCH   1  16
ATOM     16  C   UNL     1       5.337   5.581  17.429  0.00  0.00    +0.000 A 
ATOM     17  C   UNL     1       5.389   4.878  16.235  0.00  0.00    +0.000 A 
ATOM     18  C   UNL     1       6.516   5.266  15.449  0.00  0.00    +0.000 A 
ATOM     19  C   UNL     1       6.829   4.764  14.085  0.00  0.00    +0.000 C 
ATOM     20  N   UNL     1       7.331   6.157  16.010  0.00  0.00    +0.000 NA
ATOM     21  S   UNL     1       6.757   6.540  17.515  0.00  0.00    +0.000 S 
ENDBRANCH   1  16
TORSDOF 3
ENDMDL
MODEL 3
REMARK VINA RESULT:      -7.6      2.185      4.915
REMARK  Name = 
REMARK  6 active torsions:
REMARK  status: ('A' for Active; 'I' for Inactive)
REMARK    1  A    between atoms: C_1  and  C_2
REMARK    2  A    between atoms: C_5  and  C_6
REMARK    3  A    between atoms: C_6  and  C_7
REMARK    4  A    between atoms: C_6  and  N_13
REMARK    5  A    between atoms: C_9  and  C_10
REMARK    6  A    between atoms: N_16  and  C_17
REMARK                            x       y       z     vdW  Elec       q    Type
REMARK                         _______ _______ _______ _____ _____    ______ ____
ROOT
ATOM      1  C   UNL     1       2.990   6.349  18.285  0.00  0.00    +0.000 C 
ENDROOT
BRANCH   1   6
ATOM      2  C   UNL     1      -0.306  10.915  19.874  0.00  0.00    +0.000 C 
ATOM      3  C   UNL     1       0.618   9.803  19.481  0.00  0.00    +0.000 A 
ATOM      4  C   UNL     1       1.029   9.657  18.156  0.00  0.00    +0.000 A 
ATOM      5  C   UNL     1       1.862   8.601  17.788  0.00  0.00    +0.000 A 
ATOM      6  C   UNL     1       2.253   7.623  18.717  0.00  0.00    +0.000 A 
ATOM      7  C   UNL     1       1.888   7.813  20.062  0.00  0.00    +0.000 A 
ATOM      8  C   UNL     1       1.087   8.897  20.439  0.00  0.00    +0.000 A 
ENDBRANCH   1   6
BRANCH   1   9
ATOM      9  N   UNL     1       4.479   6.429  18.424  0.00  0.00    +0.000 NA
ATOM     10  C   UNL     1       5.204   6.795  17.190  0.00  0.00    +0.000 C 
ATOM     11  C   UNL     1       6.735   6.857  17.369  0.00  0.00    +0.000 C 
ATOM     12  N   UNL     1       7.325   5.628  17.925  0.00  0.00    +0.000 NA
ATOM     13  C   UNL     1       7.281   4.528  16.960  0.00  0.00    +0.000 C 
ATOM     14  C   UNL     1       6.601   5.287  19.167  0.00  0.00    +0.000 C 
ATOM     15  C   UNL     1       5.059   5.217  19.029  0.00  0.00    +0.000 C 
ENDBRANCH   1   9
BRANCH   1  16
ATOM     16  C   UNL     1       2.455   5.053  18.875  0.00  0.00    +0.000 A 
ATOM     17  C   UNL     1       2.378   4.657  20.202  0.00  0.00    +0.000 A 
ATOM     18  C   UNL     1       1.784   3.366  20.328  0.00  0.00    +0.000 A 
ATOM     19  C   UNL     1       1.484   2.677  21.611  0.00  0.00    +0.000 C 
ATOM     20  N   UNL     1       1.479   2.757  19.184  0.00  0.00    +0.000 NA
ATOM     21  S   UNL     1       1.917   3.733  17.920  0.00  0.00    +0.000 S 
ENDBRANCH   1  16
TORSDOF 3
ENDMDL
MODEL 4
REMARK VINA RESULT:      -7.5      2.153      4.614
REMARK  Name = 
REMARK  6 active torsions:
REMARK  status: ('A' for Active; 'I' for Inactive)
REMARK    1  A    between atoms: C_1  and  C_2
REMARK    2  A    between atoms: C_5  and  C_6
REMARK    3  A    between atoms: C_6  and  C_7
REMARK    4  A    between atoms: C_6  and  N_13
REMARK    5  A    between atoms: C_9  and  C_10
REMARK    6  A    between atoms: N_16  and  C_17
REMARK                            x       y       z     vdW  Elec       q    Type
REMARK                         _______ _______ _______ _____ _____    ______ ____
ROOT
ATOM      1  C   UNL     1       3.317   6.427  17.796  0.00  0.00    +0.000 C 
ENDROOT
BRANCH   1   6
ATOM      2  C   UNL     1       0.328  10.635  20.552  0.00  0.00    +0.000 C 
ATOM      3  C   UNL     1       1.007   9.508  19.834  0.00  0.00    +0.000 A 
ATOM      4  C   UNL     1       1.473   8.398  20.539  0.00  0.00    +0.000 A 
ATOM      5  C   UNL     1       2.136   7.368  19.872  0.00  0.00    +0.000 A 
ATOM      6  C   UNL     1       2.411   7.447  18.498  0.00  0.00    +0.000 A 
ATOM      7  C   UNL     1       1.882   8.537  17.784  0.00  0.00    +0.000 A 
ATOM      8  C   UNL     1       1.180   9.551  18.446  0.00  0.00    +0.000 A 
ENDBRANCH   1   6
BRANCH   1   9
ATOM      9  N   UNL     1       4.763   6.535  18.173  0.00  0.00    +0.000 NA
ATOM     10  C   UNL     1       5.692   6.734  17.043  0.00  0.00    +0.000 C 
ATOM     11  C   UNL     1       7.171   6.829  17.469  0.00  0.00    +0.000 C 
ATOM     12  N   UNL     1       7.639   5.693  18.280  0.00  0.00    +0.000 NA
ATOM     13  C   UNL     1       7.739   4.471  17.479  0.00  0.00    +0.000 C 
ATOM     14  C   UNL     1       6.709   5.521  19.415  0.00  0.00    +0.000 C 
ATOM     15  C   UNL     1       5.212   5.421  19.028  0.00  0.00    +0.000 C 
ENDBRANCH   1   9
BRANCH   1  16
ATOM     16  C   UNL     1       2.844   4.983  17.855  0.00  0.00    +0.000 A 
ATOM     17  C   UNL     1       1.815   4.424  18.597  0.00  0.00    +0.000 A 
ATOM     18  C   UNL     1       1.685   3.026  18.342  0.00  0.00    +0.000 A 
ATOM     19  C   UNL     1       0.638   2.139  18.914  0.00  0.00    +0.000 C 
ATOM     20  N   UNL     1       2.588   2.505  17.512  0.00  0.00    +0.000 NA
ATOM     21  S   UNL     1       3.629   3.699  17.030  0.00  0.00    +0.000 S 
ENDBRANCH   1  16
TORSDOF 3
ENDMDL
MODEL 5
REMARK VINA RESULT:      -7.4      2.164      4.983
REMARK  Name = 
REMARK  6 active torsions:
REMARK  status: ('A' for Active; 'I' for Inactive)
REMARK    1  A    between atoms: C_1  and  C_2
REMARK    2  A    between atoms: C_5  and  C_6
REMARK    3  A    between atoms: C_6  and  C_7
REMARK    4  A    between atoms: C_6  and  N_13
REMARK    5  A    between atoms: C_9  and  C_10
REMARK    6  A    between atoms: N_16  and  C_17
REMARK                            x       y       z     vdW  Elec       q    Type
REMARK                         _______ _______ _______ _____ _____    ______ ____
ROOT
ATOM      1  C   UNL     1       3.058   6.238  18.266  0.00  0.00    +0.000 C 
ENDROOT
BRANCH   1   6
ATOM      2  C   UNL     1       0.444  11.191  19.957  0.00  0.00    +0.000 C 
ATOM      3  C   UNL     1       1.023   9.883  19.512  0.00  0.00    +0.000 A 
ATOM      4  C   UNL     1       1.280   8.871  20.437  0.00  0.00    +0.000 A 
ATOM      5  C   UNL     1       1.851   7.668  20.024  0.00  0.00    +0.000 A 
ATOM      6  C   UNL     1       2.242   7.466  18.691  0.00  0.00    +0.000 A 
ATOM      7  C   UNL     1       1.920   8.464  17.754  0.00  0.00    +0.000 A 
ATOM      8  C   UNL     1       1.308   9.655  18.161  0.00  0.00    +0.000 A 
ENDBRANCH   1   6
BRANCH   1   9
ATOM      9  N   UNL     1       4.539   6.411  18.405  0.00  0.00    +0.000 NA
ATOM     10  C   UNL     1       5.256   6.703  17.147  0.00  0.00    +0.000 C 
ATOM     11  C   UNL     1       6.779   6.865  17.329  0.00  0.00    +0.000 C 
ATOM     12  N   UNL     1       7.430   5.727  17.999  0.00  0.00    +0.000 NA
ATOM     13  C   UNL     1       7.455   4.543  17.138  0.00  0.00    +0.000 C 
ATOM     14  C   UNL     1       6.712   5.462  19.262  0.00  0.00    +0.000 C 
ATOM     15  C   UNL     1       5.177   5.294  19.123  0.00  0.00    +0.000 C 
ENDBRANCH   1   9
BRANCH   1  16
ATOM     16  C   UNL     1       2.605   4.914  18.863  0.00  0.00    +0.000 A 
ATOM     17  C   UNL     1       2.397   4.574  20.191  0.00  0.00    +0.000 A 
ATOM     18  C   UNL     1       1.948   3.226  20.321  0.00  0.00    +0.000 A 
ATOM     19  C   UNL     1       1.561   2.565  21.596  0.00  0.00    +0.000 C 
ATOM     20  N   UNL     1       1.873   2.531  19.187  0.00  0.00    +0.000 NA
ATOM     21  S   UNL     1       2.360   3.494  17.932  0.00  0.00    +0.000 S 
ENDBRANCH   1  16
TORSDOF 3
ENDMDL
MODEL 6
REMARK VINA RESULT:      -7.4      1.965      5.042
REMARK  Name = 
REMARK  6 active torsions:
REMARK  status: ('A' for Active; 'I' for Inactive)
REMARK    1  A    between atoms: C_1  and  C_2
REMARK    2  A    between atoms: C_5  and  C_6
REMARK    3  A    between atoms: C_6  and  C_7
REMARK    4  A    between atoms: C_6  and  N_13
REMARK    5  A    between atoms: C_9  and  C_10
REMARK    6  A    between atoms: N_16  and  C_17
REMARK                            x       y       z     vdW  Elec       q    Type
REMARK                         _______ _______ _______ _____ _____    ______ ____
ROOT
ATOM      1  C   UNL     1       3.255   5.328  17.933  0.00  0.00    +0.000 C 
ENDROOT
BRANCH   1   6
ATOM      2  C   UNL     1       0.926  10.482  19.429  0.00  0.00    +0.000 C 
ATOM      3  C   UNL     1       1.611   9.198  19.072  0.00  0.00    +0.000 A 
ATOM      4  C   UNL     1       2.130   9.005  17.792  0.00  0.00    +0.000 A 
ATOM      5  C   UNL     1       2.737   7.796  17.453  0.00  0.00    +0.000 A 
ATOM      6  C   UNL     1       2.784   6.724  18.359  0.00  0.00    +0.000 A 
ATOM      7  C   UNL     1       2.317   6.949  19.666  0.00  0.00    +0.000 A 
ATOM      8  C   UNL     1       1.746   8.177  20.019  0.00  0.00    +0.000 A 
ENDBRANCH   1   6
BRANCH   1   9
ATOM      9  N   UNL     1       4.742   5.202  17.796  0.00  0.00    +0.000 NA
ATOM     10  C   UNL     1       5.523   5.728  18.933  0.00  0.00    +0.000 C 
ATOM     11  C   UNL     1       7.049   5.590  18.750  0.00  0.00    +0.000 C 
ATOM     12  N   UNL     1       7.561   6.179  17.502  0.00  0.00    +0.000 NA
ATOM     13  C   UNL     1       7.495   7.642  17.535  0.00  0.00    +0.000 C 
ATOM     14  C   UNL     1       6.781   5.628  16.375  0.00  0.00    +0.000 C 
ATOM     15  C   UNL     1       5.242   5.746  16.521  0.00  0.00    +0.000 C 
ENDBRANCH   1   9
BRANCH   1  16
ATOM     16  C   UNL     1       2.682   4.171  18.736  0.00  0.00    +0.000 A 
ATOM     17  C   UNL     1       2.524   4.045  20.108  0.00  0.00    +0.000 A 
ATOM     18  C   UNL     1       1.918   2.801  20.454  0.00  0.00    +0.000 A 
ATOM     19  C   UNL     1       1.540   2.378  21.828  0.00  0.00    +0.000 C 
ATOM     20  N   UNL     1       1.679   1.974  19.437  0.00  0.00    +0.000 NA
ATOM     21  S   UNL     1       2.195   2.684  18.033  0.00  0.00    +0.000 S 
ENDBRANCH   1  16
TORSDOF 3
ENDMDL
MODEL 7
REMARK VINA RESULT:      -7.3      1.904      4.618
REMARK  Name = 
REMARK  6 active torsions:
REMARK  status: ('A' for Active; 'I' for Inactive)
REMARK    1  A    between atoms: C_1  and  C_2
REMARK    2  A    between atoms: C_5  and  C_6
REMARK    3  A    between atoms: C_6  and  C_7
REMARK    4  A    between atoms: C_6  and  N_13
REMARK    5  A    between atoms: C_9  and  C_10
REMARK    6  A    between atoms: N_16  and  C_17
REMARK                            x       y       z     vdW  Elec       q    Type
REMARK                         _______ _______ _______ _____ _____    ______ ____
ROOT
ATOM      1  C   UNL     1       3.094   5.782  17.659  0.00  0.00    +0.000 C 
ENDROOT
BRANCH   1   6
ATOM      2  C   UNL     1       0.488  10.203  20.469  0.00  0.00    +0.000 C 
ATOM      3  C   UNL     1       1.243   9.113  19.770  0.00  0.00    +0.000 A 
ATOM      4  C   UNL     1       1.575   9.234  18.421  0.00  0.00    +0.000 A 
ATOM      5  C   UNL     1       2.247   8.204  17.765  0.00  0.00    +0.000 A 
ATOM      6  C   UNL     1       2.547   6.997  18.419  0.00  0.00    +0.000 A 
ATOM      7  C   UNL     1       2.267   6.909  19.794  0.00  0.00    +0.000 A 
ATOM      8  C   UNL     1       1.630   7.960  20.463  0.00  0.00    +0.000 A 
ENDBRANCH   1   6
BRANCH   1   9
ATOM      9  N   UNL     1       4.422   6.017  17.006  0.00  0.00    +0.000 NA
ATOM     10  C   UNL     1       4.947   4.877  16.227  0.00  0.00    +0.000 C 
ATOM     11  C   UNL     1       6.320   5.152  15.580  0.00  0.00    +0.000 C 
ATOM     12  N   UNL     1       7.352   5.602  16.528  0.00  0.00    +0.000 NA
ATOM     13  C   UNL     1       7.766   4.519  17.422  0.00  0.00    +0.000 C 
ATOM     14  C   UNL     1       6.817   6.753  17.284  0.00  0.00    +0.000 C 
ATOM     15  C   UNL     1       5.437   6.517  17.950  0.00  0.00    +0.000 C 
ENDBRANCH   1   9
BRANCH   1  16
ATOM     16  C   UNL     1       3.089   4.472  18.430  0.00  0.00    +0.000 A 
ATOM     17  C   UNL     1       4.080   3.916  19.225  0.00  0.00    +0.000 A 
ATOM     18  C   UNL     1       3.661   2.675  19.792  0.00  0.00    +0.000 A 
ATOM     19  C   UNL     1       4.449   1.854  20.749  0.00  0.00    +0.000 C 
ATOM     20  N   UNL     1       2.456   2.247  19.417  0.00  0.00    +0.000 NA
ATOM     21  S   UNL     1       1.804   3.337  18.355  0.00  0.00    +0.000 S 
ENDBRANCH   1  16
TORSDOF 3
ENDMDL
MODEL 8
REMARK VINA RESULT:      -7.2      1.113      2.143
REMARK  Name = 
REMARK  6 active torsions:
REMARK  status: ('A' for Active; 'I' for Inactive)
REMARK    1  A    between atoms: C_1  and  C_2
REMARK    2  A    between atoms: C_5  and  C_6
REMARK    3  A    between atoms: C_6  and  C_7
REMARK    4  A    between atoms: C_6  and  N_13
REMARK    5  A    between atoms: C_9  and  C_10
REMARK    6  A    between atoms: N_16  and  C_17
REMARK                            x       y       z     vdW  Elec       q    Type
REMARK                         _______ _______ _______ _____ _____    ______ ____
ROOT
ATOM      1  C   UNL     1       3.744   6.210  18.979  0.00  0.00    +0.000 C 
ENDROOT
BRANCH   1   6
ATOM      2  C   UNL     1       0.232  10.888  18.857  0.00  0.00    +0.000 C 
ATOM      3  C   UNL     1       1.053   9.635  18.863  0.00  0.00    +0.000 A 
ATOM      4  C   UNL     1       1.155   8.860  20.019  0.00  0.00    +0.000 A 
ATOM      5  C   UNL     1       1.947   7.713  20.030  0.00  0.00    +0.000 A 
ATOM      6  C   UNL     1       2.712   7.343  18.912  0.00  0.00    +0.000 A 
ATOM      7  C   UNL     1       2.554   8.092  17.733  0.00  0.00    +0.000 A 
ATOM      8  C   UNL     1       1.725   9.219  17.708  0.00  0.00    +0.000 A 
ENDBRANCH   1   6
BRANCH   1   9
ATOM      9  N   UNL     1       3.183   4.900  19.438  0.00  0.00    +0.000 NA
ATOM     10  C   UNL     1       4.189   3.871  19.775  0.00  0.00    +0.000 C 
ATOM     11  C   UNL     1       3.573   2.533  20.233  0.00  0.00    +0.000 C 
ATOM     12  N   UNL     1       2.601   1.962  19.286  0.00  0.00    +0.000 NA
ATOM     13  C   UNL     1       3.260   1.475  18.072  0.00  0.00    +0.000 C 
ATOM     14  C   UNL     1       1.594   2.998  18.975  0.00  0.00    +0.000 C 
ATOM     15  C   UNL     1       2.173   4.359  18.512  0.00  0.00    +0.000 C 
ENDBRANCH   1   9
BRANCH   1  16
ATOM     16  C   UNL     1       4.601   6.031  17.736  0.00  0.00    +0.000 A 
ATOM     17  C   UNL     1       4.472   5.114  16.704  0.00  0.00    +0.000 A 
ATOM     18  C   UNL     1       5.477   5.302  15.708  0.00  0.00    +0.000 A 
ATOM     19  C   UNL     1       5.583   4.539  14.436  0.00  0.00    +0.000 C 
ATOM     20  N   UNL     1       6.374   6.251  15.967  0.00  0.00    +0.000 NA
ATOM     21  S   UNL     1       6.029   6.934  17.435  0.00  0.00    +0.000 S 
ENDBRANCH   1  16
TORSDOF 3
ENDMDL
MODEL 9
REMARK VINA RESULT:      -7.0      1.119      1.919
REMARK  Name = 
REMARK  6 active torsions:
REMARK  status: ('A' for Active; 'I' for Inactive)
REMARK    1  A    between atoms: C_1  and  C_2
REMARK    2  A    between atoms: C_5  and  C_6
REMARK    3  A    between atoms: C_6  and  C_7
REMARK    4  A    between atoms: C_6  and  N_13
REMARK    5  A    between atoms: C_9  and  C_10
REMARK    6  A    between atoms: N_16  and  C_17
REMARK                            x       y       z     vdW  Elec       q    Type
REMARK                         _______ _______ _______ _____ _____    ______ ____
ROOT
ATOM      1  C   UNL     1       3.623   6.258  18.968  0.00  0.00    +0.000 C 
ENDROOT
BRANCH   1   6
ATOM      2  C   UNL     1      -0.267  10.618  18.683  0.00  0.00    +0.000 C 
ATOM      3  C   UNL     1       0.798   9.569  18.779  0.00  0.00    +0.000 A 
ATOM      4  C   UNL     1       1.572   9.241  17.666  0.00  0.00    +0.000 A 
ATOM      5  C   UNL     1       2.539   8.241  17.750  0.00  0.00    +0.000 A 
ATOM      6  C   UNL     1       2.716   7.494  18.926  0.00  0.00    +0.000 A 
ATOM      7  C   UNL     1       1.978   7.874  20.061  0.00  0.00    +0.000 A 
ATOM      8  C   UNL     1       1.037   8.907  19.989  0.00  0.00    +0.000 A 
ENDBRANCH   1   6
BRANCH   1   9
ATOM      9  N   UNL     1       2.913   4.993  19.340  0.00  0.00    +0.000 NA
ATOM     10  C   UNL     1       3.778   3.926  19.886  0.00  0.00    +0.000 C 
ATOM     11  C   UNL     1       3.014   2.636  20.248  0.00  0.00    +0.000 C 
ATOM     12  N   UNL     1       2.209   2.085  19.145  0.00  0.00    +0.000 NA
ATOM     13  C   UNL     1       3.059   1.526  18.091  0.00  0.00    +0.000 C 
ATOM     14  C   UNL     1       1.338   3.158  18.625  0.00  0.00    +0.000 C 
ATOM     15  C   UNL     1       2.069   4.473  18.250  0.00  0.00    +0.000 C 
ENDBRANCH   1   9
BRANCH   1  16
ATOM     16  C   UNL     1       4.503   6.050  17.745  0.00  0.00    +0.000 A 
ATOM     17  C   UNL     1       4.398   5.105  16.737  0.00  0.00    +0.000 A 
ATOM     18  C   UNL     1       5.419   5.271  15.755  0.00  0.00    +0.000 A 
ATOM     19  C   UNL     1       5.553   4.476  14.506  0.00  0.00    +0.000 C 
ATOM     20  N   UNL     1       6.308   6.232  16.004  0.00  0.00    +0.000 NA
ATOM     21  S   UNL     1       5.932   6.952  17.447  0.00  0.00    +0.000 S 
ENDBRANCH   1  16
TORSDOF 3
ENDMDL
