MODEL 1
REMARK VINA RESULT:      -6.9      0.000      0.000
REMARK  Name = 
REMARK  14 active torsions:
REMARK  status: ('A' for Active; 'I' for Inactive)
REMARK    1  A    between atoms: C_1  and  C_2
REMARK    2  A    between atoms: C_2  and  C_3
REMARK    3  A    between atoms: C_3  and  O_4
REMARK    4  A    between atoms: O_4  and  C_5
REMARK    5  A    between atoms: C_8  and  C_9
REMARK    6  A    between atoms: C_12  and  C_13
REMARK    7  A    between atoms: N_20  and  C_21
REMARK    8  A    between atoms: C_21  and  C_22
REMARK    9  A    between atoms: C_22  and  N_24
REMARK   10  A    between atoms: N_27  and  C_28
REMARK   11  A    between atoms: C_28  and  C_29
REMARK   12  A    between atoms: C_29  and  O_30
REMARK   13  A    between atoms: C_29  and  C_31
REMARK   14  A    between atoms: C_31  and  O_32
REMARK                            x       y       z     vdW  Elec       q    Type
REMARK                         _______ _______ _______ _____ _____    ______ ____
ROOT
ATOM      1  C   UNL     1       0.043  10.330  21.447  0.00  0.00    +0.000 A 
ATOM      2  C   UNL     1      -0.587   9.882  22.598  0.00  0.00    +0.000 A 
ATOM      3  C   UNL     1      -1.298  10.939  23.176  0.00  0.00    +0.000 A 
ATOM      4  C   UNL     1      -1.127  12.077  22.401  0.00  0.00    +0.000 A 
ATOM      5  N   UNL     1      -0.249  11.710  21.356  0.00  0.00    +0.000 N 
ENDROOT
BRANCH   4   6
ATOM      6  C   UNL     1      -1.698  13.416  22.735  0.00  0.00    +0.000 A 
ATOM      7  C   UNL     1      -0.832  14.357  23.344  0.00  0.00    +0.000 A 
ATOM      8  C   UNL     1      -1.275  15.611  23.782  0.00  0.00    +0.000 A 
ATOM      9  C   UNL     1      -2.593  15.988  23.574  0.00  0.00    +0.000 A 
ATOM     10  C   UNL     1      -3.474  15.085  22.982  0.00  0.00    +0.000 A 
ATOM     11  C   UNL     1      -3.047  13.795  22.613  0.00  0.00    +0.000 A 
ATOM     12 CL   UNL     1      -4.298  12.701  22.129  0.00  0.00    +0.000 Cl
ENDBRANCH   4   6
BRANCH   1  16
ATOM     13  C   UNL     1       2.220   7.656  18.804  0.00  0.00    +0.000 A 
ATOM     14  C   UNL     1       2.083   7.379  20.159  0.00  0.00    +0.000 A 
ATOM     15  C   UNL     1       1.372   8.262  20.993  0.00  0.00    +0.000 A 
ATOM     16  C   UNL     1       0.815   9.465  20.514  0.00  0.00    +0.000 A 
ATOM     17  C   UNL     1       1.077   9.779  19.182  0.00  0.00    +0.000 A 
ATOM     18  C   UNL     1       1.730   8.872  18.327  0.00  0.00    +0.000 A 
BRANCH  13  19
ATOM     19  O   UNL     1       2.811   6.850  17.869  0.00  0.00    +0.000 OA
BRANCH  19  20
ATOM     20  C   UNL     1       3.129   5.517  18.281  0.00  0.00    +0.000 C 
BRANCH  20  22
ATOM     21  C   UNL     1       2.538   3.283  17.203  0.00  0.00    +0.000 C 
ATOM     22  C   UNL     1       2.017   4.547  17.872  0.00  0.00    +0.000 C 
ENDBRANCH  20  22
ENDBRANCH  19  20
ENDBRANCH  13  19
ENDBRANCH   1  16
BRANCH   5  23
ATOM     23  C   UNL     1       0.461  12.679  20.517  0.00  0.00    +0.000 C 
BRANCH  23  24
ATOM     24  C   UNL     1      -0.355  13.413  19.467  0.00  0.00    +0.000 C 
ATOM     25  O   UNL     1      -0.811  14.547  19.618  0.00  0.00    +0.000 OA
BRANCH  24  26
ATOM     26  N   UNL     1      -0.520  12.647  18.323  0.00  0.00    +0.000 NA
ATOM     27  C   UNL     1      -1.678  12.161  18.012  0.00  0.00    +0.000 C 
ATOM     28  N   UNL     1      -1.780  11.335  16.943  0.00  0.00    +0.000 N 
ATOM     29  N   UNL     1      -2.859  12.384  18.633  0.00  0.00    +0.000 N 
ATOM     30  H   UNL     1      -0.937  11.355  16.375  0.00  0.00    +0.000 HD
ATOM     31  H   UNL     1      -2.606  11.494  16.384  0.00  0.00    +0.000 HD
ATOM     32  H   UNL     1      -2.739  13.019  19.430  0.00  0.00    +0.000 HD
BRANCH  29  33
ATOM     33  C   UNL     1      -3.939  11.420  18.793  0.00  0.00    +0.000 C 
BRANCH  33  34
ATOM     34  C   UNL     1      -5.289  12.107  18.512  0.00  0.00    +0.000 C 
BRANCH  34  35
ATOM     35  O   UNL     1      -5.314  13.453  19.021  0.00  0.00    +0.000 OA
ATOM     36  H   UNL     1      -5.682  14.045  18.337  0.00  0.00    +0.000 HD
ENDBRANCH  34  35
BRANCH  34  37
ATOM     37  C   UNL     1      -5.601  12.159  17.014  0.00  0.00    +0.000 C 
BRANCH  37  38
ATOM     38  O   UNL     1      -4.799  11.196  16.333  0.00  0.00    +0.000 OA
ATOM     39  H   UNL     1      -5.331  10.374  16.352  0.00  0.00    +0.000 HD
ENDBRANCH  37  38
ENDBRANCH  34  37
ENDBRANCH  33  34
ENDBRANCH  29  33
ENDBRANCH  24  26
ENDBRANCH  23  24
ENDBRANCH   5  23
TORSDOF 13
ENDMDL
MODEL 2
REMARK VINA RESULT:      -6.8      1.474      1.740
REMARK  Name = 
REMARK  14 active torsions:
REMARK  status: ('A' for Active; 'I' for Inactive)
REMARK    1  A    between atoms: C_1  and  C_2
REMARK    2  A    between atoms: C_2  and  C_3
REMARK    3  A    between atoms: C_3  and  O_4
REMARK    4  A    between atoms: O_4  and  C_5
REMARK    5  A    between atoms: C_8  and  C_9
REMARK    6  A    between atoms: C_12  and  C_13
REMARK    7  A    between atoms: N_20  and  C_21
REMARK    8  A    between atoms: C_21  and  C_22
REMARK    9  A    between atoms: C_22  and  N_24
REMARK   10  A    between atoms: N_27  and  C_28
REMARK   11  A    between atoms: C_28  and  C_29
REMARK   12  A    between atoms: C_29  and  O_30
REMARK   13  A    between atoms: C_29  and  C_31
REMARK   14  A    between atoms: C_31  and  O_32
REMARK                            x       y       z     vdW  Elec       q    Type
REMARK                         _______ _______ _______ _____ _____    ______ ____
ROOT
ATOM      1  C   UNL     1       0.300   9.772  21.445  0.00  0.00    +0.000 A 
ATOM      2  C   UNL     1       0.158   9.465  22.790  0.00  0.00    +0.000 A 
ATOM      3  C   UNL     1      -0.674  10.414  23.394  0.00  0.00    +0.000 A 
ATOM      4  C   UNL     1      -1.072  11.340  22.441  0.00  0.00    +0.000 A 
ATOM      5  N   UNL     1      -0.422  10.970  21.242  0.00  0.00    +0.000 N 
ENDROOT
BRANCH   4   6
ATOM      6  C   UNL     1      -1.927  12.531  22.729  0.00  0.00    +0.000 A 
ATOM      7  C   UNL     1      -3.320  12.313  22.860  0.00  0.00    +0.000 A 
ATOM      8  C   UNL     1      -4.229  13.363  23.043  0.00  0.00    +0.000 A 
ATOM      9  C   UNL     1      -3.766  14.664  23.157  0.00  0.00    +0.000 A 
ATOM     10  C   UNL     1      -2.402  14.915  23.028  0.00  0.00    +0.000 A 
ATOM     11  C   UNL     1      -1.496  13.870  22.765  0.00  0.00    +0.000 A 
ATOM     12 CL   UNL     1       0.119  14.355  22.377  0.00  0.00    +0.000 Cl
ENDBRANCH   4   6
BRANCH   1  16
ATOM     13  C   UNL     1       2.373   7.178  18.644  0.00  0.00    +0.000 A 
ATOM     14  C   UNL     1       2.242   6.836  19.985  0.00  0.00    +0.000 A 
ATOM     15  C   UNL     1       1.566   7.695  20.871  0.00  0.00    +0.000 A 
ATOM     16  C   UNL     1       1.037   8.935  20.460  0.00  0.00    +0.000 A 
ATOM     17  C   UNL     1       1.293   9.309  19.142  0.00  0.00    +0.000 A 
ATOM     18  C   UNL     1       1.912   8.429  18.235  0.00  0.00    +0.000 A 
BRANCH  13  19
ATOM     19  O   UNL     1       2.931   6.404  17.662  0.00  0.00    +0.000 OA
BRANCH  19  20
ATOM     20  C   UNL     1       3.007   4.999  17.919  0.00  0.00    +0.000 C 
BRANCH  20  22
ATOM     21  C   UNL     1       1.502   2.983  18.332  0.00  0.00    +0.000 C 
ATOM     22  C   UNL     1       1.661   4.326  17.636  0.00  0.00    +0.000 C 
ENDBRANCH  20  22
ENDBRANCH  19  20
ENDBRANCH  13  19
ENDBRANCH   1  16
BRANCH   5  23
ATOM     23  C   UNL     1      -0.289  11.860  20.085  0.00  0.00    +0.000 C 
BRANCH  23  24
ATOM     24  C   UNL     1      -1.513  12.032  19.201  0.00  0.00    +0.000 C 
ATOM     25  O   UNL     1      -2.486  12.724  19.501  0.00  0.00    +0.000 OA
BRANCH  24  26
ATOM     26  N   UNL     1      -1.395  11.313  18.021  0.00  0.00    +0.000 NA
ATOM     27  C   UNL     1      -2.369  11.267  17.172  0.00  0.00    +0.000 C 
ATOM     28  N   UNL     1      -2.254  10.473  16.079  0.00  0.00    +0.000 N 
ATOM     29  N   UNL     1      -3.539  11.945  17.223  0.00  0.00    +0.000 N 
ATOM     30  H   UNL     1      -1.299  10.150  15.953  0.00  0.00    +0.000 HD
ATOM     31  H   UNL     1      -2.617  10.891  15.234  0.00  0.00    +0.000 HD
ATOM     32  H   UNL     1      -3.583  12.538  18.059  0.00  0.00    +0.000 HD
BRANCH  29  33
ATOM     33  C   UNL     1      -4.834  11.455  16.769  0.00  0.00    +0.000 C 
BRANCH  33  34
ATOM     34  C   UNL     1      -5.866  11.600  17.904  0.00  0.00    +0.000 C 
BRANCH  34  35
ATOM     35  O   UNL     1      -5.242  11.530  19.199  0.00  0.00    +0.000 OA
ATOM     36  H   UNL     1      -4.377  11.981  19.160  0.00  0.00    +0.000 HD
ENDBRANCH  34  35
BRANCH  34  37
ATOM     37  C   UNL     1      -6.628  12.926  17.814  0.00  0.00    +0.000 C 
BRANCH  37  38
ATOM     38  O   UNL     1      -6.150  13.669  16.694  0.00  0.00    +0.000 OA
ATOM     39  H   UNL     1      -5.190  13.481  16.665  0.00  0.00    +0.000 HD
ENDBRANCH  37  38
ENDBRANCH  34  37
ENDBRANCH  33  34
ENDBRANCH  29  33
ENDBRANCH  24  26
ENDBRANCH  23  24
ENDBRANCH   5  23
TORSDOF 13
ENDMDL
MODEL 3
REMARK VINA RESULT:      -6.7      1.479      1.930
REMARK  Name = 
REMARK  14 active torsions:
REMARK  status: ('A' for Active; 'I' for Inactive)
REMARK    1  A    between atoms: C_1  and  C_2
REMARK    2  A    between atoms: C_2  and  C_3
REMARK    3  A    between atoms: C_3  and  O_4
REMARK    4  A    between atoms: O_4  and  C_5
REMARK    5  A    between atoms: C_8  and  C_9
REMARK    6  A    between atoms: C_12  and  C_13
REMARK    7  A    between atoms: N_20  and  C_21
REMARK    8  A    between atoms: C_21  and  C_22
REMARK    9  A    between atoms: C_22  and  N_24
REMARK   10  A    between atoms: N_27  and  C_28
REMARK   11  A    between atoms: C_28  and  C_29
REMARK   12  A    between atoms: C_29  and  O_30
REMARK   13  A    between atoms: C_29  and  C_31
REMARK   14  A    between atoms: C_31  and  O_32
REMARK                            x       y       z     vdW  Elec       q    Type
REMARK                         _______ _______ _______ _____ _____    ______ ____
ROOT
ATOM      1  C   UNL     1       0.400   9.621  21.429  0.00  0.00    +0.000 A 
ATOM      2  C   UNL     1       0.234   9.350  22.779  0.00  0.00    +0.000 A 
ATOM      3  C   UNL     1      -0.583  10.333  23.349  0.00  0.00    +0.000 A 
ATOM      4  C   UNL     1      -0.947  11.244  22.368  0.00  0.00    +0.000 A 
ATOM      5  N   UNL     1      -0.290  10.830  21.187  0.00  0.00    +0.000 N 
ENDROOT
BRANCH   4   6
ATOM      6  C   UNL     1      -1.777  12.461  22.616  0.00  0.00    +0.000 A 
ATOM      7  C   UNL     1      -3.172  12.275  22.771  0.00  0.00    +0.000 A 
ATOM      8  C   UNL     1      -4.060  13.347  22.920  0.00  0.00    +0.000 A 
ATOM      9  C   UNL     1      -3.573  14.644  22.975  0.00  0.00    +0.000 A 
ATOM     10  C   UNL     1      -2.206  14.864  22.821  0.00  0.00    +0.000 A 
ATOM     11  C   UNL     1      -1.322  13.792  22.592  0.00  0.00    +0.000 A 
ATOM     12 CL   UNL     1       0.297  14.232  22.167  0.00  0.00    +0.000 Cl
ENDBRANCH   4   6
BRANCH   1  16
ATOM     13  C   UNL     1       2.433   6.914  18.706  0.00  0.00    +0.000 A 
ATOM     14  C   UNL     1       2.171   6.553  20.023  0.00  0.00    +0.000 A 
ATOM     15  C   UNL     1       1.511   7.449  20.884  0.00  0.00    +0.000 A 
ATOM     16  C   UNL     1       1.130   8.743  20.475  0.00  0.00    +0.000 A 
ATOM     17  C   UNL     1       1.518   9.123  19.191  0.00  0.00    +0.000 A 
ATOM     18  C   UNL     1       2.120   8.212  18.305  0.00  0.00    +0.000 A 
BRANCH  13  19
ATOM     19  O   UNL     1       2.990   6.116  17.743  0.00  0.00    +0.000 OA
BRANCH  19  20
ATOM     20  C   UNL     1       2.535   4.760  17.692  0.00  0.00    +0.000 C 
BRANCH  20  22
ATOM     21  C   UNL     1       3.585   2.437  17.731  0.00  0.00    +0.000 C 
ATOM     22  C   UNL     1       3.634   3.843  17.149  0.00  0.00    +0.000 C 
ENDBRANCH  20  22
ENDBRANCH  19  20
ENDBRANCH  13  19
ENDBRANCH   1  16
BRANCH   5  23
ATOM     23  C   UNL     1      -0.122  11.688  20.011  0.00  0.00    +0.000 C 
BRANCH  23  24
ATOM     24  C   UNL     1      -1.315  11.829  19.081  0.00  0.00    +0.000 C 
ATOM     25  O   UNL     1      -2.148  12.734  19.163  0.00  0.00    +0.000 OA
BRANCH  24  26
ATOM     26  N   UNL     1      -1.349  10.815  18.136  0.00  0.00    +0.000 NA
ATOM     27  C   UNL     1      -2.258  10.795  17.216  0.00  0.00    +0.000 C 
ATOM     28  N   UNL     1      -2.319   9.736  16.373  0.00  0.00    +0.000 N 
ATOM     29  N   UNL     1      -3.193  11.739  16.962  0.00  0.00    +0.000 N 
ATOM     30  H   UNL     1      -1.487   9.156  16.443  0.00  0.00    +0.000 HD
ATOM     31  H   UNL     1      -2.511   9.991  15.415  0.00  0.00    +0.000 HD
ATOM     32  H   UNL     1      -3.108  12.526  17.616  0.00  0.00    +0.000 HD
BRANCH  29  33
ATOM     33  C   UNL     1      -4.551  11.496  16.493  0.00  0.00    +0.000 C 
BRANCH  33  34
ATOM     34  C   UNL     1      -5.551  12.221  17.414  0.00  0.00    +0.000 C 
BRANCH  34  35
ATOM     35  O   UNL     1      -6.861  12.291  16.823  0.00  0.00    +0.000 OA
ATOM     36  H   UNL     1      -7.491  11.805  17.390  0.00  0.00    +0.000 HD
ENDBRANCH  34  35
BRANCH  34  37
ATOM     37  C   UNL     1      -5.678  11.529  18.774  0.00  0.00    +0.000 C 
BRANCH  37  38
ATOM     38  O   UNL     1      -4.803  12.159  19.707  0.00  0.00    +0.000 OA
ATOM     39  H   UNL     1      -3.920  11.782  19.511  0.00  0.00    +0.000 HD
ENDBRANCH  37  38
ENDBRANCH  34  37
ENDBRANCH  33  34
ENDBRANCH  29  33
ENDBRANCH  24  26
ENDBRANCH  23  24
ENDBRANCH   5  23
TORSDOF 13
ENDMDL
MODEL 4
REMARK VINA RESULT:      -6.7      1.700      2.243
REMARK  Name = 
REMARK  14 active torsions:
REMARK  status: ('A' for Active; 'I' for Inactive)
REMARK    1  A    between atoms: C_1  and  C_2
REMARK    2  A    between atoms: C_2  and  C_3
REMARK    3  A    between atoms: C_3  and  O_4
REMARK    4  A    between atoms: O_4  and  C_5
REMARK    5  A    between atoms: C_8  and  C_9
REMARK    6  A    between atoms: C_12  and  C_13
REMARK    7  A    between atoms: N_20  and  C_21
REMARK    8  A    between atoms: C_21  and  C_22
REMARK    9  A    between atoms: C_22  and  N_24
REMARK   10  A    between atoms: N_27  and  C_28
REMARK   11  A    between atoms: C_28  and  C_29
REMARK   12  A    between atoms: C_29  and  O_30
REMARK   13  A    between atoms: C_29  and  C_31
REMARK   14  A    between atoms: C_31  and  O_32
REMARK                            x       y       z     vdW  Elec       q    Type
REMARK                         _______ _______ _______ _____ _____    ______ ____
ROOT
ATOM      1  C   UNL     1       0.024  10.034  21.514  0.00  0.00    +0.000 A 
ATOM      2  C   UNL     1      -0.285   9.624  22.803  0.00  0.00    +0.000 A 
ATOM      3  C   UNL     1      -1.129  10.568  23.397  0.00  0.00    +0.000 A 
ATOM      4  C   UNL     1      -1.367  11.594  22.494  0.00  0.00    +0.000 A 
ATOM      5  N   UNL     1      -0.606  11.287  21.344  0.00  0.00    +0.000 N 
ENDROOT
BRANCH   4   6
ATOM      6  C   UNL     1      -2.186  12.807  22.796  0.00  0.00    +0.000 A 
ATOM      7  C   UNL     1      -3.593  12.654  22.806  0.00  0.00    +0.000 A 
ATOM      8  C   UNL     1      -4.465  13.736  22.989  0.00  0.00    +0.000 A 
ATOM      9  C   UNL     1      -3.952  15.002  23.224  0.00  0.00    +0.000 A 
ATOM     10  C   UNL     1      -2.571  15.189  23.216  0.00  0.00    +0.000 A 
ATOM     11  C   UNL     1      -1.697  14.117  22.954  0.00  0.00    +0.000 A 
ATOM     12 CL   UNL     1      -0.036  14.542  22.723  0.00  0.00    +0.000 Cl
ENDBRANCH   4   6
BRANCH   1  16
ATOM     13  C   UNL     1       2.284   7.559  18.750  0.00  0.00    +0.000 A 
ATOM     14  C   UNL     1       2.141   7.204  20.087  0.00  0.00    +0.000 A 
ATOM     15  C   UNL     1       1.403   8.024  20.961  0.00  0.00    +0.000 A 
ATOM     16  C   UNL     1       0.824   9.239  20.544  0.00  0.00    +0.000 A 
ATOM     17  C   UNL     1       1.090   9.632  19.233  0.00  0.00    +0.000 A 
ATOM     18  C   UNL     1       1.771   8.788  18.337  0.00  0.00    +0.000 A 
BRANCH  13  19
ATOM     19  O   UNL     1       2.901   6.819  17.778  0.00  0.00    +0.000 OA
BRANCH  19  20
ATOM     20  C   UNL     1       3.149   5.442  18.081  0.00  0.00    +0.000 C 
BRANCH  20  22
ATOM     21  C   UNL     1       1.357   3.782  18.809  0.00  0.00    +0.000 C 
ATOM     22  C   UNL     1       1.959   4.576  17.659  0.00  0.00    +0.000 C 
ENDBRANCH  20  22
ENDBRANCH  19  20
ENDBRANCH  13  19
ENDBRANCH   1  16
BRANCH   5  23
ATOM     23  C   UNL     1      -0.296  12.262  20.294  0.00  0.00    +0.000 C 
BRANCH  23  24
ATOM     24  C   UNL     1      -1.247  12.328  19.110  0.00  0.00    +0.000 C 
ATOM     25  O   UNL     1      -0.885  12.272  17.934  0.00  0.00    +0.000 OA
BRANCH  24  26
ATOM     26  N   UNL     1      -2.564  12.461  19.521  0.00  0.00    +0.000 NA
ATOM     27  C   UNL     1      -3.520  11.862  18.888  0.00  0.00    +0.000 C 
ATOM     28  N   UNL     1      -4.803  12.096  19.257  0.00  0.00    +0.000 N 
ATOM     29  N   UNL     1      -3.407  10.982  17.866  0.00  0.00    +0.000 N 
ATOM     30  H   UNL     1      -4.851  12.580  20.149  0.00  0.00    +0.000 HD
ATOM     31  H   UNL     1      -5.383  11.269  19.254  0.00  0.00    +0.000 HD
ATOM     32  H   UNL     1      -2.422  10.827  17.623  0.00  0.00    +0.000 HD
BRANCH  29  33
ATOM     33  C   UNL     1      -4.327  10.848  16.745  0.00  0.00    +0.000 C 
BRANCH  33  34
ATOM     34  C   UNL     1      -3.567  11.079  15.425  0.00  0.00    +0.000 C 
BRANCH  34  35
ATOM     35  O   UNL     1      -2.201  11.465  15.661  0.00  0.00    +0.000 OA
ATOM     36  H   UNL     1      -1.890  11.045  16.486  0.00  0.00    +0.000 HD
ENDBRANCH  34  35
BRANCH  34  37
ATOM     37  C   UNL     1      -3.563   9.827  14.543  0.00  0.00    +0.000 C 
BRANCH  37  38
ATOM     38  O   UNL     1      -2.655  10.018  13.459  0.00  0.00    +0.000 OA
ATOM     39  H   UNL     1      -3.190  10.452  12.763  0.00  0.00    +0.000 HD
ENDBRANCH  37  38
ENDBRANCH  34  37
ENDBRANCH  33  34
ENDBRANCH  29  33
ENDBRANCH  24  26
ENDBRANCH  23  24
ENDBRANCH   5  23
TORSDOF 13
ENDMDL
MODEL 5
REMARK VINA RESULT:      -6.6      1.731      2.211
REMARK  Name = 
REMARK  14 active torsions:
REMARK  status: ('A' for Active; 'I' for Inactive)
REMARK    1  A    between atoms: C_1  and  C_2
REMARK    2  A    between atoms: C_2  and  C_3
REMARK    3  A    between atoms: C_3  and  O_4
REMARK    4  A    between atoms: O_4  and  C_5
REMARK    5  A    between atoms: C_8  and  C_9
REMARK    6  A    between atoms: C_12  and  C_13
REMARK    7  A    between atoms: N_20  and  C_21
REMARK    8  A    between atoms: C_21  and  C_22
REMARK    9  A    between atoms: C_22  and  N_24
REMARK   10  A    between atoms: N_27  and  C_28
REMARK   11  A    between atoms: C_28  and  C_29
REMARK   12  A    between atoms: C_29  and  O_30
REMARK   13  A    between atoms: C_29  and  C_31
REMARK   14  A    between atoms: C_31  and  O_32
REMARK                            x       y       z     vdW  Elec       q    Type
REMARK                         _______ _______ _______ _____ _____    ______ ____
ROOT
ATOM      1  C   UNL     1       0.622   9.434  21.217  0.00  0.00    +0.000 A 
ATOM      2  C   UNL     1       0.391   9.158  22.557  0.00  0.00    +0.000 A 
ATOM      3  C   UNL     1      -0.388  10.179  23.111  0.00  0.00    +0.000 A 
ATOM      4  C   UNL     1      -0.663  11.122  22.130  0.00  0.00    +0.000 A 
ATOM      5  N   UNL     1       0.012  10.684  20.968  0.00  0.00    +0.000 N 
ENDROOT
BRANCH   4   6
ATOM      6  C   UNL     1      -1.430  12.382  22.366  0.00  0.00    +0.000 A 
ATOM      7  C   UNL     1      -2.835  12.271  22.500  0.00  0.00    +0.000 A 
ATOM      8  C   UNL     1      -3.667  13.389  22.636  0.00  0.00    +0.000 A 
ATOM      9  C   UNL     1      -3.111  14.658  22.696  0.00  0.00    +0.000 A 
ATOM     10  C   UNL     1      -1.732  14.804  22.563  0.00  0.00    +0.000 A 
ATOM     11  C   UNL     1      -0.904  13.687  22.347  0.00  0.00    +0.000 A 
ATOM     12 CL   UNL     1       0.742  14.038  21.946  0.00  0.00    +0.000 Cl
ENDBRANCH   4   6
BRANCH   1  16
ATOM     13  C   UNL     1       2.603   6.644  18.541  0.00  0.00    +0.000 A 
ATOM     14  C   UNL     1       2.347   6.315  19.868  0.00  0.00    +0.000 A 
ATOM     15  C   UNL     1       1.704   7.238  20.714  0.00  0.00    +0.000 A 
ATOM     16  C   UNL     1       1.335   8.526  20.278  0.00  0.00    +0.000 A 
ATOM     17  C   UNL     1       1.717   8.874  18.983  0.00  0.00    +0.000 A 
ATOM     18  C   UNL     1       2.301   7.936  18.113  0.00  0.00    +0.000 A 
BRANCH  13  19
ATOM     19  O   UNL     1       3.144   5.818  17.593  0.00  0.00    +0.000 OA
BRANCH  19  20
ATOM     20  C   UNL     1       4.537   5.516  17.725  0.00  0.00    +0.000 C 
BRANCH  20  22
ATOM     21  C   UNL     1       6.486   7.098  17.279  0.00  0.00    +0.000 C 
ATOM     22  C   UNL     1       5.354   6.278  16.678  0.00  0.00    +0.000 C 
ENDBRANCH  20  22
ENDBRANCH  19  20
ENDBRANCH  13  19
ENDBRANCH   1  16
BRANCH   5  23
ATOM     23  C   UNL     1       0.272  11.545  19.811  0.00  0.00    +0.000 C 
BRANCH  23  24
ATOM     24  C   UNL     1      -0.900  11.839  18.890  0.00  0.00    +0.000 C 
ATOM     25  O   UNL     1      -1.562  12.877  18.929  0.00  0.00    +0.000 OA
BRANCH  24  26
ATOM     26  N   UNL     1      -1.130  10.795  18.007  0.00  0.00    +0.000 NA
ATOM     27  C   UNL     1      -2.170  10.793  17.238  0.00  0.00    +0.000 C 
ATOM     28  N   UNL     1      -2.414   9.709  16.462  0.00  0.00    +0.000 N 
ATOM     29  N   UNL     1      -3.085  11.778  17.087  0.00  0.00    +0.000 N 
ATOM     30  H   UNL     1      -1.611   9.086  16.430  0.00  0.00    +0.000 HD
ATOM     31  H   UNL     1      -2.739   9.939  15.534  0.00  0.00    +0.000 HD
ATOM     32  H   UNL     1      -2.860  12.582  17.685  0.00  0.00    +0.000 HD
BRANCH  29  33
ATOM     33  C   UNL     1      -4.509  11.595  16.842  0.00  0.00    +0.000 C 
BRANCH  33  34
ATOM     34  C   UNL     1      -5.275  11.667  18.177  0.00  0.00    +0.000 C 
BRANCH  34  35
ATOM     35  O   UNL     1      -4.791  12.739  19.008  0.00  0.00    +0.000 OA
ATOM     36  H   UNL     1      -5.387  13.508  18.912  0.00  0.00    +0.000 HD
ENDBRANCH  34  35
BRANCH  34  37
ATOM     37  C   UNL     1      -6.777  11.873  17.962  0.00  0.00    +0.000 C 
BRANCH  37  38
ATOM     38  O   UNL     1      -7.500  10.976  18.804  0.00  0.00    +0.000 OA
ATOM     39  H   UNL     1      -8.422  11.303  18.779  0.00  0.00    +0.000 HD
ENDBRANCH  37  38
ENDBRANCH  34  37
ENDBRANCH  33  34
ENDBRANCH  29  33
ENDBRANCH  24  26
ENDBRANCH  23  24
ENDBRANCH   5  23
TORSDOF 13
ENDMDL
MODEL 6
REMARK VINA RESULT:      -6.6      4.643      8.010
REMARK  Name = 
REMARK  14 active torsions:
REMARK  status: ('A' for Active; 'I' for Inactive)
REMARK    1  A    between atoms: C_1  and  C_2
REMARK    2  A    between atoms: C_2  and  C_3
REMARK    3  A    between atoms: C_3  and  O_4
REMARK    4  A    between atoms: O_4  and  C_5
REMARK    5  A    between atoms: C_8  and  C_9
REMARK    6  A    between atoms: C_12  and  C_13
REMARK    7  A    between atoms: N_20  and  C_21
REMARK    8  A    between atoms: C_21  and  C_22
REMARK    9  A    between atoms: C_22  and  N_24
REMARK   10  A    between atoms: N_27  and  C_28
REMARK   11  A    between atoms: C_28  and  C_29
REMARK   12  A    between atoms: C_29  and  O_30
REMARK   13  A    between atoms: C_29  and  C_31
REMARK   14  A    between atoms: C_31  and  O_32
REMARK                            x       y       z     vdW  Elec       q    Type
REMARK                         _______ _______ _______ _____ _____    ______ ____
ROOT
ATOM      1  C   UNL     1       2.866   7.925  18.092  0.00  0.00    +0.000 A 
ATOM      2  C   UNL     1       2.275   8.991  17.430  0.00  0.00    +0.000 A 
ATOM      3  C   UNL     1       1.459   9.693  18.324  0.00  0.00    +0.000 A 
ATOM      4  C   UNL     1       1.519   9.082  19.568  0.00  0.00    +0.000 A 
ATOM      5  N   UNL     1       2.351   7.951  19.408  0.00  0.00    +0.000 N 
ENDROOT
BRANCH   4   6
ATOM      6  C   UNL     1       0.737   9.524  20.761  0.00  0.00    +0.000 A 
ATOM      7  C   UNL     1       0.093   8.519  21.524  0.00  0.00    +0.000 A 
ATOM      8  C   UNL     1      -0.738   8.819  22.611  0.00  0.00    +0.000 A 
ATOM      9  C   UNL     1      -0.910  10.137  23.004  0.00  0.00    +0.000 A 
ATOM     10  C   UNL     1      -0.295  11.151  22.274  0.00  0.00    +0.000 A 
ATOM     11  C   UNL     1       0.477  10.856  21.134  0.00  0.00    +0.000 A 
ATOM     12 CL   UNL     1       0.964  12.217  20.183  0.00  0.00    +0.000 Cl
ENDBRANCH   4   6
BRANCH   1  16
ATOM     13  C   UNL     1       5.881   5.395  16.252  0.00  0.00    +0.000 A 
ATOM     14  C   UNL     1       5.285   6.436  15.550  0.00  0.00    +0.000 A 
ATOM     15  C   UNL     1       4.310   7.241  16.170  0.00  0.00    +0.000 A 
ATOM     16  C   UNL     1       3.871   7.009  17.489  0.00  0.00    +0.000 A 
ATOM     17  C   UNL     1       4.393   5.883  18.124  0.00  0.00    +0.000 A 
ATOM     18  C   UNL     1       5.413   5.113  17.535  0.00  0.00    +0.000 A 
BRANCH  13  19
ATOM     19  O   UNL     1       6.894   4.591  15.802  0.00  0.00    +0.000 OA
BRANCH  19  20
ATOM     20  C   UNL     1       7.135   4.593  14.392  0.00  0.00    +0.000 C 
BRANCH  20  22
ATOM     21  C   UNL     1       6.405   3.559  12.179  0.00  0.00    +0.000 C 
ATOM     22  C   UNL     1       6.145   3.673  13.674  0.00  0.00    +0.000 C 
ENDBRANCH  20  22
ENDBRANCH  19  20
ENDBRANCH  13  19
ENDBRANCH   1  16
BRANCH   5  23
ATOM     23  C   UNL     1       2.409   6.846  20.369  0.00  0.00    +0.000 C 
BRANCH  23  24
ATOM     24  C   UNL     1       1.673   5.569  20.000  0.00  0.00    +0.000 C 
ATOM     25  O   UNL     1       1.233   5.330  18.875  0.00  0.00    +0.000 OA
BRANCH  24  26
ATOM     26  N   UNL     1       1.559   4.714  21.086  0.00  0.00    +0.000 NA
ATOM     27  C   UNL     1       2.349   3.699  21.216  0.00  0.00    +0.000 C 
ATOM     28  N   UNL     1       2.142   2.830  22.235  0.00  0.00    +0.000 N 
ATOM     29  N   UNL     1       3.412   3.377  20.443  0.00  0.00    +0.000 N 
ATOM     30  H   UNL     1       1.487   3.204  22.916  0.00  0.00    +0.000 HD
ATOM     31  H   UNL     1       2.994   2.513  22.677  0.00  0.00    +0.000 HD
ATOM     32  H   UNL     1       3.538   4.062  19.689  0.00  0.00    +0.000 HD
BRANCH  29  33
ATOM     33  C   UNL     1       3.848   2.028  20.104  0.00  0.00    +0.000 C 
BRANCH  33  34
ATOM     34  C   UNL     1       3.860   1.861  18.572  0.00  0.00    +0.000 C 
BRANCH  34  35
ATOM     35  O   UNL     1       4.168   0.509  18.189  0.00  0.00    +0.000 OA
ATOM     36  H   UNL     1       3.343  -0.014  18.178  0.00  0.00    +0.000 HD
ENDBRANCH  34  35
BRANCH  34  37
ATOM     37  C   UNL     1       2.514   2.238  17.947  0.00  0.00    +0.000 C 
BRANCH  37  38
ATOM     38  O   UNL     1       1.465   1.584  18.660  0.00  0.00    +0.000 OA
ATOM     39  H   UNL     1       1.536   1.928  19.574  0.00  0.00    +0.000 HD
ENDBRANCH  37  38
ENDBRANCH  34  37
ENDBRANCH  33  34
ENDBRANCH  29  33
ENDBRANCH  24  26
ENDBRANCH  23  24
ENDBRANCH   5  23
TORSDOF 13
ENDMDL
MODEL 7
REMARK VINA RESULT:      -6.5      1.612      2.038
REMARK  Name = 
REMARK  14 active torsions:
REMARK  status: ('A' for Active; 'I' for Inactive)
REMARK    1  A    between atoms: C_1  and  C_2
REMARK    2  A    between atoms: C_2  and  C_3
REMARK    3  A    between atoms: C_3  and  O_4
REMARK    4  A    between atoms: O_4  and  C_5
REMARK    5  A    between atoms: C_8  and  C_9
REMARK    6  A    between atoms: C_12  and  C_13
REMARK    7  A    between atoms: N_20  and  C_21
REMARK    8  A    between atoms: C_21  and  C_22
REMARK    9  A    between atoms: C_22  and  N_24
REMARK   10  A    between atoms: N_27  and  C_28
REMARK   11  A    between atoms: C_28  and  C_29
REMARK   12  A    between atoms: C_29  and  O_30
REMARK   13  A    between atoms: C_29  and  C_31
REMARK   14  A    between atoms: C_31  and  O_32
REMARK                            x       y       z     vdW  Elec       q    Type
REMARK                         _______ _______ _______ _____ _____    ______ ____
ROOT
ATOM      1  C   UNL     1       0.419   9.577  21.156  0.00  0.00    +0.000 A 
ATOM      2  C   UNL     1      -0.001   9.298  22.449  0.00  0.00    +0.000 A 
ATOM      3  C   UNL     1      -0.772  10.365  22.923  0.00  0.00    +0.000 A 
ATOM      4  C   UNL     1      -0.853  11.338  21.938  0.00  0.00    +0.000 A 
ATOM      5  N   UNL     1      -0.066  10.871  20.861  0.00  0.00    +0.000 N 
ENDROOT
BRANCH   4   6
ATOM      6  C   UNL     1      -1.555  12.647  22.103  0.00  0.00    +0.000 A 
ATOM      7  C   UNL     1      -2.970  12.631  22.079  0.00  0.00    +0.000 A 
ATOM      8  C   UNL     1      -3.735  13.803  22.137  0.00  0.00    +0.000 A 
ATOM      9  C   UNL     1      -3.106  15.030  22.276  0.00  0.00    +0.000 A 
ATOM     10  C   UNL     1      -1.714  15.083  22.298  0.00  0.00    +0.000 A 
ATOM     11  C   UNL     1      -0.943  13.912  22.161  0.00  0.00    +0.000 A 
ATOM     12 CL   UNL     1       0.757  14.153  21.950  0.00  0.00    +0.000 Cl
ENDBRANCH   4   6
BRANCH   1  16
ATOM     13  C   UNL     1       2.547   6.687  18.709  0.00  0.00    +0.000 A 
ATOM     14  C   UNL     1       2.247   6.424  20.040  0.00  0.00    +0.000 A 
ATOM     15  C   UNL     1       1.557   7.378  20.811  0.00  0.00    +0.000 A 
ATOM     16  C   UNL     1       1.182   8.634  20.294  0.00  0.00    +0.000 A 
ATOM     17  C   UNL     1       1.607   8.920  18.997  0.00  0.00    +0.000 A 
ATOM     18  C   UNL     1       2.240   7.948  18.201  0.00  0.00    +0.000 A 
BRANCH  13  19
ATOM     19  O   UNL     1       3.138   5.822  17.826  0.00  0.00    +0.000 OA
BRANCH  19  20
ATOM     20  C   UNL     1       4.455   6.161  17.381  0.00  0.00    +0.000 C 
BRANCH  20  22
ATOM     21  C   UNL     1       4.399   3.631  17.075  0.00  0.00    +0.000 C 
ATOM     22  C   UNL     1       5.194   4.915  16.885  0.00  0.00    +0.000 C 
ENDBRANCH  20  22
ENDBRANCH  19  20
ENDBRANCH  13  19
ENDBRANCH   1  16
BRANCH   5  23
ATOM     23  C   UNL     1       0.400  11.728  19.767  0.00  0.00    +0.000 C 
BRANCH  23  24
ATOM     24  C   UNL     1      -0.605  12.068  18.679  0.00  0.00    +0.000 C 
ATOM     25  O   UNL     1      -0.792  13.206  18.246  0.00  0.00    +0.000 OA
BRANCH  24  26
ATOM     26  N   UNL     1      -1.282  10.940  18.240  0.00  0.00    +0.000 NA
ATOM     27  C   UNL     1      -2.573  10.930  18.162  0.00  0.00    +0.000 C 
ATOM     28  N   UNL     1      -3.204   9.779  17.825  0.00  0.00    +0.000 N 
ATOM     29  N   UNL     1      -3.419  11.965  18.370  0.00  0.00    +0.000 N 
ATOM     30  H   UNL     1      -2.550   9.087  17.468  0.00  0.00    +0.000 HD
ATOM     31  H   UNL     1      -3.982   9.912  17.194  0.00  0.00    +0.000 HD
ATOM     32  H   UNL     1      -2.902  12.817  18.615  0.00  0.00    +0.000 HD
BRANCH  29  33
ATOM     33  C   UNL     1      -4.748  11.881  18.962  0.00  0.00    +0.000 C 
BRANCH  33  34
ATOM     34  C   UNL     1      -5.805  12.268  17.911  0.00  0.00    +0.000 C 
BRANCH  34  35
ATOM     35  O   UNL     1      -5.652  11.506  16.700  0.00  0.00    +0.000 OA
ATOM     36  H   UNL     1      -6.533  11.207  16.399  0.00  0.00    +0.000 HD
ENDBRANCH  34  35
BRANCH  34  37
ATOM     37  C   UNL     1      -7.230  12.055  18.431  0.00  0.00    +0.000 C 
BRANCH  37  38
ATOM     38  O   UNL     1      -7.183  11.286  19.632  0.00  0.00    +0.000 OA
ATOM     39  H   UNL     1      -7.330  10.363  19.339  0.00  0.00    +0.000 HD
ENDBRANCH  37  38
ENDBRANCH  34  37
ENDBRANCH  33  34
ENDBRANCH  29  33
ENDBRANCH  24  26
ENDBRANCH  23  24
ENDBRANCH   5  23
TORSDOF 13
ENDMDL
MODEL 8
REMARK VINA RESULT:      -6.4      1.425      1.750
REMARK  Name = 
REMARK  14 active torsions:
REMARK  status: ('A' for Active; 'I' for Inactive)
REMARK    1  A    between atoms: C_1  and  C_2
REMARK    2  A    between atoms: C_2  and  C_3
REMARK    3  A    between atoms: C_3  and  O_4
REMARK    4  A    between atoms: O_4  and  C_5
REMARK    5  A    between atoms: C_8  and  C_9
REMARK    6  A    between atoms: C_12  and  C_13
REMARK    7  A    between atoms: N_20  and  C_21
REMARK    8  A    between atoms: C_21  and  C_22
REMARK    9  A    between atoms: C_22  and  N_24
REMARK   10  A    between atoms: N_27  and  C_28
REMARK   11  A    between atoms: C_28  and  C_29
REMARK   12  A    between atoms: C_29  and  O_30
REMARK   13  A    between atoms: C_29  and  C_31
REMARK   14  A    between atoms: C_31  and  O_32
REMARK                            x       y       z     vdW  Elec       q    Type
REMARK                         _______ _______ _______ _____ _____    ______ ____
ROOT
ATOM      1  C   UNL     1      -0.161  10.546  21.536  0.00  0.00    +0.000 A 
ATOM      2  C   UNL     1      -0.589  10.189  22.807  0.00  0.00    +0.000 A 
ATOM      3  C   UNL     1      -1.363  11.225  23.340  0.00  0.00    +0.000 A 
ATOM      4  C   UNL     1      -1.438  12.257  22.416  0.00  0.00    +0.000 A 
ATOM      5  N   UNL     1      -0.644  11.856  21.317  0.00  0.00    +0.000 N 
ENDROOT
BRANCH   4   6
ATOM      6  C   UNL     1      -2.140  13.554  22.656  0.00  0.00    +0.000 A 
ATOM      7  C   UNL     1      -1.366  14.628  23.158  0.00  0.00    +0.000 A 
ATOM      8  C   UNL     1      -1.930  15.862  23.504  0.00  0.00    +0.000 A 
ATOM      9  C   UNL     1      -3.285  16.080  23.308  0.00  0.00    +0.000 A 
ATOM     10  C   UNL     1      -4.077  15.043  22.820  0.00  0.00    +0.000 A 
ATOM     11  C   UNL     1      -3.525  13.777  22.546  0.00  0.00    +0.000 A 
ATOM     12 CL   UNL     1      -4.662  12.522  22.194  0.00  0.00    +0.000 Cl
ENDBRANCH   4   6
BRANCH   1  16
ATOM     13  C   UNL     1       2.003   7.806  18.952  0.00  0.00    +0.000 A 
ATOM     14  C   UNL     1       1.855   7.553  20.310  0.00  0.00    +0.000 A 
ATOM     15  C   UNL     1       1.149   8.457  21.125  0.00  0.00    +0.000 A 
ATOM     16  C   UNL     1       0.607   9.657  20.623  0.00  0.00    +0.000 A 
ATOM     17  C   UNL     1       0.880   9.946  19.287  0.00  0.00    +0.000 A 
ATOM     18  C   UNL     1       1.529   9.018  18.452  0.00  0.00    +0.000 A 
BRANCH  13  19
ATOM     19  O   UNL     1       2.592   6.978  18.033  0.00  0.00    +0.000 OA
BRANCH  19  20
ATOM     20  C   UNL     1       2.787   5.617  18.430  0.00  0.00    +0.000 C 
BRANCH  20  22
ATOM     21  C   UNL     1       1.755   3.289  18.304  0.00  0.00    +0.000 C 
ATOM     22  C   UNL     1       1.766   4.705  17.746  0.00  0.00    +0.000 C 
ENDBRANCH  20  22
ENDBRANCH  19  20
ENDBRANCH  13  19
ENDBRANCH   1  16
BRANCH   5  23
ATOM     23  C   UNL     1      -0.171  12.777  20.280  0.00  0.00    +0.000 C 
BRANCH  23  24
ATOM     24  C   UNL     1      -0.987  12.856  19.001  0.00  0.00    +0.000 C 
ATOM     25  O   UNL     1      -0.495  12.977  17.878  0.00  0.00    +0.000 OA
BRANCH  24  26
ATOM     26  N   UNL     1      -2.347  12.776  19.257  0.00  0.00    +0.000 NA
ATOM     27  C   UNL     1      -3.048  11.783  18.814  0.00  0.00    +0.000 C 
ATOM     28  N   UNL     1      -4.391  11.791  18.998  0.00  0.00    +0.000 N 
ATOM     29  N   UNL     1      -2.601  10.681  18.169  0.00  0.00    +0.000 N 
ATOM     30  H   UNL     1      -4.671  12.508  19.662  0.00  0.00    +0.000 HD
ATOM     31  H   UNL     1      -4.772  10.889  19.246  0.00  0.00    +0.000 HD
ATOM     32  H   UNL     1      -1.581  10.711  18.057  0.00  0.00    +0.000 HD
BRANCH  29  33
ATOM     33  C   UNL     1      -3.298   9.965  17.110  0.00  0.00    +0.000 C 
BRANCH  33  34
ATOM     34  C   UNL     1      -3.375  10.852  15.853  0.00  0.00    +0.000 C 
BRANCH  34  35
ATOM     35  O   UNL     1      -2.133  11.537  15.611  0.00  0.00    +0.000 OA
ATOM     36  H   UNL     1      -1.840  11.350  14.698  0.00  0.00    +0.000 HD
ENDBRANCH  34  35
BRANCH  34  37
ATOM     37  C   UNL     1      -3.722  10.040  14.602  0.00  0.00    +0.000 C 
BRANCH  37  38
ATOM     38  O   UNL     1      -2.623  10.081  13.694  0.00  0.00    +0.000 OA
ATOM     39  H   UNL     1      -2.869  10.767  13.040  0.00  0.00    +0.000 HD
ENDBRANCH  37  38
ENDBRANCH  34  37
ENDBRANCH  33  34
ENDBRANCH  29  33
ENDBRANCH  24  26
ENDBRANCH  23  24
ENDBRANCH   5  23
TORSDOF 13
ENDMDL
MODEL 9
REMARK VINA RESULT:      -6.4      2.592      3.713
REMARK  Name = 
REMARK  14 active torsions:
REMARK  status: ('A' for Active; 'I' for Inactive)
REMARK    1  A    between atoms: C_1  and  C_2
REMARK    2  A    between atoms: C_2  and  C_3
REMARK    3  A    between atoms: C_3  and  O_4
REMARK    4  A    between atoms: O_4  and  C_5
REMARK    5  A    between atoms: C_8  and  C_9
REMARK    6  A    between atoms: C_12  and  C_13
REMARK    7  A    between atoms: N_20  and  C_21
REMARK    8  A    between atoms: C_21  and  C_22
REMARK    9  A    between atoms: C_22  and  N_24
REMARK   10  A    between atoms: N_27  and  C_28
REMARK   11  A    between atoms: C_28  and  C_29
REMARK   12  A    between atoms: C_29  and  O_30
REMARK   13  A    between atoms: C_29  and  C_31
REMARK   14  A    between atoms: C_31  and  O_32
REMARK                            x       y       z     vdW  Elec       q    Type
REMARK                         _______ _______ _______ _____ _____    ______ ____
ROOT
ATOM      1  C   UNL     1       0.356   9.783  21.085  0.00  0.00    +0.000 A 
ATOM      2  C   UNL     1      -0.090   9.396  22.341  0.00  0.00    +0.000 A 
ATOM      3  C   UNL     1      -0.872  10.420  22.887  0.00  0.00    +0.000 A 
ATOM      4  C   UNL     1      -0.933  11.473  21.986  0.00  0.00    +0.000 A 
ATOM      5  N   UNL     1      -0.124  11.097  20.890  0.00  0.00    +0.000 N 
ENDROOT
BRANCH   4   6
ATOM      6  C   UNL     1      -1.638  12.764  22.246  0.00  0.00    +0.000 A 
ATOM      7  C   UNL     1      -1.303  13.458  23.434  0.00  0.00    +0.000 A 
ATOM      8  C   UNL     1      -1.960  14.631  23.829  0.00  0.00    +0.000 A 
ATOM      9  C   UNL     1      -2.939  15.179  23.016  0.00  0.00    +0.000 A 
ATOM     10  C   UNL     1      -3.298  14.520  21.842  0.00  0.00    +0.000 A 
ATOM     11  C   UNL     1      -2.693  13.299  21.485  0.00  0.00    +0.000 A 
ATOM     12 CL   UNL     1      -3.411  12.470  20.146  0.00  0.00    +0.000 Cl
ENDBRANCH   4   6
BRANCH   1  16
ATOM     13  C   UNL     1       2.558   7.103  18.470  0.00  0.00    +0.000 A 
ATOM     14  C   UNL     1       2.400   6.824  19.822  0.00  0.00    +0.000 A 
ATOM     15  C   UNL     1       1.682   7.709  20.648  0.00  0.00    +0.000 A 
ATOM     16  C   UNL     1       1.137   8.915  20.162  0.00  0.00    +0.000 A 
ATOM     17  C   UNL     1       1.419   9.230  18.834  0.00  0.00    +0.000 A 
ATOM     18  C   UNL     1       2.081   8.320  17.988  0.00  0.00    +0.000 A 
BRANCH  13  19
ATOM     19  O   UNL     1       3.159   6.295  17.541  0.00  0.00    +0.000 OA
BRANCH  19  20
ATOM     20  C   UNL     1       4.498   5.877  17.826  0.00  0.00    +0.000 C 
BRANCH  20  22
ATOM     21  C   UNL     1       6.941   6.415  17.330  0.00  0.00    +0.000 C 
ATOM     22  C   UNL     1       5.504   6.917  17.325  0.00  0.00    +0.000 C 
ENDBRANCH  20  22
ENDBRANCH  19  20
ENDBRANCH  13  19
ENDBRANCH   1  16
BRANCH   5  23
ATOM     23  C   UNL     1       0.364  12.043  19.881  0.00  0.00    +0.000 C 
BRANCH  23  24
ATOM     24  C   UNL     1       1.628  12.818  20.215  0.00  0.00    +0.000 C 
ATOM     25  O   UNL     1       1.908  13.224  21.344  0.00  0.00    +0.000 OA
BRANCH  24  26
ATOM     26  N   UNL     1       2.419  13.011  19.092  0.00  0.00    +0.000 NA
ATOM     27  C   UNL     1       2.633  14.200  18.628  0.00  0.00    +0.000 C 
ATOM     28  N   UNL     1       3.327  14.340  17.473  0.00  0.00    +0.000 N 
ATOM     29  N   UNL     1       2.249  15.378  19.171  0.00  0.00    +0.000 N 
ATOM     30  H   UNL     1       3.783  13.473  17.204  0.00  0.00    +0.000 HD
ATOM     31  H   UNL     1       3.978  15.112  17.482  0.00  0.00    +0.000 HD
ATOM     32  H   UNL     1       1.734  15.228  20.046  0.00  0.00    +0.000 HD
BRANCH  29  33
ATOM     33  C   UNL     1       1.844  16.569  18.437  0.00  0.00    +0.000 C 
BRANCH  33  34
ATOM     34  C   UNL     1       0.432  16.994  18.883  0.00  0.00    +0.000 C 
BRANCH  34  35
ATOM     35  O   UNL     1      -0.577  16.116  18.354  0.00  0.00    +0.000 OA
ATOM     36  H   UNL     1      -0.157  15.481  17.742  0.00  0.00    +0.000 HD
ENDBRANCH  34  35
BRANCH  34  37
ATOM     37  C   UNL     1       0.298  17.011  20.408  0.00  0.00    +0.000 C 
BRANCH  37  38
ATOM     38  O   UNL     1      -0.124  15.724  20.857  0.00  0.00    +0.000 OA
ATOM     39  H   UNL     1      -1.019  15.611  20.476  0.00  0.00    +0.000 HD
ENDBRANCH  37  38
ENDBRANCH  34  37
ENDBRANCH  33  34
ENDBRANCH  29  33
ENDBRANCH  24  26
ENDBRANCH  23  24
ENDBRANCH   5  23
TORSDOF 13
ENDMDL
