MODEL 1
REMARK VINA RESULT:      -8.7      0.000      0.000
REMARK  Name = 
REMARK  5 active torsions:
REMARK  status: ('A' for Active; 'I' for Inactive)
REMARK    1  A    between atoms: C_1  and  N_2
REMARK    2  A    between atoms: N_2  and  C_3
REMARK    3  A    between atoms: N_2  and  S_10
REMARK    4  A    between atoms: C_3  and  C_4
REMARK    5  A    between atoms: S_10  and  C_13
REMARK                            x       y       z     vdW  Elec       q    Type
REMARK                         _______ _______ _______ _____ _____    ______ ____
ROOT
ATOM      1  C   UNL     1       4.716   3.851  18.565  0.00  0.00    +0.000 A 
ATOM      2  C   UNL     1       5.596   4.739  19.198  0.00  0.00    +0.000 A 
ATOM      3  C   UNL     1       6.565   5.481  18.450  0.00  0.00    +0.000 A 
ATOM      4  C   UNL     1       6.617   5.280  17.054  0.00  0.00    +0.000 A 
ATOM      5  N   UNL     1       7.422   5.777  16.019  0.00  0.00    +0.000 N 
ATOM      6  C   UNL     1       7.091   5.178  14.786  0.00  0.00    +0.000 A 
ATOM      7  C   UNL     1       6.028   4.302  15.105  0.00  0.00    +0.000 A 
ATOM      8  C   UNL     1       5.724   4.411  16.458  0.00  0.00    +0.000 A 
ATOM      9  C   UNL     1       4.750   3.739  17.190  0.00  0.00    +0.000 A 
ATOM     10  C   UNL     1       5.306   3.288  14.205  0.00  0.00    +0.000 C 
ATOM     11  C   UNL     1       6.011   3.586  12.967  0.00  0.00    +0.000 C 
ATOM     12  C   UNL     1       6.556   3.666  11.631  0.00  0.00    +0.000 C 
ATOM     13  C   UNL     1       7.579   4.860  11.902  0.00  0.00    +0.000 C 
ATOM     14  C   UNL     1       7.902   5.475  13.424  0.00  0.00    +0.000 C 
ATOM     15  H   UNL     1       8.162   6.449  16.145  0.00  0.00    +0.000 HD
ENDROOT
BRANCH   1  16
ATOM     16  S   UNL     1       3.389   2.933  19.341  0.00  0.00    +0.000 S 
ATOM     17  O   UNL     1       3.827   2.600  20.681  0.00  0.00    +0.000 OA
ATOM     18  O   UNL     1       2.987   1.892  18.417  0.00  0.00    +0.000 OA
BRANCH  16  20
ATOM     19  C   UNL     1       0.854   3.457  19.963  0.00  0.00    +0.000 C 
ATOM     20  N   UNL     1       2.099   4.097  19.483  0.00  0.00    +0.000 NA
BRANCH  20  21
ATOM     21  C   UNL     1       2.496   5.317  20.273  0.00  0.00    +0.000 C 
BRANCH  21  22
ATOM     22  C   UNL     1       2.267   6.693  19.645  0.00  0.00    +0.000 A 
ATOM     23  C   UNL     1       2.619   6.906  18.297  0.00  0.00    +0.000 A 
ATOM     24  C   UNL     1       2.407   8.143  17.676  0.00  0.00    +0.000 A 
ATOM     25  C   UNL     1       1.830   9.190  18.387  0.00  0.00    +0.000 A 
ATOM     26  C   UNL     1       1.439   8.988  19.709  0.00  0.00    +0.000 A 
ATOM     27  C   UNL     1       1.637   7.743  20.327  0.00  0.00    +0.000 A 
ENDBRANCH  21  22
ENDBRANCH  20  21
ENDBRANCH  16  20
ENDBRANCH   1  16
TORSDOF 4
ENDMDL
MODEL 2
REMARK VINA RESULT:      -8.2      2.355      7.826
REMARK  Name = 
REMARK  5 active torsions:
REMARK  status: ('A' for Active; 'I' for Inactive)
REMARK    1  A    between atoms: C_1  and  N_2
REMARK    2  A    between atoms: N_2  and  C_3
REMARK    3  A    between atoms: N_2  and  S_10
REMARK    4  A    between atoms: C_3  and  C_4
REMARK    5  A    between atoms: S_10  and  C_13
REMARK                            x       y       z     vdW  Elec       q    Type
REMARK                         _______ _______ _______ _____ _____    ______ ____
ROOT
ATOM      1  C   UNL     1       2.106   5.872  19.545  0.00  0.00    +0.000 A 
ATOM      2  C   UNL     1       2.606   6.416  18.353  0.00  0.00    +0.000 A 
ATOM      3  C   UNL     1       2.497   7.815  18.074  0.00  0.00    +0.000 A 
ATOM      4  C   UNL     1       1.857   8.632  19.032  0.00  0.00    +0.000 A 
ATOM      5  N   UNL     1       1.536   9.995  19.103  0.00  0.00    +0.000 N 
ATOM      6  C   UNL     1       0.812  10.285  20.278  0.00  0.00    +0.000 A 
ATOM      7  C   UNL     1       0.720   9.039  20.939  0.00  0.00    +0.000 A 
ATOM      8  C   UNL     1       1.392   8.069  20.204  0.00  0.00    +0.000 A 
ATOM      9  C   UNL     1       1.556   6.717  20.487  0.00  0.00    +0.000 A 
ATOM     10  C   UNL     1      -0.044   8.679  22.223  0.00  0.00    +0.000 C 
ATOM     11  C   UNL     1      -0.544  10.010  22.535  0.00  0.00    +0.000 C 
ATOM     12  C   UNL     1      -1.175  11.200  23.061  0.00  0.00    +0.000 C 
ATOM     13  C   UNL     1      -0.614  12.223  21.971  0.00  0.00    +0.000 C 
ATOM     14  C   UNL     1       0.221  11.751  20.601  0.00  0.00    +0.000 C 
ATOM     15  H   UNL     1       1.764  10.672  18.392  0.00  0.00    +0.000 HD
ENDROOT
BRANCH   1  16
ATOM     16  S   UNL     1       2.255   4.173  20.084  0.00  0.00    +0.000 S 
ATOM     17  O   UNL     1       1.243   3.411  19.380  0.00  0.00    +0.000 OA
ATOM     18  O   UNL     1       2.297   4.181  21.532  0.00  0.00    +0.000 OA
BRANCH  16  20
ATOM     19  C   UNL     1       4.330   2.509  20.228  0.00  0.00    +0.000 C 
ATOM     20  N   UNL     1       3.809   3.671  19.474  0.00  0.00    +0.000 NA
BRANCH  20  21
ATOM     21  C   UNL     1       3.816   3.475  17.980  0.00  0.00    +0.000 C 
BRANCH  21  22
ATOM     22  C   UNL     1       4.999   4.025  17.183  0.00  0.00    +0.000 A 
ATOM     23  C   UNL     1       4.906   4.120  15.780  0.00  0.00    +0.000 A 
ATOM     24  C   UNL     1       5.957   4.637  15.013  0.00  0.00    +0.000 A 
ATOM     25  C   UNL     1       7.121   5.079  15.634  0.00  0.00    +0.000 A 
ATOM     26  C   UNL     1       7.218   5.029  17.023  0.00  0.00    +0.000 A 
ATOM     27  C   UNL     1       6.159   4.526  17.793  0.00  0.00    +0.000 A 
ENDBRANCH  21  22
ENDBRANCH  20  21
ENDBRANCH  16  20
ENDBRANCH   1  16
TORSDOF 4
ENDMDL
MODEL 3
REMARK VINA RESULT:      -7.9      2.760      7.713
REMARK  Name = 
REMARK  5 active torsions:
REMARK  status: ('A' for Active; 'I' for Inactive)
REMARK    1  A    between atoms: C_1  and  N_2
REMARK    2  A    between atoms: N_2  and  C_3
REMARK    3  A    between atoms: N_2  and  S_10
REMARK    4  A    between atoms: C_3  and  C_4
REMARK    5  A    between atoms: S_10  and  C_13
REMARK                            x       y       z     vdW  Elec       q    Type
REMARK                         _______ _______ _______ _____ _____    ______ ____
ROOT
ATOM      1  C   UNL     1       2.146   5.785  19.396  0.00  0.00    +0.000 A 
ATOM      2  C   UNL     1       2.606   6.385  18.215  0.00  0.00    +0.000 A 
ATOM      3  C   UNL     1       2.459   7.791  17.993  0.00  0.00    +0.000 A 
ATOM      4  C   UNL     1       1.822   8.555  18.995  0.00  0.00    +0.000 A 
ATOM      5  N   UNL     1       1.471   9.907  19.125  0.00  0.00    +0.000 N 
ATOM      6  C   UNL     1       0.767  10.134  20.325  0.00  0.00    +0.000 A 
ATOM      7  C   UNL     1       0.718   8.862  20.940  0.00  0.00    +0.000 A 
ATOM      8  C   UNL     1       1.396   7.937  20.154  0.00  0.00    +0.000 A 
ATOM      9  C   UNL     1       1.597   6.579  20.381  0.00  0.00    +0.000 A 
ATOM     10  C   UNL     1      -0.009   8.436  22.225  0.00  0.00    +0.000 C 
ATOM     11  C   UNL     1      -0.533   9.741  22.599  0.00  0.00    +0.000 C 
ATOM     12  C   UNL     1      -1.179  10.895  23.183  0.00  0.00    +0.000 C 
ATOM     13  C   UNL     1      -0.666  11.972  22.122  0.00  0.00    +0.000 C 
ATOM     14  C   UNL     1       0.149  11.572  20.717  0.00  0.00    +0.000 C 
ATOM     15  H   UNL     1       1.667  10.616  18.436  0.00  0.00    +0.000 HD
ENDROOT
BRANCH   1  16
ATOM     16  S   UNL     1       2.347   4.070  19.866  0.00  0.00    +0.000 S 
ATOM     17  O   UNL     1       1.662   3.271  18.870  0.00  0.00    +0.000 OA
ATOM     18  O   UNL     1       1.993   3.962  21.267  0.00  0.00    +0.000 OA
BRANCH  16  20
ATOM     19  C   UNL     1       4.415   2.413  20.125  0.00  0.00    +0.000 C 
ATOM     20  N   UNL     1       4.056   3.781  19.688  0.00  0.00    +0.000 NA
BRANCH  20  21
ATOM     21  C   UNL     1       4.569   4.131  18.315  0.00  0.00    +0.000 C 
BRANCH  21  22
ATOM     22  C   UNL     1       5.706   5.148  18.204  0.00  0.00    +0.000 A 
ATOM     23  C   UNL     1       6.674   5.219  19.226  0.00  0.00    +0.000 A 
ATOM     24  C   UNL     1       7.743   6.120  19.155  0.00  0.00    +0.000 A 
ATOM     25  C   UNL     1       7.872   6.962  18.055  0.00  0.00    +0.000 A 
ATOM     26  C   UNL     1       6.949   6.880  17.015  0.00  0.00    +0.000 A 
ATOM     27  C   UNL     1       5.885   5.966  17.079  0.00  0.00    +0.000 A 
ENDBRANCH  21  22
ENDBRANCH  20  21
ENDBRANCH  16  20
ENDBRANCH   1  16
TORSDOF 4
ENDMDL
MODEL 4
REMARK VINA RESULT:      -7.8      2.517      6.956
REMARK  Name = 
REMARK  5 active torsions:
REMARK  status: ('A' for Active; 'I' for Inactive)
REMARK    1  A    between atoms: C_1  and  N_2
REMARK    2  A    between atoms: N_2  and  C_3
REMARK    3  A    between atoms: N_2  and  S_10
REMARK    4  A    between atoms: C_3  and  C_4
REMARK    5  A    between atoms: S_10  and  C_13
REMARK                            x       y       z     vdW  Elec       q    Type
REMARK                         _______ _______ _______ _____ _____    ______ ____
ROOT
ATOM      1  C   UNL     1       4.575   6.013  18.135  0.00  0.00    +0.000 A 
ATOM      2  C   UNL     1       4.461   5.246  19.304  0.00  0.00    +0.000 A 
ATOM      3  C   UNL     1       3.471   5.546  20.292  0.00  0.00    +0.000 A 
ATOM      4  C   UNL     1       2.619   6.649  20.062  0.00  0.00    +0.000 A 
ATOM      5  N   UNL     1       1.585   7.260  20.786  0.00  0.00    +0.000 N 
ATOM      6  C   UNL     1       1.105   8.403  20.116  0.00  0.00    +0.000 A 
ATOM      7  C   UNL     1       1.877   8.458  18.933  0.00  0.00    +0.000 A 
ATOM      8  C   UNL     1       2.746   7.373  18.892  0.00  0.00    +0.000 A 
ATOM      9  C   UNL     1       3.676   7.035  17.914  0.00  0.00    +0.000 A 
ATOM     10  C   UNL     1       1.899   9.537  17.840  0.00  0.00    +0.000 C 
ATOM     11  C   UNL     1       0.853  10.391  18.384  0.00  0.00    +0.000 C 
ATOM     12  C   UNL     1      -0.121  11.410  18.705  0.00  0.00    +0.000 C 
ATOM     13  C   UNL     1      -0.698  10.727  20.028  0.00  0.00    +0.000 C 
ATOM     14  C   UNL     1      -0.023   9.373  20.741  0.00  0.00    +0.000 C 
ATOM     15  H   UNL     1       1.252   6.942  21.682  0.00  0.00    +0.000 HD
ENDROOT
BRANCH   1  16
ATOM     16  S   UNL     1       5.685   5.706  16.766  0.00  0.00    +0.000 S 
ATOM     17  O   UNL     1       6.879   5.093  17.313  0.00  0.00    +0.000 OA
ATOM     18  O   UNL     1       5.772   6.931  15.997  0.00  0.00    +0.000 OA
BRANCH  16  20
ATOM     19  C   UNL     1       5.492   4.339  14.488  0.00  0.00    +0.000 C 
ATOM     20  N   UNL     1       4.861   4.498  15.818  0.00  0.00    +0.000 NA
BRANCH  20  21
ATOM     21  C   UNL     1       4.676   3.198  16.558  0.00  0.00    +0.000 C 
BRANCH  21  22
ATOM     22  C   UNL     1       3.386   2.994  17.352  0.00  0.00    +0.000 A 
ATOM     23  C   UNL     1       3.337   2.004  18.354  0.00  0.00    +0.000 A 
ATOM     24  C   UNL     1       2.183   1.797  19.120  0.00  0.00    +0.000 A 
ATOM     25  C   UNL     1       1.056   2.585  18.906  0.00  0.00    +0.000 A 
ATOM     26  C   UNL     1       1.096   3.595  17.948  0.00  0.00    +0.000 A 
ATOM     27  C   UNL     1       2.258   3.812  17.191  0.00  0.00    +0.000 A 
ENDBRANCH  21  22
ENDBRANCH  20  21
ENDBRANCH  16  20
ENDBRANCH   1  16
TORSDOF 4
ENDMDL
MODEL 5
REMARK VINA RESULT:      -7.7      2.294      6.402
REMARK  Name = 
REMARK  5 active torsions:
REMARK  status: ('A' for Active; 'I' for Inactive)
REMARK    1  A    between atoms: C_1  and  N_2
REMARK    2  A    between atoms: N_2  and  C_3
REMARK    3  A    between atoms: N_2  and  S_10
REMARK    4  A    between atoms: C_3  and  C_4
REMARK    5  A    between atoms: S_10  and  C_13
REMARK                            x       y       z     vdW  Elec       q    Type
REMARK                         _______ _______ _______ _____ _____    ______ ____
ROOT
ATOM      1  C   UNL     1       2.766   4.124  18.968  0.00  0.00    +0.000 A 
ATOM      2  C   UNL     1       2.463   3.825  20.303  0.00  0.00    +0.000 A 
ATOM      3  C   UNL     1       1.958   4.827  21.190  0.00  0.00    +0.000 A 
ATOM      4  C   UNL     1       1.788   6.134  20.684  0.00  0.00    +0.000 A 
ATOM      5  N   UNL     1       1.367   7.354  21.232  0.00  0.00    +0.000 N 
ATOM      6  C   UNL     1       1.455   8.394  20.284  0.00  0.00    +0.000 A 
ATOM      7  C   UNL     1       1.932   7.754  19.117  0.00  0.00    +0.000 A 
ATOM      8  C   UNL     1       2.080   6.392  19.358  0.00  0.00    +0.000 A 
ATOM      9  C   UNL     1       2.516   5.395  18.492  0.00  0.00    +0.000 A 
ATOM     10  C   UNL     1       2.335   8.373  17.770  0.00  0.00    +0.000 C 
ATOM     11  C   UNL     1       2.001   9.755  18.079  0.00  0.00    +0.000 C 
ATOM     12  C   UNL     1       1.777  11.182  18.127  0.00  0.00    +0.000 C 
ATOM     13  C   UNL     1       1.157  11.239  19.597  0.00  0.00    +0.000 C 
ATOM     14  C   UNL     1       1.127   9.932  20.641  0.00  0.00    +0.000 C 
ATOM     15  H   UNL     1       1.071   7.477  22.187  0.00  0.00    +0.000 HD
ENDROOT
BRANCH   1  16
ATOM     16  S   UNL     1       3.304   2.966  17.713  0.00  0.00    +0.000 S 
ATOM     17  O   UNL     1       2.575   3.282  16.501  0.00  0.00    +0.000 OA
ATOM     18  O   UNL     1       3.233   1.640  18.291  0.00  0.00    +0.000 OA
BRANCH  16  20
ATOM     19  C   UNL     1       5.162   4.021  16.124  0.00  0.00    +0.000 C 
ATOM     20  N   UNL     1       4.975   3.381  17.445  0.00  0.00    +0.000 NA
BRANCH  20  21
ATOM     21  C   UNL     1       5.575   4.162  18.586  0.00  0.00    +0.000 C 
BRANCH  21  22
ATOM     22  C   UNL     1       6.314   5.461  18.264  0.00  0.00    +0.000 A 
ATOM     23  C   UNL     1       5.684   6.439  17.469  0.00  0.00    +0.000 A 
ATOM     24  C   UNL     1       6.314   7.652  17.167  0.00  0.00    +0.000 A 
ATOM     25  C   UNL     1       7.587   7.917  17.664  0.00  0.00    +0.000 A 
ATOM     26  C   UNL     1       8.212   6.981  18.485  0.00  0.00    +0.000 A 
ATOM     27  C   UNL     1       7.573   5.771  18.800  0.00  0.00    +0.000 A 
ENDBRANCH  21  22
ENDBRANCH  20  21
ENDBRANCH  16  20
ENDBRANCH   1  16
TORSDOF 4
ENDMDL
MODEL 6
REMARK VINA RESULT:      -7.5      0.859      1.344
REMARK  Name = 
REMARK  5 active torsions:
REMARK  status: ('A' for Active; 'I' for Inactive)
REMARK    1  A    between atoms: C_1  and  N_2
REMARK    2  A    between atoms: N_2  and  C_3
REMARK    3  A    between atoms: N_2  and  S_10
REMARK    4  A    between atoms: C_3  and  C_4
REMARK    5  A    between atoms: S_10  and  C_13
REMARK                            x       y       z     vdW  Elec       q    Type
REMARK                         _______ _______ _______ _____ _____    ______ ____
ROOT
ATOM      1  C   UNL     1       5.116   4.035  18.761  0.00  0.00    +0.000 A 
ATOM      2  C   UNL     1       5.932   5.047  19.285  0.00  0.00    +0.000 A 
ATOM      3  C   UNL     1       6.780   5.828  18.438  0.00  0.00    +0.000 A 
ATOM      4  C   UNL     1       6.781   5.539  17.056  0.00  0.00    +0.000 A 
ATOM      5  N   UNL     1       7.478   6.041  15.947  0.00  0.00    +0.000 N 
ATOM      6  C   UNL     1       7.146   5.330  14.776  0.00  0.00    +0.000 A 
ATOM      7  C   UNL     1       6.196   4.378  15.209  0.00  0.00    +0.000 A 
ATOM      8  C   UNL     1       5.952   4.548  16.568  0.00  0.00    +0.000 A 
ATOM      9  C   UNL     1       5.091   3.835  17.396  0.00  0.00    +0.000 A 
ATOM     10  C   UNL     1       5.536   3.239  14.418  0.00  0.00    +0.000 C 
ATOM     11  C   UNL     1       6.142   3.520  13.125  0.00  0.00    +0.000 C 
ATOM     12  C   UNL     1       6.607   3.562  11.756  0.00  0.00    +0.000 C 
ATOM     13  C   UNL     1       7.516   4.867  11.893  0.00  0.00    +0.000 C 
ATOM     14  C   UNL     1       7.852   5.613  13.352  0.00  0.00    +0.000 C 
ATOM     15  H   UNL     1       8.151   6.790  15.988  0.00  0.00    +0.000 HD
ENDROOT
BRANCH   1  16
ATOM     16  S   UNL     1       3.931   3.047  19.668  0.00  0.00    +0.000 S 
ATOM     17  O   UNL     1       3.705   3.709  20.937  0.00  0.00    +0.000 OA
ATOM     18  O   UNL     1       4.391   1.674  19.624  0.00  0.00    +0.000 OA
BRANCH  16  20
ATOM     19  C   UNL     1       1.907   1.851  18.417  0.00  0.00    +0.000 C 
ATOM     20  N   UNL     1       2.465   3.185  18.735  0.00  0.00    +0.000 NA
BRANCH  20  21
ATOM     21  C   UNL     1       1.465   4.128  19.352  0.00  0.00    +0.000 C 
BRANCH  21  22
ATOM     22  C   UNL     1       1.721   5.631  19.239  0.00  0.00    +0.000 A 
ATOM     23  C   UNL     1       1.538   6.453  20.370  0.00  0.00    +0.000 A 
ATOM     24  C   UNL     1       1.782   7.830  20.317  0.00  0.00    +0.000 A 
ATOM     25  C   UNL     1       2.223   8.414  19.134  0.00  0.00    +0.000 A 
ATOM     26  C   UNL     1       2.448   7.614  18.016  0.00  0.00    +0.000 A 
ATOM     27  C   UNL     1       2.219   6.231  18.073  0.00  0.00    +0.000 A 
ENDBRANCH  21  22
ENDBRANCH  20  21
ENDBRANCH  16  20
ENDBRANCH   1  16
TORSDOF 4
ENDMDL
MODEL 7
REMARK VINA RESULT:      -7.5      2.660      8.250
REMARK  Name = 
REMARK  5 active torsions:
REMARK  status: ('A' for Active; 'I' for Inactive)
REMARK    1  A    between atoms: C_1  and  N_2
REMARK    2  A    between atoms: N_2  and  C_3
REMARK    3  A    between atoms: N_2  and  S_10
REMARK    4  A    between atoms: C_3  and  C_4
REMARK    5  A    between atoms: S_10  and  C_13
REMARK                            x       y       z     vdW  Elec       q    Type
REMARK                         _______ _______ _______ _____ _____    ______ ____
ROOT
ATOM      1  C   UNL     1       2.307   6.897  19.117  0.00  0.00    +0.000 A 
ATOM      2  C   UNL     1       2.578   7.590  17.928  0.00  0.00    +0.000 A 
ATOM      3  C   UNL     1       2.195   8.958  17.765  0.00  0.00    +0.000 A 
ATOM      4  C   UNL     1       1.522   9.589  18.835  0.00  0.00    +0.000 A 
ATOM      5  N   UNL     1       0.974  10.864  19.036  0.00  0.00    +0.000 N 
ATOM      6  C   UNL     1       0.334  10.948  20.289  0.00  0.00    +0.000 A 
ATOM      7  C   UNL     1       0.531   9.671  20.862  0.00  0.00    +0.000 A 
ATOM      8  C   UNL     1       1.286   8.884  19.999  0.00  0.00    +0.000 A 
ATOM      9  C   UNL     1       1.715   7.571  20.165  0.00  0.00    +0.000 A 
ATOM     10  C   UNL     1      -0.022   9.104  22.179  0.00  0.00    +0.000 C 
ATOM     11  C   UNL     1      -0.715  10.301  22.633  0.00  0.00    +0.000 C 
ATOM     12  C   UNL     1      -1.489  11.323  23.301  0.00  0.00    +0.000 C 
ATOM     13  C   UNL     1      -1.232  12.492  22.244  0.00  0.00    +0.000 C 
ATOM     14  C   UNL     1      -0.472  12.260  20.773  0.00  0.00    +0.000 C 
ATOM     15  H   UNL     1       1.004  11.610  18.360  0.00  0.00    +0.000 HD
ENDROOT
BRANCH   1  16
ATOM     16  S   UNL     1       2.809   5.225  19.512  0.00  0.00    +0.000 S 
ATOM     17  O   UNL     1       2.299   4.367  18.462  0.00  0.00    +0.000 OA
ATOM     18  O   UNL     1       2.456   4.984  20.896  0.00  0.00    +0.000 OA
BRANCH  16  20
ATOM     19  C   UNL     1       5.105   3.891  19.316  0.00  0.00    +0.000 C 
ATOM     20  N   UNL     1       4.545   5.261  19.366  0.00  0.00    +0.000 NA
BRANCH  20  21
ATOM     21  C   UNL     1       5.021   6.150  18.246  0.00  0.00    +0.000 C 
BRANCH  21  22
ATOM     22  C   UNL     1       5.609   5.492  16.998  0.00  0.00    +0.000 A 
ATOM     23  C   UNL     1       4.745   4.912  16.047  0.00  0.00    +0.000 A 
ATOM     24  C   UNL     1       5.238   4.318  14.880  0.00  0.00    +0.000 A 
ATOM     25  C   UNL     1       6.608   4.299  14.634  0.00  0.00    +0.000 A 
ATOM     26  C   UNL     1       7.477   4.900  15.542  0.00  0.00    +0.000 A 
ATOM     27  C   UNL     1       6.981   5.510  16.705  0.00  0.00    +0.000 A 
ENDBRANCH  21  22
ENDBRANCH  20  21
ENDBRANCH  16  20
ENDBRANCH   1  16
TORSDOF 4
ENDMDL
MODEL 8
REMARK VINA RESULT:      -7.5      4.686      7.169
REMARK  Name = 
REMARK  5 active torsions:
REMARK  status: ('A' for Active; 'I' for Inactive)
REMARK    1  A    between atoms: C_1  and  N_2
REMARK    2  A    between atoms: N_2  and  C_3
REMARK    3  A    between atoms: N_2  and  S_10
REMARK    4  A    between atoms: C_3  and  C_4
REMARK    5  A    between atoms: S_10  and  C_13
REMARK                            x       y       z     vdW  Elec       q    Type
REMARK                         _______ _______ _______ _____ _____    ______ ____
ROOT
ATOM      1  C   UNL     1       1.335   9.477  19.773  0.00  0.00    +0.000 A 
ATOM      2  C   UNL     1       1.866   9.796  18.516  0.00  0.00    +0.000 A 
ATOM      3  C   UNL     1       2.485   8.798  17.698  0.00  0.00    +0.000 A 
ATOM      4  C   UNL     1       2.558   7.482  18.203  0.00  0.00    +0.000 A 
ATOM      5  N   UNL     1       3.101   6.277  17.732  0.00  0.00    +0.000 N 
ATOM      6  C   UNL     1       2.960   5.250  18.688  0.00  0.00    +0.000 A 
ATOM      7  C   UNL     1       2.286   5.872  19.764  0.00  0.00    +0.000 A 
ATOM      8  C   UNL     1       2.009   7.196  19.438  0.00  0.00    +0.000 A 
ATOM      9  C   UNL     1       1.360   8.164  20.197  0.00  0.00    +0.000 A 
ATOM     10  C   UNL     1       1.938   5.303  21.147  0.00  0.00    +0.000 C 
ATOM     11  C   UNL     1       2.451   3.956  20.941  0.00  0.00    +0.000 C 
ATOM     12  C   UNL     1       2.887   2.580  21.011  0.00  0.00    +0.000 C 
ATOM     13  C   UNL     1       3.432   2.466  19.514  0.00  0.00    +0.000 C 
ATOM     14  C   UNL     1       3.568   3.771  18.477  0.00  0.00    +0.000 C 
ATOM     15  H   UNL     1       3.560   6.169  16.842  0.00  0.00    +0.000 HD
ENDROOT
BRANCH   1  16
ATOM     16  S   UNL     1       0.444  10.581  20.864  0.00  0.00    +0.000 S 
ATOM     17  O   UNL     1       1.310  11.713  21.127  0.00  0.00    +0.000 OA
ATOM     18  O   UNL     1      -0.076   9.783  21.956  0.00  0.00    +0.000 OA
BRANCH  16  20
ATOM     19  C   UNL     1      -0.470  12.274  19.023  0.00  0.00    +0.000 C 
ATOM     20  N   UNL     1      -0.886  11.151  19.893  0.00  0.00    +0.000 NA
BRANCH  20  21
ATOM     21  C   UNL     1      -1.589  10.041  19.153  0.00  0.00    +0.000 C 
BRANCH  21  22
ATOM     22  C   UNL     1      -2.423  10.405  17.924  0.00  0.00    +0.000 A 
ATOM     23  C   UNL     1      -2.019   9.951  16.653  0.00  0.00    +0.000 A 
ATOM     24  C   UNL     1      -2.764  10.242  15.504  0.00  0.00    +0.000 A 
ATOM     25  C   UNL     1      -3.935  10.987  15.604  0.00  0.00    +0.000 A 
ATOM     26  C   UNL     1      -4.373  11.412  16.856  0.00  0.00    +0.000 A 
ATOM     27  C   UNL     1      -3.635  11.107  18.010  0.00  0.00    +0.000 A 
ENDBRANCH  21  22
ENDBRANCH  20  21
ENDBRANCH  16  20
ENDBRANCH   1  16
TORSDOF 4
ENDMDL
MODEL 9
REMARK VINA RESULT:      -7.5      2.552      8.304
REMARK  Name = 
REMARK  5 active torsions:
REMARK  status: ('A' for Active; 'I' for Inactive)
REMARK    1  A    between atoms: C_1  and  N_2
REMARK    2  A    between atoms: N_2  and  C_3
REMARK    3  A    between atoms: N_2  and  S_10
REMARK    4  A    between atoms: C_3  and  C_4
REMARK    5  A    between atoms: S_10  and  C_13
REMARK                            x       y       z     vdW  Elec       q    Type
REMARK                         _______ _______ _______ _____ _____    ______ ____
ROOT
ATOM      1  C   UNL     1       2.491   6.916  18.744  0.00  0.00    +0.000 A 
ATOM      2  C   UNL     1       2.762   7.714  17.624  0.00  0.00    +0.000 A 
ATOM      3  C   UNL     1       2.373   9.090  17.584  0.00  0.00    +0.000 A 
ATOM      4  C   UNL     1       1.694   9.618  18.703  0.00  0.00    +0.000 A 
ATOM      5  N   UNL     1       1.138  10.868  19.016  0.00  0.00    +0.000 N 
ATOM      6  C   UNL     1       0.494  10.836  20.270  0.00  0.00    +0.000 A 
ATOM      7  C   UNL     1       0.696   9.513  20.726  0.00  0.00    +0.000 A 
ATOM      8  C   UNL     1       1.458   8.810  19.798  0.00  0.00    +0.000 A 
ATOM      9  C   UNL     1       1.892   7.490  19.846  0.00  0.00    +0.000 A 
ATOM     10  C   UNL     1       0.141   8.827  21.984  0.00  0.00    +0.000 C 
ATOM     11  C   UNL     1      -0.559   9.975  22.542  0.00  0.00    +0.000 C 
ATOM     12  C   UNL     1      -1.341  10.929  23.296  0.00  0.00    +0.000 C 
ATOM     13  C   UNL     1      -1.086  12.190  22.350  0.00  0.00    +0.000 C 
ATOM     14  C   UNL     1      -0.320  12.095  20.866  0.00  0.00    +0.000 C 
ATOM     15  H   UNL     1       1.168  11.672  18.410  0.00  0.00    +0.000 HD
ENDROOT
BRANCH   1  16
ATOM     16  S   UNL     1       3.000   5.218  18.989  0.00  0.00    +0.000 S 
ATOM     17  O   UNL     1       2.167   4.395  18.135  0.00  0.00    +0.000 OA
ATOM     18  O   UNL     1       3.048   4.983  20.418  0.00  0.00    +0.000 OA
BRANCH  16  20
ATOM     19  C   UNL     1       5.625   5.290  19.429  0.00  0.00    +0.000 C 
ATOM     20  N   UNL     1       4.620   5.167  18.349  0.00  0.00    +0.000 NA
BRANCH  20  21
ATOM     21  C   UNL     1       4.853   3.989  17.438  0.00  0.00    +0.000 C 
BRANCH  21  22
ATOM     22  C   UNL     1       5.569   4.232  16.109  0.00  0.00    +0.000 A 
ATOM     23  C   UNL     1       6.823   4.876  16.104  0.00  0.00    +0.000 A 
ATOM     24  C   UNL     1       7.523   5.100  14.913  0.00  0.00    +0.000 A 
ATOM     25  C   UNL     1       6.987   4.676  13.700  0.00  0.00    +0.000 A 
ATOM     26  C   UNL     1       5.768   4.002  13.687  0.00  0.00    +0.000 A 
ATOM     27  C   UNL     1       5.073   3.764  14.883  0.00  0.00    +0.000 A 
ENDBRANCH  21  22
ENDBRANCH  20  21
ENDBRANCH  16  20
ENDBRANCH   1  16
TORSDOF 4
ENDMDL
