MODEL 1
REMARK VINA RESULT:      -8.0      0.000      0.000
REMARK  Name = 
REMARK  7 active torsions:
REMARK  status: ('A' for Active; 'I' for Inactive)
REMARK    1  A    between atoms: C_1  and  O_2
REMARK    2  A    between atoms: O_2  and  C_3
REMARK    3  A    between atoms: C_5  and  C_6
REMARK    4  A    between atoms: C_18  and  O_19
REMARK    5  A    between atoms: O_19  and  C_20
REMARK    6  A    between atoms: C_21  and  O_22
REMARK    7  A    between atoms: O_22  and  C_23
REMARK                            x       y       z     vdW  Elec       q    Type
REMARK                         _______ _______ _______ _____ _____    ______ ____
ROOT
ATOM      1  C   UNL     1       6.342   3.930  14.422  0.00  0.00    +0.000 A 
ATOM      2  C   UNL     1       5.449   3.520  15.430  0.00  0.00    +0.000 A 
ATOM      3  C   UNL     1       5.267   4.261  16.596  0.00  0.00    +0.000 A 
ATOM      4  C   UNL     1       6.133   5.333  16.813  0.00  0.00    +0.000 A 
ATOM      5  C   UNL     1       7.129   5.685  15.885  0.00  0.00    +0.000 A 
ATOM      6  C   UNL     1       7.238   4.991  14.661  0.00  0.00    +0.000 A 
ENDROOT
BRANCH   3   7
ATOM      7  C   UNL     1       4.101   4.015  17.485  0.00  0.00    +0.000 A 
ATOM      8  C   UNL     1       2.847   3.991  17.029  0.00  0.00    +0.000 A 
ATOM      9  N   UNL     1       1.726   3.675  17.742  0.00  0.00    +0.000 NA
ATOM     10  C   UNL     1       1.892   3.360  18.992  0.00  0.00    +0.000 A 
ATOM     11  C   UNL     1       0.701   2.973  19.798  0.00  0.00    +0.000 A 
ATOM     12  C   UNL     1       0.843   2.650  21.090  0.00  0.00    +0.000 A 
ATOM     13  C   UNL     1       2.143   2.677  21.705  0.00  0.00    +0.000 A 
ATOM     14  C   UNL     1       3.216   3.017  20.985  0.00  0.00    +0.000 A 
ATOM     15  N   UNL     1       3.117   3.354  19.637  0.00  0.00    +0.000 N 
ATOM     16  C   UNL     1       4.276   3.675  18.940  0.00  0.00    +0.000 A 
ATOM     17  O   UNL     1       5.397   3.675  19.456  0.00  0.00    +0.000 OA
ENDBRANCH   3   7
BRANCH   1  19
ATOM     18  C   UNL     1       5.124   3.517  12.436  0.00  0.00    +0.000 C 
ATOM     19  O   UNL     1       6.317   3.296  13.202  0.00  0.00    +0.000 OA
ENDBRANCH   1  19
BRANCH   5  20
ATOM     20  O   UNL     1       7.857   6.762  16.332  0.00  0.00    +0.000 OA
ATOM     21  C   UNL     1       7.502   7.394  17.551  0.00  0.00    +0.000 C 
ENDBRANCH   5  20
BRANCH   6  22
ATOM     22  O   UNL     1       8.212   5.439  13.817  0.00  0.00    +0.000 OA
ATOM     23  C   UNL     1       7.945   5.769  12.468  0.00  0.00    +0.000 C 
ENDBRANCH   6  22
TORSDOF 4
ENDMDL
MODEL 2
REMARK VINA RESULT:      -8.0      0.413      2.727
REMARK  Name = 
REMARK  7 active torsions:
REMARK  status: ('A' for Active; 'I' for Inactive)
REMARK    1  A    between atoms: C_1  and  O_2
REMARK    2  A    between atoms: O_2  and  C_3
REMARK    3  A    between atoms: C_5  and  C_6
REMARK    4  A    between atoms: C_18  and  O_19
REMARK    5  A    between atoms: O_19  and  C_20
REMARK    6  A    between atoms: C_21  and  O_22
REMARK    7  A    between atoms: O_22  and  C_23
REMARK                            x       y       z     vdW  Elec       q    Type
REMARK                         _______ _______ _______ _____ _____    ______ ____
ROOT
ATOM      1  C   UNL     1       6.990   5.971  16.038  0.00  0.00    +0.000 A 
ATOM      2  C   UNL     1       5.811   5.833  16.796  0.00  0.00    +0.000 A 
ATOM      3  C   UNL     1       4.916   4.787  16.580  0.00  0.00    +0.000 A 
ATOM      4  C   UNL     1       5.137   3.978  15.465  0.00  0.00    +0.000 A 
ATOM      5  C   UNL     1       6.233   4.176  14.608  0.00  0.00    +0.000 A 
ATOM      6  C   UNL     1       7.189   5.173  14.893  0.00  0.00    +0.000 A 
ENDROOT
BRANCH   3   7
ATOM      7  C   UNL     1       3.870   4.456  17.584  0.00  0.00    +0.000 A 
ATOM      8  C   UNL     1       2.569   4.606  17.334  0.00  0.00    +0.000 A 
ATOM      9  N   UNL     1       1.534   4.237  18.148  0.00  0.00    +0.000 NA
ATOM     10  C   UNL     1       1.845   3.677  19.279  0.00  0.00    +0.000 A 
ATOM     11  C   UNL     1       0.750   3.225  20.180  0.00  0.00    +0.000 A 
ATOM     12  C   UNL     1       1.043   2.651  21.355  0.00  0.00    +0.000 A 
ATOM     13  C   UNL     1       2.413   2.471  21.752  0.00  0.00    +0.000 A 
ATOM     14  C   UNL     1       3.400   2.868  20.943  0.00  0.00    +0.000 A 
ATOM     15  N   UNL     1       3.144   3.463  19.710  0.00  0.00    +0.000 N 
ATOM     16  C   UNL     1       4.217   3.832  18.908  0.00  0.00    +0.000 A 
ATOM     17  O   UNL     1       5.395   3.655  19.232  0.00  0.00    +0.000 OA
ENDBRANCH   3   7
BRANCH   1  19
ATOM     18  C   UNL     1       7.625   7.595  17.635  0.00  0.00    +0.000 C 
ATOM     19  O   UNL     1       7.945   6.875  16.437  0.00  0.00    +0.000 OA
ENDBRANCH   1  19
BRANCH   5  20
ATOM     20  O   UNL     1       6.222   3.263  13.580  0.00  0.00    +0.000 OA
ATOM     21  C   UNL     1       5.285   3.403  12.524  0.00  0.00    +0.000 C 
ENDBRANCH   5  20
BRANCH   6  22
ATOM     22  O   UNL     1       8.233   5.254  14.018  0.00  0.00    +0.000 OA
ATOM     23  C   UNL     1       8.071   5.732  12.696  0.00  0.00    +0.000 C 
ENDBRANCH   6  22
TORSDOF 4
ENDMDL
MODEL 3
REMARK VINA RESULT:      -7.8      4.523      5.646
REMARK  Name = 
REMARK  7 active torsions:
REMARK  status: ('A' for Active; 'I' for Inactive)
REMARK    1  A    between atoms: C_1  and  O_2
REMARK    2  A    between atoms: O_2  and  C_3
REMARK    3  A    between atoms: C_5  and  C_6
REMARK    4  A    between atoms: C_18  and  O_19
REMARK    5  A    between atoms: O_19  and  C_20
REMARK    6  A    between atoms: C_21  and  O_22
REMARK    7  A    between atoms: O_22  and  C_23
REMARK                            x       y       z     vdW  Elec       q    Type
REMARK                         _______ _______ _______ _____ _____    ______ ____
ROOT
ATOM      1  C   UNL     1       5.487   6.325  16.919  0.00  0.00    +0.000 A 
ATOM      2  C   UNL     1       4.466   7.131  17.459  0.00  0.00    +0.000 A 
ATOM      3  C   UNL     1       3.306   6.583  18.002  0.00  0.00    +0.000 A 
ATOM      4  C   UNL     1       3.107   5.212  17.831  0.00  0.00    +0.000 A 
ATOM      5  C   UNL     1       4.048   4.400  17.173  0.00  0.00    +0.000 A 
ATOM      6  C   UNL     1       5.266   4.948  16.718  0.00  0.00    +0.000 A 
ENDROOT
BRANCH   3   7
ATOM      7  C   UNL     1       2.404   7.396  18.860  0.00  0.00    +0.000 A 
ATOM      8  C   UNL     1       2.093   7.039  20.107  0.00  0.00    +0.000 A 
ATOM      9  N   UNL     1       1.360   7.765  21.004  0.00  0.00    +0.000 NA
ATOM     10  C   UNL     1       0.924   8.924  20.608  0.00  0.00    +0.000 A 
ATOM     11  C   UNL     1       0.153   9.764  21.565  0.00  0.00    +0.000 A 
ATOM     12  C   UNL     1      -0.314  10.959  21.180  0.00  0.00    +0.000 A 
ATOM     13  C   UNL     1      -0.075  11.435  19.844  0.00  0.00    +0.000 A 
ATOM     14  C   UNL     1       0.623  10.688  18.984  0.00  0.00    +0.000 A 
ATOM     15  N   UNL     1       1.133   9.442  19.341  0.00  0.00    +0.000 N 
ATOM     16  C   UNL     1       1.870   8.726  18.405  0.00  0.00    +0.000 A 
ATOM     17  O   UNL     1       2.101   9.142  17.266  0.00  0.00    +0.000 OA
ENDBRANCH   3   7
BRANCH   1  19
ATOM     18  C   UNL     1       7.553   7.136  17.736  0.00  0.00    +0.000 C 
ATOM     19  O   UNL     1       6.700   6.892  16.609  0.00  0.00    +0.000 OA
ENDBRANCH   1  19
BRANCH   5  20
ATOM     20  O   UNL     1       3.617   3.096  17.122  0.00  0.00    +0.000 OA
ATOM     21  C   UNL     1       3.381   2.384  18.326  0.00  0.00    +0.000 C 
ENDBRANCH   5  20
BRANCH   6  22
ATOM     22  O   UNL     1       6.122   4.064  16.129  0.00  0.00    +0.000 OA
ATOM     23  C   UNL     1       6.198   3.913  14.724  0.00  0.00    +0.000 C 
ENDBRANCH   6  22
TORSDOF 4
ENDMDL
MODEL 4
REMARK VINA RESULT:      -7.6      4.755      6.554
REMARK  Name = 
REMARK  7 active torsions:
REMARK  status: ('A' for Active; 'I' for Inactive)
REMARK    1  A    between atoms: C_1  and  O_2
REMARK    2  A    between atoms: O_2  and  C_3
REMARK    3  A    between atoms: C_5  and  C_6
REMARK    4  A    between atoms: C_18  and  O_19
REMARK    5  A    between atoms: O_19  and  C_20
REMARK    6  A    between atoms: C_21  and  O_22
REMARK    7  A    between atoms: O_22  and  C_23
REMARK                            x       y       z     vdW  Elec       q    Type
REMARK                         _______ _______ _______ _____ _____    ______ ____
ROOT
ATOM      1  C   UNL     1       4.700   4.693  18.828  0.00  0.00    +0.000 A 
ATOM      2  C   UNL     1       4.235   6.015  18.687  0.00  0.00    +0.000 A 
ATOM      3  C   UNL     1       2.897   6.299  18.421  0.00  0.00    +0.000 A 
ATOM      4  C   UNL     1       2.062   5.221  18.120  0.00  0.00    +0.000 A 
ATOM      5  C   UNL     1       2.531   3.896  18.119  0.00  0.00    +0.000 A 
ATOM      6  C   UNL     1       3.863   3.611  18.489  0.00  0.00    +0.000 A 
ENDROOT
BRANCH   3   7
ATOM      7  C   UNL     1       2.354   7.670  18.607  0.00  0.00    +0.000 A 
ATOM      8  C   UNL     1       2.374   8.584  17.636  0.00  0.00    +0.000 A 
ATOM      9  N   UNL     1       1.813   9.830  17.676  0.00  0.00    +0.000 NA
ATOM     10  C   UNL     1       1.190  10.161  18.767  0.00  0.00    +0.000 A 
ATOM     11  C   UNL     1       0.532  11.494  18.841  0.00  0.00    +0.000 A 
ATOM     12  C   UNL     1      -0.110  11.863  19.957  0.00  0.00    +0.000 A 
ATOM     13  C   UNL     1      -0.167  10.976  21.088  0.00  0.00    +0.000 A 
ATOM     14  C   UNL     1       0.416   9.775  21.024  0.00  0.00    +0.000 A 
ATOM     15  N   UNL     1       1.090   9.346  19.883  0.00  0.00    +0.000 N 
ATOM     16  C   UNL     1       1.654   8.076  19.875  0.00  0.00    +0.000 A 
ATOM     17  O   UNL     1       1.586   7.301  20.834  0.00  0.00    +0.000 OA
ENDBRANCH   3   7
BRANCH   1  19
ATOM     18  C   UNL     1       6.898   5.534  19.058  0.00  0.00    +0.000 C 
ATOM     19  O   UNL     1       5.967   4.473  19.313  0.00  0.00    +0.000 OA
ENDBRANCH   1  19
BRANCH   5  20
ATOM     20  O   UNL     1       1.526   3.021  17.779  0.00  0.00    +0.000 OA
ATOM     21  C   UNL     1       0.728   2.438  18.796  0.00  0.00    +0.000 C 
ENDBRANCH   5  20
BRANCH   6  22
ATOM     22  O   UNL     1       4.202   2.289  18.491  0.00  0.00    +0.000 OA
ATOM     23  C   UNL     1       4.346   1.552  19.690  0.00  0.00    +0.000 C 
ENDBRANCH   6  22
TORSDOF 4
ENDMDL
MODEL 5
REMARK VINA RESULT:      -7.5      4.667      5.414
REMARK  Name = 
REMARK  7 active torsions:
REMARK  status: ('A' for Active; 'I' for Inactive)
REMARK    1  A    between atoms: C_1  and  O_2
REMARK    2  A    between atoms: O_2  and  C_3
REMARK    3  A    between atoms: C_5  and  C_6
REMARK    4  A    between atoms: C_18  and  O_19
REMARK    5  A    between atoms: O_19  and  C_20
REMARK    6  A    between atoms: C_21  and  O_22
REMARK    7  A    between atoms: O_22  and  C_23
REMARK                            x       y       z     vdW  Elec       q    Type
REMARK                         _______ _______ _______ _____ _____    ______ ____
ROOT
ATOM      1  C   UNL     1       3.655   4.396  17.281  0.00  0.00    +0.000 A 
ATOM      2  C   UNL     1       2.948   5.204  18.191  0.00  0.00    +0.000 A 
ATOM      3  C   UNL     1       3.276   6.543  18.395  0.00  0.00    +0.000 A 
ATOM      4  C   UNL     1       4.447   7.011  17.798  0.00  0.00    +0.000 A 
ATOM      5  C   UNL     1       5.251   6.187  16.991  0.00  0.00    +0.000 A 
ATOM      6  C   UNL     1       4.855   4.863  16.708  0.00  0.00    +0.000 A 
ENDROOT
BRANCH   3   7
ATOM      7  C   UNL     1       2.336   7.465  19.086  0.00  0.00    +0.000 A 
ATOM      8  C   UNL     1       1.956   7.282  20.351  0.00  0.00    +0.000 A 
ATOM      9  N   UNL     1       1.182   8.123  21.100  0.00  0.00    +0.000 NA
ATOM     10  C   UNL     1       0.777   9.217  20.528  0.00  0.00    +0.000 A 
ATOM     11  C   UNL     1      -0.038  10.180  21.319  0.00  0.00    +0.000 A 
ATOM     12  C   UNL     1      -0.475  11.312  20.750  0.00  0.00    +0.000 A 
ATOM     13  C   UNL     1      -0.162  11.602  19.377  0.00  0.00    +0.000 A 
ATOM     14  C   UNL     1       0.575  10.744  18.665  0.00  0.00    +0.000 A 
ATOM     15  N   UNL     1       1.057   9.558  19.215  0.00  0.00    +0.000 N 
ATOM     16  C   UNL     1       1.837   8.722  18.426  0.00  0.00    +0.000 A 
ATOM     17  O   UNL     1       2.130   8.978  17.255  0.00  0.00    +0.000 OA
ENDBRANCH   3   7
BRANCH   1  19
ATOM     18  C   UNL     1       3.317   2.154  17.956  0.00  0.00    +0.000 C 
ATOM     19  O   UNL     1       3.153   3.160  16.947  0.00  0.00    +0.000 OA
ENDBRANCH   1  19
BRANCH   5  20
ATOM     20  O   UNL     1       6.351   6.873  16.533  0.00  0.00    +0.000 OA
ATOM     21  C   UNL     1       7.397   7.206  17.431  0.00  0.00    +0.000 C 
ENDBRANCH   5  20
BRANCH   6  22
ATOM     22  O   UNL     1       5.688   4.164  15.884  0.00  0.00    +0.000 OA
ATOM     23  C   UNL     1       5.601   4.255  14.475  0.00  0.00    +0.000 C 
ENDBRANCH   6  22
TORSDOF 4
ENDMDL
MODEL 6
REMARK VINA RESULT:      -7.4      4.443      5.040
REMARK  Name = 
REMARK  7 active torsions:
REMARK  status: ('A' for Active; 'I' for Inactive)
REMARK    1  A    between atoms: C_1  and  O_2
REMARK    2  A    between atoms: O_2  and  C_3
REMARK    3  A    between atoms: C_5  and  C_6
REMARK    4  A    between atoms: C_18  and  O_19
REMARK    5  A    between atoms: O_19  and  C_20
REMARK    6  A    between atoms: C_21  and  O_22
REMARK    7  A    between atoms: O_22  and  C_23
REMARK                            x       y       z     vdW  Elec       q    Type
REMARK                         _______ _______ _______ _____ _____    ______ ____
ROOT
ATOM      1  C   UNL     1       3.502   4.392  17.118  0.00  0.00    +0.000 A 
ATOM      2  C   UNL     1       2.850   5.376  17.885  0.00  0.00    +0.000 A 
ATOM      3  C   UNL     1       3.356   6.669  18.006  0.00  0.00    +0.000 A 
ATOM      4  C   UNL     1       4.629   6.908  17.486  0.00  0.00    +0.000 A 
ATOM      5  C   UNL     1       5.365   5.904  16.832  0.00  0.00    +0.000 A 
ATOM      6  C   UNL     1       4.801   4.628  16.625  0.00  0.00    +0.000 A 
ENDROOT
BRANCH   3   7
ATOM      7  C   UNL     1       2.510   7.777  18.523  0.00  0.00    +0.000 A 
ATOM      8  C   UNL     1       2.142   8.809  17.762  0.00  0.00    +0.000 A 
ATOM      9  N   UNL     1       1.288   9.817  18.114  0.00  0.00    +0.000 NA
ATOM     10  C   UNL     1       0.777   9.768  19.307  0.00  0.00    +0.000 A 
ATOM     11  C   UNL     1      -0.186  10.826  19.719  0.00  0.00    +0.000 A 
ATOM     12  C   UNL     1      -0.721  10.803  20.946  0.00  0.00    +0.000 A 
ATOM     13  C   UNL     1      -0.369   9.760  21.872  0.00  0.00    +0.000 A 
ATOM     14  C   UNL     1       0.490   8.804  21.505  0.00  0.00    +0.000 A 
ATOM     15  N   UNL     1       1.067   8.783  20.237  0.00  0.00    +0.000 N 
ATOM     16  C   UNL     1       1.934   7.747  19.912  0.00  0.00    +0.000 A 
ATOM     17  O   UNL     1       2.219   6.835  20.694  0.00  0.00    +0.000 OA
ENDBRANCH   3   7
BRANCH   1  19
ATOM     18  C   UNL     1       2.735   2.318  17.958  0.00  0.00    +0.000 C 
ATOM     19  O   UNL     1       2.851   3.213  16.843  0.00  0.00    +0.000 OA
ENDBRANCH   1  19
BRANCH   5  20
ATOM     20  O   UNL     1       6.589   6.382  16.424  0.00  0.00    +0.000 OA
ATOM     21  C   UNL     1       7.452   6.997  17.366  0.00  0.00    +0.000 C 
ENDBRANCH   5  20
BRANCH   6  22
ATOM     22  O   UNL     1       5.586   3.742  15.946  0.00  0.00    +0.000 OA
ATOM     23  C   UNL     1       5.845   3.875  14.561  0.00  0.00    +0.000 C 
ENDBRANCH   6  22
TORSDOF 4
ENDMDL
MODEL 7
REMARK VINA RESULT:      -7.4      4.510      5.523
REMARK  Name = 
REMARK  7 active torsions:
REMARK  status: ('A' for Active; 'I' for Inactive)
REMARK    1  A    between atoms: C_1  and  O_2
REMARK    2  A    between atoms: O_2  and  C_3
REMARK    3  A    between atoms: C_5  and  C_6
REMARK    4  A    between atoms: C_18  and  O_19
REMARK    5  A    between atoms: O_19  and  C_20
REMARK    6  A    between atoms: C_21  and  O_22
REMARK    7  A    between atoms: O_22  and  C_23
REMARK                            x       y       z     vdW  Elec       q    Type
REMARK                         _______ _______ _______ _____ _____    ______ ____
ROOT
ATOM      1  C   UNL     1       5.289   6.273  16.804  0.00  0.00    +0.000 A 
ATOM      2  C   UNL     1       4.380   7.274  17.199  0.00  0.00    +0.000 A 
ATOM      3  C   UNL     1       3.158   6.965  17.792  0.00  0.00    +0.000 A 
ATOM      4  C   UNL     1       2.784   5.621  17.821  0.00  0.00    +0.000 A 
ATOM      5  C   UNL     1       3.613   4.607  17.309  0.00  0.00    +0.000 A 
ATOM      6  C   UNL     1       4.892   4.921  16.803  0.00  0.00    +0.000 A 
ENDROOT
BRANCH   3   7
ATOM      7  C   UNL     1       2.368   8.005  18.503  0.00  0.00    +0.000 A 
ATOM      8  C   UNL     1       1.950   9.120  17.901  0.00  0.00    +0.000 A 
ATOM      9  N   UNL     1       1.138  10.080  18.436  0.00  0.00    +0.000 NA
ATOM     10  C   UNL     1       0.723   9.890  19.653  0.00  0.00    +0.000 A 
ATOM     11  C   UNL     1      -0.193  10.893  20.262  0.00  0.00    +0.000 A 
ATOM     12  C   UNL     1      -0.630  10.725  21.517  0.00  0.00    +0.000 A 
ATOM     13  C   UNL     1      -0.216   9.579  22.282  0.00  0.00    +0.000 A 
ATOM     14  C   UNL     1       0.601   8.672  21.737  0.00  0.00    +0.000 A 
ATOM     15  N   UNL     1       1.075   8.802  20.433  0.00  0.00    +0.000 N 
ATOM     16  C   UNL     1       1.903   7.811  19.920  0.00  0.00    +0.000 A 
ATOM     17  O   UNL     1       2.239   6.812  20.563  0.00  0.00    +0.000 OA
ENDBRANCH   3   7
BRANCH   1  19
ATOM     18  C   UNL     1       7.291   7.363  17.436  0.00  0.00    +0.000 C 
ATOM     19  O   UNL     1       6.566   6.629  16.440  0.00  0.00    +0.000 OA
ENDBRANCH   1  19
BRANCH   5  20
ATOM     20  O   UNL     1       3.017   3.375  17.441  0.00  0.00    +0.000 OA
ATOM     21  C   UNL     1       1.779   3.261  18.124  0.00  0.00    +0.000 C 
ENDBRANCH   5  20
BRANCH   6  22
ATOM     22  O   UNL     1       5.628   3.858  16.369  0.00  0.00    +0.000 OA
ATOM     23  C   UNL     1       6.066   3.744  15.028  0.00  0.00    +0.000 C 
ENDBRANCH   6  22
TORSDOF 4
ENDMDL
MODEL 8
REMARK VINA RESULT:      -7.3      4.911      6.280
REMARK  Name = 
REMARK  7 active torsions:
REMARK  status: ('A' for Active; 'I' for Inactive)
REMARK    1  A    between atoms: C_1  and  O_2
REMARK    2  A    between atoms: O_2  and  C_3
REMARK    3  A    between atoms: C_5  and  C_6
REMARK    4  A    between atoms: C_18  and  O_19
REMARK    5  A    between atoms: O_19  and  C_20
REMARK    6  A    between atoms: C_21  and  O_22
REMARK    7  A    between atoms: O_22  and  C_23
REMARK                            x       y       z     vdW  Elec       q    Type
REMARK                         _______ _______ _______ _____ _____    ______ ____
ROOT
ATOM      1  C   UNL     1       2.119   4.005  18.077  0.00  0.00    +0.000 A 
ATOM      2  C   UNL     1       1.755   5.298  18.500  0.00  0.00    +0.000 A 
ATOM      3  C   UNL     1       2.693   6.321  18.626  0.00  0.00    +0.000 A 
ATOM      4  C   UNL     1       4.038   5.975  18.492  0.00  0.00    +0.000 A 
ATOM      5  C   UNL     1       4.442   4.660  18.204  0.00  0.00    +0.000 A 
ATOM      6  C   UNL     1       3.480   3.653  17.977  0.00  0.00    +0.000 A 
ENDROOT
BRANCH   3   7
ATOM      7  C   UNL     1       2.265   7.741  18.740  0.00  0.00    +0.000 A 
ATOM      8  C   UNL     1       2.368   8.601  17.725  0.00  0.00    +0.000 A 
ATOM      9  N   UNL     1       1.912   9.889  17.699  0.00  0.00    +0.000 NA
ATOM     10  C   UNL     1       1.313  10.325  18.767  0.00  0.00    +0.000 A 
ATOM     11  C   UNL     1       0.768  11.710  18.768  0.00  0.00    +0.000 A 
ATOM     12  C   UNL     1       0.153  12.186  19.859  0.00  0.00    +0.000 A 
ATOM     13  C   UNL     1       0.017  11.364  21.031  0.00  0.00    +0.000 A 
ATOM     14  C   UNL     1       0.497  10.117  21.032  0.00  0.00    +0.000 A 
ATOM     15  N   UNL     1       1.139   9.577  19.920  0.00  0.00    +0.000 N 
ATOM     16  C   UNL     1       1.595   8.266  19.979  0.00  0.00    +0.000 A 
ATOM     17  O   UNL     1       1.457   7.548  20.974  0.00  0.00    +0.000 OA
ENDBRANCH   3   7
BRANCH   1  19
ATOM     18  C   UNL     1       0.568   2.402  18.865  0.00  0.00    +0.000 C 
ATOM     19  O   UNL     1       1.136   3.102  17.749  0.00  0.00    +0.000 OA
ENDBRANCH   1  19
BRANCH   5  20
ATOM     20  O   UNL     1       5.813   4.573  18.136  0.00  0.00    +0.000 OA
ATOM     21  C   UNL     1       6.612   5.379  18.986  0.00  0.00    +0.000 C 
ENDBRANCH   5  20
BRANCH   6  22
ATOM     22  O   UNL     1       3.981   2.422  17.667  0.00  0.00    +0.000 OA
ATOM     23  C   UNL     1       3.960   1.348  18.588  0.00  0.00    +0.000 C 
ENDBRANCH   6  22
TORSDOF 4
ENDMDL
MODEL 9
REMARK VINA RESULT:      -7.3      4.815      6.585
REMARK  Name = 
REMARK  7 active torsions:
REMARK  status: ('A' for Active; 'I' for Inactive)
REMARK    1  A    between atoms: C_1  and  O_2
REMARK    2  A    between atoms: O_2  and  C_3
REMARK    3  A    between atoms: C_5  and  C_6
REMARK    4  A    between atoms: C_18  and  O_19
REMARK    5  A    between atoms: O_19  and  C_20
REMARK    6  A    between atoms: C_21  and  O_22
REMARK    7  A    between atoms: O_22  and  C_23
REMARK                            x       y       z     vdW  Elec       q    Type
REMARK                         _______ _______ _______ _____ _____    ______ ____
ROOT
ATOM      1  C   UNL     1       2.229   3.712  19.910  0.00  0.00    +0.000 A 
ATOM      2  C   UNL     1       1.855   5.066  19.998  0.00  0.00    +0.000 A 
ATOM      3  C   UNL     1       2.716   6.093  19.615  0.00  0.00    +0.000 A 
ATOM      4  C   UNL     1       4.031   5.743  19.308  0.00  0.00    +0.000 A 
ATOM      5  C   UNL     1       4.473   4.408  19.343  0.00  0.00    +0.000 A 
ATOM      6  C   UNL     1       3.567   3.366  19.633  0.00  0.00    +0.000 A 
ENDROOT
BRANCH   3   7
ATOM      7  C   UNL     1       2.209   7.473  19.391  0.00  0.00    +0.000 A 
ATOM      8  C   UNL     1       2.279   8.076  18.203  0.00  0.00    +0.000 A 
ATOM      9  N   UNL     1       1.754   9.294  17.875  0.00  0.00    +0.000 NA
ATOM     10  C   UNL     1       1.116   9.932  18.809  0.00  0.00    +0.000 A 
ATOM     11  C   UNL     1       0.496  11.246  18.485  0.00  0.00    +0.000 A 
ATOM     12  C   UNL     1      -0.161  11.929  19.432  0.00  0.00    +0.000 A 
ATOM     13  C   UNL     1      -0.269  11.398  20.764  0.00  0.00    +0.000 A 
ATOM     14  C   UNL     1       0.279  10.215  21.059  0.00  0.00    +0.000 A 
ATOM     15  N   UNL     1       0.966   9.468  20.105  0.00  0.00    +0.000 N 
ATOM     16  C   UNL     1       1.492   8.235  20.472  0.00  0.00    +0.000 A 
ATOM     17  O   UNL     1       1.379   7.763  21.607  0.00  0.00    +0.000 OA
ENDBRANCH   3   7
BRANCH   1  19
ATOM     18  C   UNL     1       0.567   2.378  18.883  0.00  0.00    +0.000 C 
ATOM     19  O   UNL     1       1.274   2.737  20.079  0.00  0.00    +0.000 OA
ENDBRANCH   1  19
BRANCH   5  20
ATOM     20  O   UNL     1       5.806   4.325  19.016  0.00  0.00    +0.000 OA
ATOM     21  C   UNL     1       6.666   5.421  19.283  0.00  0.00    +0.000 C 
ENDBRANCH   5  20
BRANCH   6  22
ATOM     22  O   UNL     1       4.092   2.107  19.603  0.00  0.00    +0.000 OA
ATOM     23  C   UNL     1       3.932   1.252  18.487  0.00  0.00    +0.000 C 
ENDBRANCH   6  22
TORSDOF 4
ENDMDL
