MODEL 1
REMARK VINA RESULT:      -8.1      0.000      0.000
REMARK  Name = 
REMARK  11 active torsions:
REMARK  status: ('A' for Active; 'I' for Inactive)
REMARK    1  A    between atoms: C_2  and  O_3
REMARK    2  A    between atoms: C_2  and  C_4
REMARK    3  A    between atoms: C_4  and  C_5
REMARK    4  A    between atoms: C_5  and  C_6
REMARK    5  A    between atoms: C_5  and  N_11
REMARK    6  A    between atoms: N_11  and  C_12
REMARK    7  A    between atoms: N_11  and  C_21
REMARK    8  A    between atoms: C_12  and  C_13
REMARK    9  A    between atoms: C_13  and  C_14
REMARK   10  A    between atoms: C_14  and  C_15
REMARK   11  A    between atoms: C_21  and  C_22
REMARK                            x       y       z     vdW  Elec       q    Type
REMARK                         _______ _______ _______ _____ _____    ______ ____
ROOT
ATOM      1  N   UNL     1       6.256   6.619  17.325  0.00  0.00    +0.000 NA
ENDROOT
BRANCH   1   2
ATOM      2  C   UNL     1       7.328   5.615  17.027  0.00  0.00    +0.000 C 
BRANCH   2   3
ATOM      3  C   UNL     1       7.063   4.922  15.716  0.00  0.00    +0.000 A 
ATOM      4  C   UNL     1       6.295   3.806  15.486  0.00  0.00    +0.000 A 
ATOM      5  N   UNL     1       6.280   3.666  14.132  0.00  0.00    +0.000 N 
ATOM      6  C   UNL     1       6.936   4.726  13.597  0.00  0.00    +0.000 A 
ATOM      7  N   UNL     1       7.470   5.485  14.514  0.00  0.00    +0.000 NA
ATOM      8  H   UNL     1       5.795   3.013  13.524  0.00  0.00    +0.000 HD
ENDBRANCH   2   3
BRANCH   2   9
ATOM      9  C   UNL     1       7.508   4.578  18.128  0.00  0.00    +0.000 C 
BRANCH   9  11
ATOM     10  O   UNL     1       5.923   4.701  19.907  0.00  0.00    +0.000 OA
ATOM     11  C   UNL     1       7.021   5.025  19.478  0.00  0.00    +0.000 C 
BRANCH  11  12
ATOM     12  O   UNL     1       7.878   5.739  20.242  0.00  0.00    +0.000 OA
ATOM     13  H   UNL     1       8.468   6.288  19.666  0.00  0.00    +0.000 HD
ENDBRANCH  11  12
ENDBRANCH   9  11
ENDBRANCH   2   9
ENDBRANCH   1   2
BRANCH   1  14
ATOM     14  C   UNL     1       6.717   7.995  17.038  0.00  0.00    +0.000 C 
BRANCH  14  15
ATOM     15  C   UNL     1       7.828   8.474  17.962  0.00  0.00    +0.000 C 
BRANCH  15  16
ATOM     16  C   UNL     1       8.745   9.507  17.324  0.00  0.00    +0.000 C 
BRANCH  16  17
ATOM     17  C   UNL     1       9.073  10.532  18.377  0.00  0.00    +0.000 A 
ATOM     18  C   UNL     1       9.308  10.153  19.706  0.00  0.00    +0.000 A 
ATOM     19  C   UNL     1       9.356  11.122  20.707  0.00  0.00    +0.000 A 
ATOM     20  C   UNL     1       9.317  12.472  20.369  0.00  0.00    +0.000 A 
ATOM     21  C   UNL     1       9.108  12.855  19.047  0.00  0.00    +0.000 A 
ATOM     22  C   UNL     1       8.972  11.887  18.056  0.00  0.00    +0.000 A 
ENDBRANCH  16  17
ENDBRANCH  15  16
ENDBRANCH  14  15
ENDBRANCH   1  14
BRANCH   1  23
ATOM     23  C   UNL     1       5.005   6.333  16.550  0.00  0.00    +0.000 C 
BRANCH  23  24
ATOM     24  C   UNL     1       3.768   6.175  17.408  0.00  0.00    +0.000 A 
ATOM     25  C   UNL     1       3.278   7.418  17.969  0.00  0.00    +0.000 A 
ATOM     26  C   UNL     1       2.462   7.405  19.075  0.00  0.00    +0.000 A 
ATOM     27  C   UNL     1       2.107   6.159  19.556  0.00  0.00    +0.000 A 
ATOM     28  C   UNL     1       2.589   4.941  18.981  0.00  0.00    +0.000 A 
ATOM     29  C   UNL     1       2.341   3.756  19.638  0.00  0.00    +0.000 A 
ATOM     30  C   UNL     1       2.903   2.524  19.251  0.00  0.00    +0.000 A 
ATOM     31  C   UNL     1       2.947   2.135  17.941  0.00  0.00    +0.000 A 
ATOM     32  C   UNL     1       3.441   3.307  17.355  0.00  0.00    +0.000 A 
ATOM     33  C   UNL     1       3.309   4.817  17.813  0.00  0.00    +0.000 A 
ENDBRANCH  23  24
ENDBRANCH   1  23
TORSDOF 11
ENDMDL
MODEL 2
REMARK VINA RESULT:      -8.0      3.885      6.464
REMARK  Name = 
REMARK  11 active torsions:
REMARK  status: ('A' for Active; 'I' for Inactive)
REMARK    1  A    between atoms: C_2  and  O_3
REMARK    2  A    between atoms: C_2  and  C_4
REMARK    3  A    between atoms: C_4  and  C_5
REMARK    4  A    between atoms: C_5  and  C_6
REMARK    5  A    between atoms: C_5  and  N_11
REMARK    6  A    between atoms: N_11  and  C_12
REMARK    7  A    between atoms: N_11  and  C_21
REMARK    8  A    between atoms: C_12  and  C_13
REMARK    9  A    between atoms: C_13  and  C_14
REMARK   10  A    between atoms: C_14  and  C_15
REMARK   11  A    between atoms: C_21  and  C_22
REMARK                            x       y       z     vdW  Elec       q    Type
REMARK                         _______ _______ _______ _____ _____    ______ ____
ROOT
ATOM      1  N   UNL     1       2.913   5.837  18.526  0.00  0.00    +0.000 NA
ENDROOT
BRANCH   1   2
ATOM      2  C   UNL     1       2.997   4.754  19.557  0.00  0.00    +0.000 C 
BRANCH   2   3
ATOM      3  C   UNL     1       2.944   3.394  18.912  0.00  0.00    +0.000 A 
ATOM      4  C   UNL     1       2.051   2.935  17.973  0.00  0.00    +0.000 A 
ATOM      5  N   UNL     1       2.510   1.700  17.630  0.00  0.00    +0.000 N 
ATOM      6  C   UNL     1       3.685   1.498  18.277  0.00  0.00    +0.000 A 
ATOM      7  N   UNL     1       3.963   2.471  19.101  0.00  0.00    +0.000 NA
ATOM      8  H   UNL     1       2.192   1.027  16.938  0.00  0.00    +0.000 HD
ENDBRANCH   2   3
BRANCH   2   9
ATOM      9  C   UNL     1       1.921   4.855  20.630  0.00  0.00    +0.000 C 
BRANCH   9  11
ATOM     10  O   UNL     1       2.465   3.250  22.309  0.00  0.00    +0.000 OA
ATOM     11  C   UNL     1       1.709   3.587  21.409  0.00  0.00    +0.000 C 
BRANCH  11  12
ATOM     12  O   UNL     1       0.601   2.865  21.130  0.00  0.00    +0.000 OA
ATOM     13  H   UNL     1       0.845   1.920  20.962  0.00  0.00    +0.000 HD
ENDBRANCH  11  12
ENDBRANCH   9  11
ENDBRANCH   2   9
ENDBRANCH   1   2
BRANCH   1  14
ATOM     14  C   UNL     1       1.848   6.810  18.856  0.00  0.00    +0.000 C 
BRANCH  14  15
ATOM     15  C   UNL     1       2.282   8.263  18.715  0.00  0.00    +0.000 C 
BRANCH  15  16
ATOM     16  C   UNL     1       1.369   9.083  17.816  0.00  0.00    +0.000 C 
BRANCH  16  17
ATOM     17  C   UNL     1       0.409   9.828  18.706  0.00  0.00    +0.000 A 
ATOM     18  C   UNL     1      -0.800  10.331  18.205  0.00  0.00    +0.000 A 
ATOM     19  C   UNL     1      -1.548  11.227  18.966  0.00  0.00    +0.000 A 
ATOM     20  C   UNL     1      -1.173  11.507  20.277  0.00  0.00    +0.000 A 
ATOM     21  C   UNL     1       0.015  10.991  20.789  0.00  0.00    +0.000 A 
ATOM     22  C   UNL     1       0.810  10.165  20.001  0.00  0.00    +0.000 A 
ENDBRANCH  16  17
ENDBRANCH  15  16
ENDBRANCH  14  15
ENDBRANCH   1  14
BRANCH   1  23
ATOM     23  C   UNL     1       4.222   6.554  18.374  0.00  0.00    +0.000 C 
BRANCH  23  24
ATOM     24  C   UNL     1       5.405   5.639  18.146  0.00  0.00    +0.000 A 
ATOM     25  C   UNL     1       6.352   5.617  19.243  0.00  0.00    +0.000 A 
ATOM     26  C   UNL     1       7.645   5.199  19.035  0.00  0.00    +0.000 A 
ATOM     27  C   UNL     1       7.945   4.759  17.760  0.00  0.00    +0.000 A 
ATOM     28  C   UNL     1       6.994   4.774  16.691  0.00  0.00    +0.000 A 
ATOM     29  C   UNL     1       7.430   4.500  15.413  0.00  0.00    +0.000 A 
ATOM     30  C   UNL     1       6.619   4.645  14.271  0.00  0.00    +0.000 A 
ATOM     31  C   UNL     1       5.326   4.200  14.247  0.00  0.00    +0.000 A 
ATOM     32  C   UNL     1       4.866   4.720  15.462  0.00  0.00    +0.000 A 
ATOM     33  C   UNL     1       5.649   5.055  16.797  0.00  0.00    +0.000 A 
ENDBRANCH  23  24
ENDBRANCH   1  23
TORSDOF 11
ENDMDL
MODEL 3
REMARK VINA RESULT:      -7.9      3.077      6.474
REMARK  Name = 
REMARK  11 active torsions:
REMARK  status: ('A' for Active; 'I' for Inactive)
REMARK    1  A    between atoms: C_2  and  O_3
REMARK    2  A    between atoms: C_2  and  C_4
REMARK    3  A    between atoms: C_4  and  C_5
REMARK    4  A    between atoms: C_5  and  C_6
REMARK    5  A    between atoms: C_5  and  N_11
REMARK    6  A    between atoms: N_11  and  C_12
REMARK    7  A    between atoms: N_11  and  C_21
REMARK    8  A    between atoms: C_12  and  C_13
REMARK    9  A    between atoms: C_13  and  C_14
REMARK   10  A    between atoms: C_14  and  C_15
REMARK   11  A    between atoms: C_21  and  C_22
REMARK                            x       y       z     vdW  Elec       q    Type
REMARK                         _______ _______ _______ _____ _____    ______ ____
ROOT
ATOM      1  N   UNL     1       4.142   5.895  18.080  0.00  0.00    +0.000 NA
ENDROOT
BRANCH   1   2
ATOM      2  C   UNL     1       5.634   6.015  18.024  0.00  0.00    +0.000 C 
BRANCH   2   3
ATOM      3  C   UNL     1       6.163   5.517  16.705  0.00  0.00    +0.000 A 
ATOM      4  C   UNL     1       6.972   4.430  16.469  0.00  0.00    +0.000 A 
ATOM      5  N   UNL     1       7.053   4.343  15.113  0.00  0.00    +0.000 N 
ATOM      6  C   UNL     1       6.236   5.288  14.586  0.00  0.00    +0.000 A 
ATOM      7  N   UNL     1       5.716   6.055  15.505  0.00  0.00    +0.000 NA
ATOM      8  H   UNL     1       7.499   3.663  14.504  0.00  0.00    +0.000 HD
ENDBRANCH   2   3
BRANCH   2   9
ATOM      9  C   UNL     1       6.342   5.296  19.164  0.00  0.00    +0.000 C 
BRANCH   9  11
ATOM     10  O   UNL     1       8.162   6.815  18.903  0.00  0.00    +0.000 OA
ATOM     11  C   UNL     1       7.673   5.887  19.532  0.00  0.00    +0.000 C 
BRANCH  11  12
ATOM     12  O   UNL     1       8.282   5.406  20.639  0.00  0.00    +0.000 OA
ATOM     13  H   UNL     1       7.633   5.347  21.384  0.00  0.00    +0.000 HD
ENDBRANCH  11  12
ENDBRANCH   9  11
ENDBRANCH   2   9
ENDBRANCH   1   2
BRANCH   1  14
ATOM     14  C   UNL     1       3.718   4.477  18.101  0.00  0.00    +0.000 C 
BRANCH  14  15
ATOM     15  C   UNL     1       2.630   4.149  17.089  0.00  0.00    +0.000 C 
BRANCH  15  16
ATOM     16  C   UNL     1       1.225   4.193  17.673  0.00  0.00    +0.000 C 
BRANCH  16  17
ATOM     17  C   UNL     1       1.292   3.595  19.053  0.00  0.00    +0.000 A 
ATOM     18  C   UNL     1       1.264   4.408  20.195  0.00  0.00    +0.000 A 
ATOM     19  C   UNL     1       1.581   3.868  21.440  0.00  0.00    +0.000 A 
ATOM     20  C   UNL     1       1.781   2.496  21.572  0.00  0.00    +0.000 A 
ATOM     21  C   UNL     1       1.786   1.680  20.444  0.00  0.00    +0.000 A 
ATOM     22  C   UNL     1       1.556   2.230  19.187  0.00  0.00    +0.000 A 
ENDBRANCH  16  17
ENDBRANCH  15  16
ENDBRANCH  14  15
ENDBRANCH   1  14
BRANCH   1  23
ATOM     23  C   UNL     1       3.578   6.608  19.272  0.00  0.00    +0.000 C 
BRANCH  23  24
ATOM     24  C   UNL     1       2.514   7.631  18.935  0.00  0.00    +0.000 A 
ATOM     25  C   UNL     1       2.639   8.194  17.606  0.00  0.00    +0.000 A 
ATOM     26  C   UNL     1       2.050   9.399  17.306  0.00  0.00    +0.000 A 
ATOM     27  C   UNL     1       1.304   9.980  18.313  0.00  0.00    +0.000 A 
ATOM     28  C   UNL     1       1.178   9.403  19.616  0.00  0.00    +0.000 A 
ATOM     29  C   UNL     1       0.578  10.141  20.612  0.00  0.00    +0.000 A 
ATOM     30  C   UNL     1       0.547   9.739  21.961  0.00  0.00    +0.000 A 
ATOM     31  C   UNL     1       0.249   8.455  22.321  0.00  0.00    +0.000 A 
ATOM     32  C   UNL     1       1.076   7.754  21.436  0.00  0.00    +0.000 A 
ATOM     33  C   UNL     1       1.618   8.156  20.003  0.00  0.00    +0.000 A 
ENDBRANCH  23  24
ENDBRANCH   1  23
TORSDOF 11
ENDMDL
MODEL 4
REMARK VINA RESULT:      -7.8      2.766      5.205
REMARK  Name = 
REMARK  11 active torsions:
REMARK  status: ('A' for Active; 'I' for Inactive)
REMARK    1  A    between atoms: C_2  and  O_3
REMARK    2  A    between atoms: C_2  and  C_4
REMARK    3  A    between atoms: C_4  and  C_5
REMARK    4  A    between atoms: C_5  and  C_6
REMARK    5  A    between atoms: C_5  and  N_11
REMARK    6  A    between atoms: N_11  and  C_12
REMARK    7  A    between atoms: N_11  and  C_21
REMARK    8  A    between atoms: C_12  and  C_13
REMARK    9  A    between atoms: C_13  and  C_14
REMARK   10  A    between atoms: C_14  and  C_15
REMARK   11  A    between atoms: C_21  and  C_22
REMARK                            x       y       z     vdW  Elec       q    Type
REMARK                         _______ _______ _______ _____ _____    ______ ____
ROOT
ATOM      1  N   UNL     1       4.965   4.871  17.607  0.00  0.00    +0.000 NA
ENDROOT
BRANCH   1   2
ATOM      2  C   UNL     1       6.219   5.186  16.849  0.00  0.00    +0.000 C 
BRANCH   2   3
ATOM      3  C   UNL     1       7.006   6.267  17.541  0.00  0.00    +0.000 A 
ATOM      4  C   UNL     1       7.775   6.164  18.676  0.00  0.00    +0.000 A 
ATOM      5  N   UNL     1       8.367   7.383  18.808  0.00  0.00    +0.000 N 
ATOM      6  C   UNL     1       8.026   8.130  17.729  0.00  0.00    +0.000 A 
ATOM      7  N   UNL     1       7.165   7.518  16.962  0.00  0.00    +0.000 NA
ATOM      8  H   UNL     1       9.052   7.734  19.471  0.00  0.00    +0.000 HD
ENDBRANCH   2   3
BRANCH   2   9
ATOM      9  C   UNL     1       5.966   5.581  15.401  0.00  0.00    +0.000 C 
BRANCH   9  11
ATOM     10  O   UNL     1       7.866   5.361  13.975  0.00  0.00    +0.000 OA
ATOM     11  C   UNL     1       6.836   4.864  14.407  0.00  0.00    +0.000 C 
BRANCH  11  12
ATOM     12  O   UNL     1       6.478   3.606  14.063  0.00  0.00    +0.000 OA
ATOM     13  H   UNL     1       5.518   3.462  14.257  0.00  0.00    +0.000 HD
ENDBRANCH  11  12
ENDBRANCH   9  11
ENDBRANCH   2   9
ENDBRANCH   1   2
BRANCH   1  14
ATOM     14  C   UNL     1       4.205   6.101  17.921  0.00  0.00    +0.000 C 
BRANCH  14  15
ATOM     15  C   UNL     1       3.876   6.257  19.399  0.00  0.00    +0.000 C 
BRANCH  15  16
ATOM     16  C   UNL     1       2.383   6.305  19.686  0.00  0.00    +0.000 C 
BRANCH  16  17
ATOM     17  C   UNL     1       1.957   7.748  19.617  0.00  0.00    +0.000 A 
ATOM     18  C   UNL     1       1.373   8.383  20.721  0.00  0.00    +0.000 A 
ATOM     19  C   UNL     1       0.757   9.624  20.564  0.00  0.00    +0.000 A 
ATOM     20  C   UNL     1       0.851  10.297  19.348  0.00  0.00    +0.000 A 
ATOM     21  C   UNL     1       1.451   9.680  18.253  0.00  0.00    +0.000 A 
ATOM     22  C   UNL     1       1.990   8.404  18.384  0.00  0.00    +0.000 A 
ENDBRANCH  16  17
ENDBRANCH  15  16
ENDBRANCH  14  15
ENDBRANCH   1  14
BRANCH   1  23
ATOM     23  C   UNL     1       4.090   3.917  16.850  0.00  0.00    +0.000 C 
BRANCH  23  24
ATOM     24  C   UNL     1       2.995   3.287  17.683  0.00  0.00    +0.000 A 
ATOM     25  C   UNL     1       1.656   3.611  17.237  0.00  0.00    +0.000 A 
ATOM     26  C   UNL     1       0.590   3.490  18.096  0.00  0.00    +0.000 A 
ATOM     27  C   UNL     1       0.875   2.992  19.354  0.00  0.00    +0.000 A 
ATOM     28  C   UNL     1       2.202   2.663  19.774  0.00  0.00    +0.000 A 
ATOM     29  C   UNL     1       2.420   2.358  21.099  0.00  0.00    +0.000 A 
ATOM     30  C   UNL     1       3.703   2.178  21.651  0.00  0.00    +0.000 A 
ATOM     31  C   UNL     1       4.663   1.442  21.014  0.00  0.00    +0.000 A 
ATOM     32  C   UNL     1       4.560   1.972  19.722  0.00  0.00    +0.000 A 
ATOM     33  C   UNL     1       3.327   2.629  18.978  0.00  0.00    +0.000 A 
ENDBRANCH  23  24
ENDBRANCH   1  23
TORSDOF 11
ENDMDL
MODEL 5
REMARK VINA RESULT:      -7.8      3.876      6.470
REMARK  Name = 
REMARK  11 active torsions:
REMARK  status: ('A' for Active; 'I' for Inactive)
REMARK    1  A    between atoms: C_2  and  O_3
REMARK    2  A    between atoms: C_2  and  C_4
REMARK    3  A    between atoms: C_4  and  C_5
REMARK    4  A    between atoms: C_5  and  C_6
REMARK    5  A    between atoms: C_5  and  N_11
REMARK    6  A    between atoms: N_11  and  C_12
REMARK    7  A    between atoms: N_11  and  C_21
REMARK    8  A    between atoms: C_12  and  C_13
REMARK    9  A    between atoms: C_13  and  C_14
REMARK   10  A    between atoms: C_14  and  C_15
REMARK   11  A    between atoms: C_21  and  C_22
REMARK                            x       y       z     vdW  Elec       q    Type
REMARK                         _______ _______ _______ _____ _____    ______ ____
ROOT
ATOM      1  N   UNL     1       2.840   5.865  18.465  0.00  0.00    +0.000 NA
ENDROOT
BRANCH   1   2
ATOM      2  C   UNL     1       2.990   4.804  19.512  0.00  0.00    +0.000 C 
BRANCH   2   3
ATOM      3  C   UNL     1       2.992   3.433  18.888  0.00  0.00    +0.000 A 
ATOM      4  C   UNL     1       3.856   2.391  19.130  0.00  0.00    +0.000 A 
ATOM      5  N   UNL     1       3.353   1.348  18.414  0.00  0.00    +0.000 N 
ATOM      6  C   UNL     1       2.183   1.749  17.859  0.00  0.00    +0.000 A 
ATOM      7  N   UNL     1       1.948   3.015  18.075  0.00  0.00    +0.000 NA
ATOM      8  H   UNL     1       3.640   0.376  18.342  0.00  0.00    +0.000 HD
ENDBRANCH   2   3
BRANCH   2   9
ATOM      9  C   UNL     1       1.925   4.872  20.598  0.00  0.00    +0.000 C 
BRANCH   9  11
ATOM     10  O   UNL     1       2.447   3.250  22.268  0.00  0.00    +0.000 OA
ATOM     11  C   UNL     1       1.722   3.581  21.341  0.00  0.00    +0.000 C 
BRANCH  11  12
ATOM     12  O   UNL     1       0.653   2.829  20.997  0.00  0.00    +0.000 OA
ATOM     13  H   UNL     1       0.849   2.318  20.172  0.00  0.00    +0.000 HD
ENDBRANCH  11  12
ENDBRANCH   9  11
ENDBRANCH   2   9
ENDBRANCH   1   2
BRANCH   1  14
ATOM     14  C   UNL     1       1.786   6.836  18.832  0.00  0.00    +0.000 C 
BRANCH  14  15
ATOM     15  C   UNL     1       2.239   8.287  18.761  0.00  0.00    +0.000 C 
BRANCH  15  16
ATOM     16  C   UNL     1       1.534   9.091  17.678  0.00  0.00    +0.000 C 
BRANCH  16  17
ATOM     17  C   UNL     1       0.545   9.997  18.361  0.00  0.00    +0.000 A 
ATOM     18  C   UNL     1       0.871  10.656  19.555  0.00  0.00    +0.000 A 
ATOM     19  C   UNL     1      -0.128  11.278  20.301  0.00  0.00    +0.000 A 
ATOM     20  C   UNL     1      -1.420  11.374  19.789  0.00  0.00    +0.000 A 
ATOM     21  C   UNL     1      -1.744  10.742  18.591  0.00  0.00    +0.000 A 
ATOM     22  C   UNL     1      -0.769  10.045  17.887  0.00  0.00    +0.000 A 
ENDBRANCH  16  17
ENDBRANCH  15  16
ENDBRANCH  14  15
ENDBRANCH   1  14
BRANCH   1  23
ATOM     23  C   UNL     1       4.132   6.589  18.227  0.00  0.00    +0.000 C 
BRANCH  23  24
ATOM     24  C   UNL     1       5.328   5.678  18.053  0.00  0.00    +0.000 A 
ATOM     25  C   UNL     1       6.241   5.684  19.178  0.00  0.00    +0.000 A 
ATOM     26  C   UNL     1       7.542   5.273  19.018  0.00  0.00    +0.000 A 
ATOM     27  C   UNL     1       7.884   4.810  17.762  0.00  0.00    +0.000 A 
ATOM     28  C   UNL     1       6.967   4.798  16.664  0.00  0.00    +0.000 A 
ATOM     29  C   UNL     1       7.443   4.503  15.406  0.00  0.00    +0.000 A 
ATOM     30  C   UNL     1       6.667   4.619  14.238  0.00  0.00    +0.000 A 
ATOM     31  C   UNL     1       5.379   4.164  14.183  0.00  0.00    +0.000 A 
ATOM     32  C   UNL     1       4.878   4.704  15.373  0.00  0.00    +0.000 A 
ATOM     33  C   UNL     1       5.617   5.070  16.724  0.00  0.00    +0.000 A 
ENDBRANCH  23  24
ENDBRANCH   1  23
TORSDOF 11
ENDMDL
MODEL 6
REMARK VINA RESULT:      -7.8      2.541      5.512
REMARK  Name = 
REMARK  11 active torsions:
REMARK  status: ('A' for Active; 'I' for Inactive)
REMARK    1  A    between atoms: C_2  and  O_3
REMARK    2  A    between atoms: C_2  and  C_4
REMARK    3  A    between atoms: C_4  and  C_5
REMARK    4  A    between atoms: C_5  and  C_6
REMARK    5  A    between atoms: C_5  and  N_11
REMARK    6  A    between atoms: N_11  and  C_12
REMARK    7  A    between atoms: N_11  and  C_21
REMARK    8  A    between atoms: C_12  and  C_13
REMARK    9  A    between atoms: C_13  and  C_14
REMARK   10  A    between atoms: C_14  and  C_15
REMARK   11  A    between atoms: C_21  and  C_22
REMARK                            x       y       z     vdW  Elec       q    Type
REMARK                         _______ _______ _______ _____ _____    ______ ____
ROOT
ATOM      1  N   UNL     1       5.316   5.545  18.505  0.00  0.00    +0.000 NA
ENDROOT
BRANCH   1   2
ATOM      2  C   UNL     1       6.383   5.823  17.491  0.00  0.00    +0.000 C 
BRANCH   2   3
ATOM      3  C   UNL     1       7.211   7.013  17.898  0.00  0.00    +0.000 A 
ATOM      4  C   UNL     1       8.228   7.065  18.822  0.00  0.00    +0.000 A 
ATOM      5  N   UNL     1       8.725   8.329  18.723  0.00  0.00    +0.000 N 
ATOM      6  C   UNL     1       8.079   8.951  17.706  0.00  0.00    +0.000 A 
ATOM      7  N   UNL     1       7.122   8.216  17.210  0.00  0.00    +0.000 NA
ATOM      8  H   UNL     1       9.511   8.785  19.177  0.00  0.00    +0.000 HD
ENDBRANCH   2   3
BRANCH   2   9
ATOM      9  C   UNL     1       5.841   6.031  16.084  0.00  0.00    +0.000 C 
BRANCH   9  11
ATOM     10  O   UNL     1       7.607   4.855  14.994  0.00  0.00    +0.000 OA
ATOM     11  C   UNL     1       6.409   5.088  15.061  0.00  0.00    +0.000 C 
BRANCH  11  12
ATOM     12  O   UNL     1       5.533   4.441  14.260  0.00  0.00    +0.000 OA
ATOM     13  H   UNL     1       4.724   4.191  14.773  0.00  0.00    +0.000 HD
ENDBRANCH  11  12
ENDBRANCH   9  11
ENDBRANCH   2   9
ENDBRANCH   1   2
BRANCH   1  14
ATOM     14  C   UNL     1       3.966   5.742  17.931  0.00  0.00    +0.000 C 
BRANCH  14  15
ATOM     15  C   UNL     1       3.246   6.970  18.471  0.00  0.00    +0.000 C 
BRANCH  15  16
ATOM     16  C   UNL     1       2.389   6.680  19.694  0.00  0.00    +0.000 C 
BRANCH  16  17
ATOM     17  C   UNL     1       1.671   7.954  20.054  0.00  0.00    +0.000 A 
ATOM     18  C   UNL     1       1.044   8.104  21.299  0.00  0.00    +0.000 A 
ATOM     19  C   UNL     1       0.177   9.174  21.515  0.00  0.00    +0.000 A 
ATOM     20  C   UNL     1       0.048  10.171  20.552  0.00  0.00    +0.000 A 
ATOM     21  C   UNL     1       0.688  10.039  19.322  0.00  0.00    +0.000 A 
ATOM     22  C   UNL     1       1.486   8.928  19.069  0.00  0.00    +0.000 A 
ENDBRANCH  16  17
ENDBRANCH  15  16
ENDBRANCH  14  15
ENDBRANCH   1  14
BRANCH   1  23
ATOM     23  C   UNL     1       5.430   4.155  19.057  0.00  0.00    +0.000 C 
BRANCH  23  24
ATOM     24  C   UNL     1       4.271   3.249  18.699  0.00  0.00    +0.000 A 
ATOM     25  C   UNL     1       4.190   2.927  17.289  0.00  0.00    +0.000 A 
ATOM     26  C   UNL     1       3.004   2.494  16.744  0.00  0.00    +0.000 A 
ATOM     27  C   UNL     1       1.951   2.337  17.625  0.00  0.00    +0.000 A 
ATOM     28  C   UNL     1       2.052   2.647  19.018  0.00  0.00    +0.000 A 
ATOM     29  C   UNL     1       0.907   2.644  19.781  0.00  0.00    +0.000 A 
ATOM     30  C   UNL     1       0.865   3.088  21.117  0.00  0.00    +0.000 A 
ATOM     31  C   UNL     1       1.827   2.734  22.021  0.00  0.00    +0.000 A 
ATOM     32  C   UNL     1       2.978   2.992  21.268  0.00  0.00    +0.000 A 
ATOM     33  C   UNL     1       3.204   2.972  19.701  0.00  0.00    +0.000 A 
ENDBRANCH  23  24
ENDBRANCH   1  23
TORSDOF 11
ENDMDL
MODEL 7
REMARK VINA RESULT:      -7.7      3.936      6.467
REMARK  Name = 
REMARK  11 active torsions:
REMARK  status: ('A' for Active; 'I' for Inactive)
REMARK    1  A    between atoms: C_2  and  O_3
REMARK    2  A    between atoms: C_2  and  C_4
REMARK    3  A    between atoms: C_4  and  C_5
REMARK    4  A    between atoms: C_5  and  C_6
REMARK    5  A    between atoms: C_5  and  N_11
REMARK    6  A    between atoms: N_11  and  C_12
REMARK    7  A    between atoms: N_11  and  C_21
REMARK    8  A    between atoms: C_12  and  C_13
REMARK    9  A    between atoms: C_13  and  C_14
REMARK   10  A    between atoms: C_14  and  C_15
REMARK   11  A    between atoms: C_21  and  C_22
REMARK                            x       y       z     vdW  Elec       q    Type
REMARK                         _______ _______ _______ _____ _____    ______ ____
ROOT
ATOM      1  N   UNL     1       2.637   5.566  18.808  0.00  0.00    +0.000 NA
ENDROOT
BRANCH   1   2
ATOM      2  C   UNL     1       3.100   4.513  19.768  0.00  0.00    +0.000 C 
BRANCH   2   3
ATOM      3  C   UNL     1       3.094   3.155  19.117  0.00  0.00    +0.000 A 
ATOM      4  C   UNL     1       2.364   2.738  18.029  0.00  0.00    +0.000 A 
ATOM      5  N   UNL     1       2.813   1.479  17.770  0.00  0.00    +0.000 N 
ATOM      6  C   UNL     1       3.838   1.220  18.619  0.00  0.00    +0.000 A 
ATOM      7  N   UNL     1       4.012   2.181  19.485  0.00  0.00    +0.000 NA
ATOM      8  H   UNL     1       2.592   0.821  17.029  0.00  0.00    +0.000 HD
ENDBRANCH   2   3
BRANCH   2   9
ATOM      9  C   UNL     1       2.288   4.469  21.054  0.00  0.00    +0.000 C 
BRANCH   9  11
ATOM     10  O   UNL     1       1.760   2.356  22.027  0.00  0.00    +0.000 OA
ATOM     11  C   UNL     1       1.464   3.223  21.218  0.00  0.00    +0.000 C 
BRANCH  11  12
ATOM     12  O   UNL     1       0.330   3.129  20.488  0.00  0.00    +0.000 OA
ATOM     13  H   UNL     1       0.326   3.816  19.776  0.00  0.00    +0.000 HD
ENDBRANCH  11  12
ENDBRANCH   9  11
ENDBRANCH   2   9
ENDBRANCH   1   2
BRANCH   1  14
ATOM     14  C   UNL     1       1.634   6.457  19.432  0.00  0.00    +0.000 C 
BRANCH  14  15
ATOM     15  C   UNL     1       2.187   7.820  19.824  0.00  0.00    +0.000 C 
BRANCH  15  16
ATOM     16  C   UNL     1       1.288   8.979  19.419  0.00  0.00    +0.000 C 
BRANCH  16  17
ATOM     17  C   UNL     1       0.723   9.574  20.682  0.00  0.00    +0.000 A 
ATOM     18  C   UNL     1       0.938   8.967  21.927  0.00  0.00    +0.000 A 
ATOM     19  C   UNL     1       0.205   9.380  23.038  0.00  0.00    +0.000 A 
ATOM     20  C   UNL     1      -0.630  10.490  22.945  0.00  0.00    +0.000 A 
ATOM     21  C   UNL     1      -0.829  11.114  21.716  0.00  0.00    +0.000 A 
ATOM     22  C   UNL     1      -0.165  10.648  20.585  0.00  0.00    +0.000 A 
ENDBRANCH  16  17
ENDBRANCH  15  16
ENDBRANCH  14  15
ENDBRANCH   1  14
BRANCH   1  23
ATOM     23  C   UNL     1       3.785   6.382  18.291  0.00  0.00    +0.000 C 
BRANCH  23  24
ATOM     24  C   UNL     1       5.084   5.615  18.169  0.00  0.00    +0.000 A 
ATOM     25  C   UNL     1       5.939   5.716  19.333  0.00  0.00    +0.000 A 
ATOM     26  C   UNL     1       7.285   5.457  19.230  0.00  0.00    +0.000 A 
ATOM     27  C   UNL     1       7.732   5.045  17.989  0.00  0.00    +0.000 A 
ATOM     28  C   UNL     1       6.871   4.936  16.852  0.00  0.00    +0.000 A 
ATOM     29  C   UNL     1       7.433   4.706  15.616  0.00  0.00    +0.000 A 
ATOM     30  C   UNL     1       6.700   4.742  14.414  0.00  0.00    +0.000 A 
ATOM     31  C   UNL     1       5.476   4.144  14.301  0.00  0.00    +0.000 A 
ATOM     32  C   UNL     1       4.865   4.615  15.469  0.00  0.00    +0.000 A 
ATOM     33  C   UNL     1       5.498   5.053  16.853  0.00  0.00    +0.000 A 
ENDBRANCH  23  24
ENDBRANCH   1  23
TORSDOF 11
ENDMDL
MODEL 8
REMARK VINA RESULT:      -7.7      2.628      5.533
REMARK  Name = 
REMARK  11 active torsions:
REMARK  status: ('A' for Active; 'I' for Inactive)
REMARK    1  A    between atoms: C_2  and  O_3
REMARK    2  A    between atoms: C_2  and  C_4
REMARK    3  A    between atoms: C_4  and  C_5
REMARK    4  A    between atoms: C_5  and  C_6
REMARK    5  A    between atoms: C_5  and  N_11
REMARK    6  A    between atoms: N_11  and  C_12
REMARK    7  A    between atoms: N_11  and  C_21
REMARK    8  A    between atoms: C_12  and  C_13
REMARK    9  A    between atoms: C_13  and  C_14
REMARK   10  A    between atoms: C_14  and  C_15
REMARK   11  A    between atoms: C_21  and  C_22
REMARK                            x       y       z     vdW  Elec       q    Type
REMARK                         _______ _______ _______ _____ _____    ______ ____
ROOT
ATOM      1  N   UNL     1       4.778   5.794  17.341  0.00  0.00    +0.000 NA
ENDROOT
BRANCH   1   2
ATOM      2  C   UNL     1       6.179   5.764  16.811  0.00  0.00    +0.000 C 
BRANCH   2   3
ATOM      3  C   UNL     1       7.062   6.712  17.578  0.00  0.00    +0.000 A 
ATOM      4  C   UNL     1       7.845   6.443  18.676  0.00  0.00    +0.000 A 
ATOM      5  N   UNL     1       8.532   7.596  18.905  0.00  0.00    +0.000 N 
ATOM      6  C   UNL     1       8.228   8.466  17.911  0.00  0.00    +0.000 A 
ATOM      7  N   UNL     1       7.306   7.998  17.114  0.00  0.00    +0.000 NA
ATOM      8  H   UNL     1       9.256   7.830  19.578  0.00  0.00    +0.000 HD
ENDBRANCH   2   3
BRANCH   2   9
ATOM      9  C   UNL     1       6.269   6.071  15.322  0.00  0.00    +0.000 C 
BRANCH   9  11
ATOM     10  O   UNL     1       7.977   5.267  13.864  0.00  0.00    +0.000 OA
ATOM     11  C   UNL     1       6.976   5.015  14.519  0.00  0.00    +0.000 C 
BRANCH  11  12
ATOM     12  O   UNL     1       6.508   3.750  14.608  0.00  0.00    +0.000 OA
ATOM     13  H   UNL     1       7.142   3.189  15.121  0.00  0.00    +0.000 HD
ENDBRANCH  11  12
ENDBRANCH   9  11
ENDBRANCH   2   9
ENDBRANCH   1   2
BRANCH   1  14
ATOM     14  C   UNL     1       4.088   7.047  16.962  0.00  0.00    +0.000 C 
BRANCH  14  15
ATOM     15  C   UNL     1       2.993   7.461  17.937  0.00  0.00    +0.000 C 
BRANCH  15  16
ATOM     16  C   UNL     1       2.373   8.812  17.614  0.00  0.00    +0.000 C 
BRANCH  16  17
ATOM     17  C   UNL     1       1.481   9.186  18.768  0.00  0.00    +0.000 A 
ATOM     18  C   UNL     1       1.671   8.627  20.039  0.00  0.00    +0.000 A 
ATOM     19  C   UNL     1       0.694   8.784  21.020  0.00  0.00    +0.000 A 
ATOM     20  C   UNL     1      -0.398   9.616  20.787  0.00  0.00    +0.000 A 
ATOM     21  C   UNL     1      -0.580  10.194  19.533  0.00  0.00    +0.000 A 
ATOM     22  C   UNL     1       0.350   9.968  18.522  0.00  0.00    +0.000 A 
ENDBRANCH  16  17
ENDBRANCH  15  16
ENDBRANCH  14  15
ENDBRANCH   1  14
BRANCH   1  23
ATOM     23  C   UNL     1       3.984   4.616  16.861  0.00  0.00    +0.000 C 
BRANCH  23  24
ATOM     24  C   UNL     1       3.745   3.558  17.917  0.00  0.00    +0.000 A 
ATOM     25  C   UNL     1       4.191   2.234  17.535  0.00  0.00    +0.000 A 
ATOM     26  C   UNL     1       3.682   1.123  18.163  0.00  0.00    +0.000 A 
ATOM     27  C   UNL     1       2.790   1.360  19.192  0.00  0.00    +0.000 A 
ATOM     28  C   UNL     1       2.370   2.675  19.566  0.00  0.00    +0.000 A 
ATOM     29  C   UNL     1       1.339   2.809  20.468  0.00  0.00    +0.000 A 
ATOM     30  C   UNL     1       0.741   4.045  20.782  0.00  0.00    +0.000 A 
ATOM     31  C   UNL     1       1.488   5.165  21.015  0.00  0.00    +0.000 A 
ATOM     32  C   UNL     1       2.364   5.106  19.925  0.00  0.00    +0.000 A 
ATOM     33  C   UNL     1       2.890   3.862  19.098  0.00  0.00    +0.000 A 
ENDBRANCH  23  24
ENDBRANCH   1  23
TORSDOF 11
ENDMDL
MODEL 9
REMARK VINA RESULT:      -7.6      2.651      5.455
REMARK  Name = 
REMARK  11 active torsions:
REMARK  status: ('A' for Active; 'I' for Inactive)
REMARK    1  A    between atoms: C_2  and  O_3
REMARK    2  A    between atoms: C_2  and  C_4
REMARK    3  A    between atoms: C_4  and  C_5
REMARK    4  A    between atoms: C_5  and  C_6
REMARK    5  A    between atoms: C_5  and  N_11
REMARK    6  A    between atoms: N_11  and  C_12
REMARK    7  A    between atoms: N_11  and  C_21
REMARK    8  A    between atoms: C_12  and  C_13
REMARK    9  A    between atoms: C_13  and  C_14
REMARK   10  A    between atoms: C_14  and  C_15
REMARK   11  A    between atoms: C_21  and  C_22
REMARK                            x       y       z     vdW  Elec       q    Type
REMARK                         _______ _______ _______ _____ _____    ______ ____
ROOT
ATOM      1  N   UNL     1       4.708   5.889  17.528  0.00  0.00    +0.000 NA
ENDROOT
BRANCH   1   2
ATOM      2  C   UNL     1       6.084   5.829  16.937  0.00  0.00    +0.000 C 
BRANCH   2   3
ATOM      3  C   UNL     1       7.006   6.799  17.628  0.00  0.00    +0.000 A 
ATOM      4  C   UNL     1       7.845   6.562  18.691  0.00  0.00    +0.000 A 
ATOM      5  N   UNL     1       8.544   7.719  18.848  0.00  0.00    +0.000 N 
ATOM      6  C   UNL     1       8.190   8.559  17.845  0.00  0.00    +0.000 A 
ATOM      7  N   UNL     1       7.228   8.068  17.111  0.00  0.00    +0.000 NA
ATOM      8  H   UNL     1       9.302   7.972  19.476  0.00  0.00    +0.000 HD
ENDBRANCH   2   3
BRANCH   2   9
ATOM      9  C   UNL     1       6.108   6.080  15.435  0.00  0.00    +0.000 C 
BRANCH   9  11
ATOM     10  O   UNL     1       6.493   3.904  14.537  0.00  0.00    +0.000 OA
ATOM     11  C   UNL     1       6.883   5.057  14.653  0.00  0.00    +0.000 C 
BRANCH  11  12
ATOM     12  O   UNL     1       7.996   5.478  14.013  0.00  0.00    +0.000 OA
ATOM     13  H   UNL     1       7.749   6.031  13.230  0.00  0.00    +0.000 HD
ENDBRANCH  11  12
ENDBRANCH   9  11
ENDBRANCH   2   9
ENDBRANCH   1   2
BRANCH   1  14
ATOM     14  C   UNL     1       4.056   7.185  17.237  0.00  0.00    +0.000 C 
BRANCH  14  15
ATOM     15  C   UNL     1       2.784   7.422  18.040  0.00  0.00    +0.000 C 
BRANCH  15  16
ATOM     16  C   UNL     1       2.199   8.815  17.851  0.00  0.00    +0.000 C 
BRANCH  16  17
ATOM     17  C   UNL     1       1.480   9.178  19.124  0.00  0.00    +0.000 A 
ATOM     18  C   UNL     1       0.933  10.456  19.306  0.00  0.00    +0.000 A 
ATOM     19  C   UNL     1       0.503  10.854  20.570  0.00  0.00    +0.000 A 
ATOM     20  C   UNL     1       0.479   9.936  21.617  0.00  0.00    +0.000 A 
ATOM     21  C   UNL     1       1.000   8.657  21.436  0.00  0.00    +0.000 A 
ATOM     22  C   UNL     1       1.511   8.284  20.197  0.00  0.00    +0.000 A 
ENDBRANCH  16  17
ENDBRANCH  15  16
ENDBRANCH  14  15
ENDBRANCH   1  14
BRANCH   1  23
ATOM     23  C   UNL     1       3.847   4.767  17.030  0.00  0.00    +0.000 C 
BRANCH  23  24
ATOM     24  C   UNL     1       3.794   3.570  17.955  0.00  0.00    +0.000 A 
ATOM     25  C   UNL     1       4.215   2.330  17.336  0.00  0.00    +0.000 A 
ATOM     26  C   UNL     1       3.833   1.123  17.872  0.00  0.00    +0.000 A 
ATOM     27  C   UNL     1       3.095   1.182  19.039  0.00  0.00    +0.000 A 
ATOM     28  C   UNL     1       2.700   2.415  19.645  0.00  0.00    +0.000 A 
ATOM     29  C   UNL     1       1.808   2.382  20.694  0.00  0.00    +0.000 A 
ATOM     30  C   UNL     1       1.230   3.536  21.255  0.00  0.00    +0.000 A 
ATOM     31  C   UNL     1       1.973   4.650  21.531  0.00  0.00    +0.000 A 
ATOM     32  C   UNL     1       2.681   4.776  20.330  0.00  0.00    +0.000 A 
ATOM     33  C   UNL     1       3.114   3.677  19.276  0.00  0.00    +0.000 A 
ENDBRANCH  23  24
ENDBRANCH   1  23
TORSDOF 11
ENDMDL
