MODEL 1
REMARK VINA RESULT:      -9.0      0.000      0.000
REMARK  Name = 
REMARK  8 active torsions:
REMARK  status: ('A' for Active; 'I' for Inactive)
REMARK    1  A    between atoms: C_1  and  C_2
REMARK    2  A    between atoms: C_2  and  C_19
REMARK    3  A    between atoms: N_3  and  N_4
REMARK    4  A    between atoms: C_5  and  C_7
REMARK    5  A    between atoms: C_7  and  O_8
REMARK    6  A    between atoms: O_8  and  C_9
REMARK    7  A    between atoms: C_12  and  C_13
REMARK    8  A    between atoms: C_15  and  N_16
REMARK                            x       y       z     vdW  Elec       q    Type
REMARK                         _______ _______ _______ _____ _____    ______ ____
ROOT
ATOM      1  N   UNL     1       8.632   8.634  18.811  0.00  0.00    +0.000 N 
ATOM      2  C   UNL     1       8.009   7.633  18.067  0.00  0.00    +0.000 C 
ATOM      3  O   UNL     1       7.728   7.696  16.872  0.00  0.00    +0.000 OA
ATOM      4  H   UNL     1       8.283   8.735  19.763  0.00  0.00    +0.000 HD
ENDROOT
BRANCH   1   7
ATOM      5  C   UNL     1       9.474  10.796  20.499  0.00  0.00    +0.000 C 
ATOM      6  C   UNL     1       9.414  10.797  18.983  0.00  0.00    +0.000 C 
ATOM      7  N   UNL     1       8.952   9.826  18.246  0.00  0.00    +0.000 NA
BRANCH   6   8
ATOM      8  C   UNL     1       9.868  12.030  18.268  0.00  0.00    +0.000 A 
ATOM      9  C   UNL     1      11.045  12.078  17.513  0.00  0.00    +0.000 A 
ATOM     10  C   UNL     1      11.497  13.300  17.005  0.00  0.00    +0.000 A 
ATOM     11  C   UNL     1      10.769  14.464  17.239  0.00  0.00    +0.000 A 
ATOM     12  C   UNL     1       9.539  14.388  17.883  0.00  0.00    +0.000 A 
ATOM     13  C   UNL     1       9.090  13.186  18.405  0.00  0.00    +0.000 A 
ATOM     14  O   UNL     1       8.733  15.479  18.048  0.00  0.00    +0.000 OA
ATOM     15  C   UNL     1       9.559  16.597  18.346  0.00  0.00    +0.000 C 
ATOM     16  C   UNL     1      10.636  16.813  17.289  0.00  0.00    +0.000 C 
ATOM     17  O   UNL     1      11.336  15.642  16.850  0.00  0.00    +0.000 OA
ENDBRANCH   6   8
ENDBRANCH   1   7
BRANCH   2  18
ATOM     18  C   UNL     1       7.761   6.392  18.887  0.00  0.00    +0.000 C 
BRANCH  18  19
ATOM     19  O   UNL     1       7.558   5.342  17.957  0.00  0.00    +0.000 OA
BRANCH  19  20
ATOM     20  C   UNL     1       6.325   4.768  17.944  0.00  0.00    +0.000 A 
ATOM     21  C   UNL     1       5.674   4.281  19.080  0.00  0.00    +0.000 A 
ATOM     22  C   UNL     1       4.410   3.700  18.976  0.00  0.00    +0.000 A 
ATOM     23  C   UNL     1       3.780   3.585  17.731  0.00  0.00    +0.000 A 
ATOM     24  C   UNL     1       2.412   2.978  17.629  0.00  0.00    +0.000 C 
ATOM     25  C   UNL     1       4.436   4.037  16.582  0.00  0.00    +0.000 A 
ATOM     26  C   UNL     1       5.696   4.631  16.702  0.00  0.00    +0.000 A 
BRANCH  26  27
ATOM     27  N   UNL     1       6.340   5.115  15.496  0.00  0.00    +0.000 N 
ATOM     28  O   UNL     1       5.765   6.007  14.858  0.00  0.00    +0.000 OA
ATOM     29  O   UNL     1       7.388   4.548  15.159  0.00  0.00    +0.000 OA
ENDBRANCH  26  27
ENDBRANCH  19  20
ENDBRANCH  18  19
ENDBRANCH   2  18
TORSDOF 6
ENDMDL
MODEL 2
REMARK VINA RESULT:      -8.4      6.436      8.177
REMARK  Name = 
REMARK  8 active torsions:
REMARK  status: ('A' for Active; 'I' for Inactive)
REMARK    1  A    between atoms: C_1  and  C_2
REMARK    2  A    between atoms: C_2  and  C_19
REMARK    3  A    between atoms: N_3  and  N_4
REMARK    4  A    between atoms: C_5  and  C_7
REMARK    5  A    between atoms: C_7  and  O_8
REMARK    6  A    between atoms: O_8  and  C_9
REMARK    7  A    between atoms: C_12  and  C_13
REMARK    8  A    between atoms: C_15  and  N_16
REMARK                            x       y       z     vdW  Elec       q    Type
REMARK                         _______ _______ _______ _____ _____    ______ ____
ROOT
ATOM      1  N   UNL     1       2.734   6.909  19.854  0.00  0.00    +0.000 N 
ATOM      2  C   UNL     1       2.424   5.592  20.194  0.00  0.00    +0.000 C 
ATOM      3  O   UNL     1       1.374   5.212  20.708  0.00  0.00    +0.000 OA
ATOM      4  H   UNL     1       3.703   7.174  20.021  0.00  0.00    +0.000 HD
ENDROOT
BRANCH   1   7
ATOM      5  C   UNL     1       2.203   8.856  17.816  0.00  0.00    +0.000 C 
ATOM      6  C   UNL     1       1.549   8.769  19.182  0.00  0.00    +0.000 C 
ATOM      7  N   UNL     1       1.868   7.920  20.117  0.00  0.00    +0.000 NA
BRANCH   6   8
ATOM      8  C   UNL     1       0.489   9.771  19.512  0.00  0.00    +0.000 A 
ATOM      9  C   UNL     1      -0.506  10.150  18.604  0.00  0.00    +0.000 A 
ATOM     10  C   UNL     1      -1.367  11.207  18.914  0.00  0.00    +0.000 A 
ATOM     11  C   UNL     1      -1.244  11.872  20.132  0.00  0.00    +0.000 A 
ATOM     12  C   UNL     1      -0.337  11.409  21.079  0.00  0.00    +0.000 A 
ATOM     13  C   UNL     1       0.533  10.374  20.775  0.00  0.00    +0.000 A 
ATOM     14  O   UNL     1      -0.244  11.955  22.328  0.00  0.00    +0.000 OA
ATOM     15  C   UNL     1      -0.405  13.362  22.208  0.00  0.00    +0.000 C 
ATOM     16  C   UNL     1      -1.700  13.734  21.495  0.00  0.00    +0.000 C 
ATOM     17  O   UNL     1      -2.010  12.986  20.313  0.00  0.00    +0.000 OA
ENDBRANCH   6   8
ENDBRANCH   1   7
BRANCH   2  18
ATOM     18  C   UNL     1       3.518   4.634  19.797  0.00  0.00    +0.000 C 
BRANCH  18  19
ATOM     19  O   UNL     1       4.591   5.435  19.334  0.00  0.00    +0.000 OA
BRANCH  19  20
ATOM     20  C   UNL     1       5.070   5.155  18.092  0.00  0.00    +0.000 A 
ATOM     21  C   UNL     1       4.291   4.654  17.045  0.00  0.00    +0.000 A 
ATOM     22  C   UNL     1       4.864   4.387  15.802  0.00  0.00    +0.000 A 
ATOM     23  C   UNL     1       6.230   4.604  15.587  0.00  0.00    +0.000 A 
ATOM     24  C   UNL     1       6.837   4.333  14.242  0.00  0.00    +0.000 C 
ATOM     25  C   UNL     1       7.028   5.071  16.637  0.00  0.00    +0.000 A 
ATOM     26  C   UNL     1       6.437   5.349  17.873  0.00  0.00    +0.000 A 
BRANCH  26  27
ATOM     27  N   UNL     1       7.284   5.858  18.935  0.00  0.00    +0.000 N 
ATOM     28  O   UNL     1       7.984   6.849  18.684  0.00  0.00    +0.000 OA
ATOM     29  O   UNL     1       7.294   5.218  19.994  0.00  0.00    +0.000 OA
ENDBRANCH  26  27
ENDBRANCH  19  20
ENDBRANCH  18  19
ENDBRANCH   2  18
TORSDOF 6
ENDMDL
MODEL 3
REMARK VINA RESULT:      -8.4      6.688      8.701
REMARK  Name = 
REMARK  8 active torsions:
REMARK  status: ('A' for Active; 'I' for Inactive)
REMARK    1  A    between atoms: C_1  and  C_2
REMARK    2  A    between atoms: C_2  and  C_19
REMARK    3  A    between atoms: N_3  and  N_4
REMARK    4  A    between atoms: C_5  and  C_7
REMARK    5  A    between atoms: C_7  and  O_8
REMARK    6  A    between atoms: O_8  and  C_9
REMARK    7  A    between atoms: C_12  and  C_13
REMARK    8  A    between atoms: C_15  and  N_16
REMARK                            x       y       z     vdW  Elec       q    Type
REMARK                         _______ _______ _______ _____ _____    ______ ____
ROOT
ATOM      1  N   UNL     1       2.545   6.618  19.922  0.00  0.00    +0.000 N 
ATOM      2  C   UNL     1       2.660   5.287  20.324  0.00  0.00    +0.000 C 
ATOM      3  O   UNL     1       2.191   4.805  21.352  0.00  0.00    +0.000 OA
ATOM      4  H   UNL     1       3.377   7.001  19.478  0.00  0.00    +0.000 HD
ENDROOT
BRANCH   1   7
ATOM      5  C   UNL     1       1.577   9.040  18.727  0.00  0.00    +0.000 C 
ATOM      6  C   UNL     1       1.388   8.597  20.166  0.00  0.00    +0.000 C 
ATOM      7  N   UNL     1       1.906   7.529  20.701  0.00  0.00    +0.000 NA
BRANCH   6   8
ATOM      8  C   UNL     1       0.587   9.483  21.068  0.00  0.00    +0.000 A 
ATOM      9  C   UNL     1       0.361   9.186  22.417  0.00  0.00    +0.000 A 
ATOM     10  C   UNL     1      -0.527   9.966  23.163  0.00  0.00    +0.000 A 
ATOM     11  C   UNL     1      -1.176  11.046  22.567  0.00  0.00    +0.000 A 
ATOM     12  C   UNL     1      -0.852  11.409  21.265  0.00  0.00    +0.000 A 
ATOM     13  C   UNL     1       0.014  10.632  20.511  0.00  0.00    +0.000 A 
ATOM     14  O   UNL     1      -1.376  12.518  20.664  0.00  0.00    +0.000 OA
ATOM     15  C   UNL     1      -2.738  12.629  21.055  0.00  0.00    +0.000 C 
ATOM     16  C   UNL     1      -2.902  12.644  22.571  0.00  0.00    +0.000 C 
ATOM     17  O   UNL     1      -2.140  11.674  23.300  0.00  0.00    +0.000 OA
ENDBRANCH   6   8
ENDBRANCH   1   7
BRANCH   2  18
ATOM     18  C   UNL     1       3.390   4.451  19.303  0.00  0.00    +0.000 C 
BRANCH  18  19
ATOM     19  O   UNL     1       4.644   5.081  19.105  0.00  0.00    +0.000 OA
BRANCH  19  20
ATOM     20  C   UNL     1       5.189   4.981  17.863  0.00  0.00    +0.000 A 
ATOM     21  C   UNL     1       4.508   4.490  16.745  0.00  0.00    +0.000 A 
ATOM     22  C   UNL     1       5.145   4.415  15.506  0.00  0.00    +0.000 A 
ATOM     23  C   UNL     1       6.478   4.817  15.366  0.00  0.00    +0.000 A 
ATOM     24  C   UNL     1       7.151   4.752  14.027  0.00  0.00    +0.000 C 
ATOM     25  C   UNL     1       7.181   5.277  16.484  0.00  0.00    +0.000 A 
ATOM     26  C   UNL     1       6.526   5.361  17.716  0.00  0.00    +0.000 A 
BRANCH  26  27
ATOM     27  N   UNL     1       7.273   5.867  18.853  0.00  0.00    +0.000 N 
ATOM     28  O   UNL     1       7.971   6.875  18.677  0.00  0.00    +0.000 OA
ATOM     29  O   UNL     1       7.208   5.208  19.899  0.00  0.00    +0.000 OA
ENDBRANCH  26  27
ENDBRANCH  19  20
ENDBRANCH  18  19
ENDBRANCH   2  18
TORSDOF 6
ENDMDL
MODEL 4
REMARK VINA RESULT:      -8.3      6.351      8.513
REMARK  Name = 
REMARK  8 active torsions:
REMARK  status: ('A' for Active; 'I' for Inactive)
REMARK    1  A    between atoms: C_1  and  C_2
REMARK    2  A    between atoms: C_2  and  C_19
REMARK    3  A    between atoms: N_3  and  N_4
REMARK    4  A    between atoms: C_5  and  C_7
REMARK    5  A    between atoms: C_7  and  O_8
REMARK    6  A    between atoms: O_8  and  C_9
REMARK    7  A    between atoms: C_12  and  C_13
REMARK    8  A    between atoms: C_15  and  N_16
REMARK                            x       y       z     vdW  Elec       q    Type
REMARK                         _______ _______ _______ _____ _____    ______ ____
ROOT
ATOM      1  N   UNL     1       2.842   6.844  19.998  0.00  0.00    +0.000 N 
ATOM      2  C   UNL     1       2.390   5.539  20.196  0.00  0.00    +0.000 C 
ATOM      3  O   UNL     1       1.249   5.215  20.519  0.00  0.00    +0.000 OA
ATOM      4  H   UNL     1       3.790   7.019  20.327  0.00  0.00    +0.000 HD
ENDROOT
BRANCH   1   7
ATOM      5  C   UNL     1       2.217   8.558  17.785  0.00  0.00    +0.000 C 
ATOM      6  C   UNL     1       1.656   8.649  19.192  0.00  0.00    +0.000 C 
ATOM      7  N   UNL     1       2.019   7.904  20.197  0.00  0.00    +0.000 NA
BRANCH   6   8
ATOM      8  C   UNL     1       0.644   9.715  19.471  0.00  0.00    +0.000 A 
ATOM      9  C   UNL     1       0.484  10.296  20.734  0.00  0.00    +0.000 A 
ATOM     10  C   UNL     1      -0.584  11.166  20.970  0.00  0.00    +0.000 A 
ATOM     11  C   UNL     1      -1.479  11.465  19.945  0.00  0.00    +0.000 A 
ATOM     12  C   UNL     1      -1.242  10.983  18.663  0.00  0.00    +0.000 A 
ATOM     13  C   UNL     1      -0.196  10.106  18.422  0.00  0.00    +0.000 A 
ATOM     14  O   UNL     1      -2.025  11.326  17.597  0.00  0.00    +0.000 OA
ATOM     15  C   UNL     1      -3.375  11.374  18.039  0.00  0.00    +0.000 C 
ATOM     16  C   UNL     1      -3.557  12.307  19.231  0.00  0.00    +0.000 C 
ATOM     17  O   UNL     1      -2.582  12.198  20.275  0.00  0.00    +0.000 OA
ENDBRANCH   6   8
ENDBRANCH   1   7
BRANCH   2  18
ATOM     18  C   UNL     1       3.462   4.520  19.903  0.00  0.00    +0.000 C 
BRANCH  18  19
ATOM     19  O   UNL     1       4.589   5.254  19.456  0.00  0.00    +0.000 OA
BRANCH  19  20
ATOM     20  C   UNL     1       5.034   4.984  18.199  0.00  0.00    +0.000 A 
ATOM     21  C   UNL     1       4.239   4.447  17.184  0.00  0.00    +0.000 A 
ATOM     22  C   UNL     1       4.778   4.194  15.922  0.00  0.00    +0.000 A 
ATOM     23  C   UNL     1       6.125   4.463  15.658  0.00  0.00    +0.000 A 
ATOM     24  C   UNL     1       6.694   4.207  14.294  0.00  0.00    +0.000 C 
ATOM     25  C   UNL     1       6.941   4.968  16.676  0.00  0.00    +0.000 A 
ATOM     26  C   UNL     1       6.384   5.230  17.931  0.00  0.00    +0.000 A 
BRANCH  26  27
ATOM     27  N   UNL     1       7.248   5.780  18.959  0.00  0.00    +0.000 N 
ATOM     28  O   UNL     1       7.889   6.803  18.683  0.00  0.00    +0.000 OA
ATOM     29  O   UNL     1       7.331   5.140  20.016  0.00  0.00    +0.000 OA
ENDBRANCH  26  27
ENDBRANCH  19  20
ENDBRANCH  18  19
ENDBRANCH   2  18
TORSDOF 6
ENDMDL
MODEL 5
REMARK VINA RESULT:      -8.1      6.437      8.146
REMARK  Name = 
REMARK  8 active torsions:
REMARK  status: ('A' for Active; 'I' for Inactive)
REMARK    1  A    between atoms: C_1  and  C_2
REMARK    2  A    between atoms: C_2  and  C_19
REMARK    3  A    between atoms: N_3  and  N_4
REMARK    4  A    between atoms: C_5  and  C_7
REMARK    5  A    between atoms: C_7  and  O_8
REMARK    6  A    between atoms: O_8  and  C_9
REMARK    7  A    between atoms: C_12  and  C_13
REMARK    8  A    between atoms: C_15  and  N_16
REMARK                            x       y       z     vdW  Elec       q    Type
REMARK                         _______ _______ _______ _____ _____    ______ ____
ROOT
ATOM      1  N   UNL     1       3.218   5.328  18.611  0.00  0.00    +0.000 N 
ATOM      2  C   UNL     1       2.461   4.278  18.090  0.00  0.00    +0.000 C 
ATOM      3  O   UNL     1       1.253   4.116  18.251  0.00  0.00    +0.000 OA
ATOM      4  H   UNL     1       4.150   5.064  18.925  0.00  0.00    +0.000 HD
ENDROOT
BRANCH   1   7
ATOM      5  C   UNL     1       2.854   7.982  17.583  0.00  0.00    +0.000 C 
ATOM      6  C   UNL     1       2.400   7.459  18.934  0.00  0.00    +0.000 C 
ATOM      7  N   UNL     1       2.650   6.271  19.405  0.00  0.00    +0.000 NA
BRANCH   6   8
ATOM      8  C   UNL     1       1.653   8.397  19.829  0.00  0.00    +0.000 A 
ATOM      9  C   UNL     1       1.304   8.073  21.145  0.00  0.00    +0.000 A 
ATOM     10  C   UNL     1       0.468   8.924  21.873  0.00  0.00    +0.000 A 
ATOM     11  C   UNL     1      -0.006  10.099  21.294  0.00  0.00    +0.000 A 
ATOM     12  C   UNL     1       0.445  10.474  20.034  0.00  0.00    +0.000 A 
ATOM     13  C   UNL     1       1.260   9.631  19.297  0.00  0.00    +0.000 A 
ATOM     14  O   UNL     1       0.098  11.664  19.459  0.00  0.00    +0.000 OA
ATOM     15  C   UNL     1      -1.264  11.924  19.771  0.00  0.00    +0.000 C 
ATOM     16  C   UNL     1      -1.526  11.895  21.273  0.00  0.00    +0.000 C 
ATOM     17  O   UNL     1      -0.935  10.809  21.997  0.00  0.00    +0.000 OA
ENDBRANCH   6   8
ENDBRANCH   1   7
BRANCH   2  18
ATOM     18  C   UNL     1       3.288   3.361  17.226  0.00  0.00    +0.000 C 
BRANCH  18  19
ATOM     19  O   UNL     1       4.638   3.729  17.444  0.00  0.00    +0.000 OA
BRANCH  19  20
ATOM     20  C   UNL     1       5.366   4.062  16.344  0.00  0.00    +0.000 A 
ATOM     21  C   UNL     1       5.022   3.705  15.038  0.00  0.00    +0.000 A 
ATOM     22  C   UNL     1       5.829   4.083  13.965  0.00  0.00    +0.000 A 
ATOM     23  C   UNL     1       7.003   4.814  14.181  0.00  0.00    +0.000 A 
ATOM     24  C   UNL     1       7.857   5.234  13.021  0.00  0.00    +0.000 C 
ATOM     25  C   UNL     1       7.377   5.147  15.487  0.00  0.00    +0.000 A 
ATOM     26  C   UNL     1       6.551   4.775  16.551  0.00  0.00    +0.000 A 
BRANCH  26  27
ATOM     27  N   UNL     1       6.951   5.159  17.892  0.00  0.00    +0.000 N 
ATOM     28  O   UNL     1       7.819   4.473  18.450  0.00  0.00    +0.000 OA
ATOM     29  O   UNL     1       6.340   6.106  18.405  0.00  0.00    +0.000 OA
ENDBRANCH  26  27
ENDBRANCH  19  20
ENDBRANCH  18  19
ENDBRANCH   2  18
TORSDOF 6
ENDMDL
MODEL 6
REMARK VINA RESULT:      -8.1      7.668     10.406
REMARK  Name = 
REMARK  8 active torsions:
REMARK  status: ('A' for Active; 'I' for Inactive)
REMARK    1  A    between atoms: C_1  and  C_2
REMARK    2  A    between atoms: C_2  and  C_19
REMARK    3  A    between atoms: N_3  and  N_4
REMARK    4  A    between atoms: C_5  and  C_7
REMARK    5  A    between atoms: C_7  and  O_8
REMARK    6  A    between atoms: O_8  and  C_9
REMARK    7  A    between atoms: C_12  and  C_13
REMARK    8  A    between atoms: C_15  and  N_16
REMARK                            x       y       z     vdW  Elec       q    Type
REMARK                         _______ _______ _______ _____ _____    ______ ____
ROOT
ATOM      1  N   UNL     1       0.721   9.864  18.438  0.00  0.00    +0.000 N 
ATOM      2  C   UNL     1       1.160  11.168  18.667  0.00  0.00    +0.000 C 
ATOM      3  O   UNL     1       2.282  11.602  18.414  0.00  0.00    +0.000 OA
ATOM      4  H   UNL     1       0.108   9.490  19.161  0.00  0.00    +0.000 HD
ENDROOT
BRANCH   1   7
ATOM      5  C   UNL     1       1.838   7.893  20.198  0.00  0.00    +0.000 C 
ATOM      6  C   UNL     1       2.013   7.972  18.693  0.00  0.00    +0.000 C 
ATOM      7  N   UNL     1       1.558   8.925  17.930  0.00  0.00    +0.000 NA
BRANCH   6   8
ATOM      8  C   UNL     1       2.821   6.902  18.028  0.00  0.00    +0.000 A 
ATOM      9  C   UNL     1       2.455   5.552  18.049  0.00  0.00    +0.000 A 
ATOM     10  C   UNL     1       3.332   4.584  17.552  0.00  0.00    +0.000 A 
ATOM     11  C   UNL     1       4.563   4.965  17.023  0.00  0.00    +0.000 A 
ATOM     12  C   UNL     1       4.866   6.316  16.892  0.00  0.00    +0.000 A 
ATOM     13  C   UNL     1       4.011   7.282  17.397  0.00  0.00    +0.000 A 
ATOM     14  O   UNL     1       6.011   6.752  16.286  0.00  0.00    +0.000 OA
ATOM     15  C   UNL     1       7.068   5.878  16.659  0.00  0.00    +0.000 C 
ATOM     16  C   UNL     1       6.749   4.421  16.341  0.00  0.00    +0.000 C 
ATOM     17  O   UNL     1       5.435   3.969  16.693  0.00  0.00    +0.000 OA
ENDBRANCH   6   8
ENDBRANCH   1   7
BRANCH   2  18
ATOM     18  C   UNL     1       0.064  12.044  19.218  0.00  0.00    +0.000 C 
BRANCH  18  19
ATOM     19  O   UNL     1      -0.891  12.177  18.180  0.00  0.00    +0.000 OA
BRANCH  19  20
ATOM     20  C   UNL     1      -2.200  12.097  18.541  0.00  0.00    +0.000 A 
ATOM     21  C   UNL     1      -2.740  12.711  19.674  0.00  0.00    +0.000 A 
ATOM     22  C   UNL     1      -4.095  12.572  19.975  0.00  0.00    +0.000 A 
ATOM     23  C   UNL     1      -4.932  11.807  19.154  0.00  0.00    +0.000 A 
ATOM     24  C   UNL     1      -6.392  11.679  19.472  0.00  0.00    +0.000 C 
ATOM     25  C   UNL     1      -4.396  11.159  18.036  0.00  0.00    +0.000 A 
ATOM     26  C   UNL     1      -3.040  11.319  17.738  0.00  0.00    +0.000 A 
BRANCH  26  27
ATOM     27  N   UNL     1      -2.518  10.657  16.557  0.00  0.00    +0.000 N 
ATOM     28  O   UNL     1      -2.867  11.097  15.453  0.00  0.00    +0.000 OA
ATOM     29  O   UNL     1      -1.816   9.655  16.745  0.00  0.00    +0.000 OA
ENDBRANCH  26  27
ENDBRANCH  19  20
ENDBRANCH  18  19
ENDBRANCH   2  18
TORSDOF 6
ENDMDL
MODEL 7
REMARK VINA RESULT:      -8.0      6.190      8.219
REMARK  Name = 
REMARK  8 active torsions:
REMARK  status: ('A' for Active; 'I' for Inactive)
REMARK    1  A    between atoms: C_1  and  C_2
REMARK    2  A    between atoms: C_2  and  C_19
REMARK    3  A    between atoms: N_3  and  N_4
REMARK    4  A    between atoms: C_5  and  C_7
REMARK    5  A    between atoms: C_7  and  O_8
REMARK    6  A    between atoms: O_8  and  C_9
REMARK    7  A    between atoms: C_12  and  C_13
REMARK    8  A    between atoms: C_15  and  N_16
REMARK                            x       y       z     vdW  Elec       q    Type
REMARK                         _______ _______ _______ _____ _____    ______ ____
ROOT
ATOM      1  N   UNL     1       3.162   5.309  18.623  0.00  0.00    +0.000 N 
ATOM      2  C   UNL     1       2.591   4.360  17.774  0.00  0.00    +0.000 C 
ATOM      3  O   UNL     1       1.417   4.334  17.413  0.00  0.00    +0.000 OA
ATOM      4  H   UNL     1       3.848   4.936  19.276  0.00  0.00    +0.000 HD
ENDROOT
BRANCH   1   7
ATOM      5  C   UNL     1       3.434   7.982  17.619  0.00  0.00    +0.000 C 
ATOM      6  C   UNL     1       2.456   7.503  18.675  0.00  0.00    +0.000 C 
ATOM      7  N   UNL     1       2.409   6.298  19.168  0.00  0.00    +0.000 NA
BRANCH   6   8
ATOM      8  C   UNL     1       1.500   8.503  19.245  0.00  0.00    +0.000 A 
ATOM      9  C   UNL     1       1.207   9.717  18.613  0.00  0.00    +0.000 A 
ATOM     10  C   UNL     1       0.433  10.677  19.272  0.00  0.00    +0.000 A 
ATOM     11  C   UNL     1      -0.056  10.419  20.551  0.00  0.00    +0.000 A 
ATOM     12  C   UNL     1       0.135   9.164  21.120  0.00  0.00    +0.000 A 
ATOM     13  C   UNL     1       0.914   8.213  20.482  0.00  0.00    +0.000 A 
ATOM     14  O   UNL     1      -0.410   8.819  22.324  0.00  0.00    +0.000 OA
ATOM     15  C   UNL     1      -0.329   9.947  23.185  0.00  0.00    +0.000 C 
ATOM     16  C   UNL     1      -0.980  11.183  22.575  0.00  0.00    +0.000 C 
ATOM     17  O   UNL     1      -0.674  11.447  21.200  0.00  0.00    +0.000 OA
ENDBRANCH   6   8
ENDBRANCH   1   7
BRANCH   2  18
ATOM     18  C   UNL     1       3.610   3.367  17.273  0.00  0.00    +0.000 C 
BRANCH  18  19
ATOM     19  O   UNL     1       4.867   4.012  17.373  0.00  0.00    +0.000 OA
BRANCH  19  20
ATOM     20  C   UNL     1       5.523   4.257  16.207  0.00  0.00    +0.000 A 
ATOM     21  C   UNL     1       5.054   3.873  14.948  0.00  0.00    +0.000 A 
ATOM     22  C   UNL     1       5.794   4.160  13.800  0.00  0.00    +0.000 A 
ATOM     23  C   UNL     1       7.021   4.825  13.892  0.00  0.00    +0.000 A 
ATOM     24  C   UNL     1       7.802   5.147  12.653  0.00  0.00    +0.000 C 
ATOM     25  C   UNL     1       7.519   5.184  15.150  0.00  0.00    +0.000 A 
ATOM     26  C   UNL     1       6.760   4.903  16.290  0.00  0.00    +0.000 A 
BRANCH  26  27
ATOM     27  N   UNL     1       7.288   5.312  17.578  0.00  0.00    +0.000 N 
ATOM     28  O   UNL     1       7.481   6.522  17.761  0.00  0.00    +0.000 OA
ATOM     29  O   UNL     1       7.573   4.408  18.375  0.00  0.00    +0.000 OA
ENDBRANCH  26  27
ENDBRANCH  19  20
ENDBRANCH  18  19
ENDBRANCH   2  18
TORSDOF 6
ENDMDL
MODEL 8
REMARK VINA RESULT:      -8.0      7.699     10.452
REMARK  Name = 
REMARK  8 active torsions:
REMARK  status: ('A' for Active; 'I' for Inactive)
REMARK    1  A    between atoms: C_1  and  C_2
REMARK    2  A    between atoms: C_2  and  C_19
REMARK    3  A    between atoms: N_3  and  N_4
REMARK    4  A    between atoms: C_5  and  C_7
REMARK    5  A    between atoms: C_7  and  O_8
REMARK    6  A    between atoms: O_8  and  C_9
REMARK    7  A    between atoms: C_12  and  C_13
REMARK    8  A    between atoms: C_15  and  N_16
REMARK                            x       y       z     vdW  Elec       q    Type
REMARK                         _______ _______ _______ _____ _____    ______ ____
ROOT
ATOM      1  N   UNL     1       0.932   9.851  18.449  0.00  0.00    +0.000 N 
ATOM      2  C   UNL     1       1.353  11.177  18.552  0.00  0.00    +0.000 C 
ATOM      3  O   UNL     1       2.436  11.618  18.175  0.00  0.00    +0.000 OA
ATOM      4  H   UNL     1       0.394   9.513  19.245  0.00  0.00    +0.000 HD
ENDROOT
BRANCH   1   7
ATOM      5  C   UNL     1       1.881   7.752  20.158  0.00  0.00    +0.000 C 
ATOM      6  C   UNL     1       2.127   7.892  18.667  0.00  0.00    +0.000 C 
ATOM      7  N   UNL     1       1.749   8.899  17.932  0.00  0.00    +0.000 NA
BRANCH   6   8
ATOM      8  C   UNL     1       2.916   6.818  17.987  0.00  0.00    +0.000 A 
ATOM      9  C   UNL     1       2.549   5.468  18.025  0.00  0.00    +0.000 A 
ATOM     10  C   UNL     1       3.412   4.496  17.510  0.00  0.00    +0.000 A 
ATOM     11  C   UNL     1       4.630   4.874  16.948  0.00  0.00    +0.000 A 
ATOM     12  C   UNL     1       4.931   6.223  16.802  0.00  0.00    +0.000 A 
ATOM     13  C   UNL     1       4.090   7.193  17.324  0.00  0.00    +0.000 A 
ATOM     14  O   UNL     1       6.060   6.654  16.165  0.00  0.00    +0.000 OA
ATOM     15  C   UNL     1       7.125   5.781  16.515  0.00  0.00    +0.000 C 
ATOM     16  C   UNL     1       6.796   4.323  16.212  0.00  0.00    +0.000 C 
ATOM     17  O   UNL     1       5.491   3.874  16.601  0.00  0.00    +0.000 OA
ENDBRANCH   6   8
ENDBRANCH   1   7
BRANCH   2  18
ATOM     18  C   UNL     1       0.283  12.064  19.138  0.00  0.00    +0.000 C 
BRANCH  18  19
ATOM     19  O   UNL     1      -0.674  11.194  19.717  0.00  0.00    +0.000 OA
BRANCH  19  20
ATOM     20  C   UNL     1      -1.412  11.695  20.744  0.00  0.00    +0.000 A 
ATOM     21  C   UNL     1      -2.356  12.716  20.607  0.00  0.00    +0.000 A 
ATOM     22  C   UNL     1      -3.066  13.176  21.717  0.00  0.00    +0.000 A 
ATOM     23  C   UNL     1      -2.834  12.632  22.985  0.00  0.00    +0.000 A 
ATOM     24  C   UNL     1      -3.614  13.117  24.171  0.00  0.00    +0.000 C 
ATOM     25  C   UNL     1      -1.866  11.634  23.142  0.00  0.00    +0.000 A 
ATOM     26  C   UNL     1      -1.173  11.172  22.019  0.00  0.00    +0.000 A 
BRANCH  26  27
ATOM     27  N   UNL     1      -0.195  10.117  22.207  0.00  0.00    +0.000 N 
ATOM     28  O   UNL     1      -0.617   8.959  22.328  0.00  0.00    +0.000 OA
ATOM     29  O   UNL     1       0.989  10.467  22.303  0.00  0.00    +0.000 OA
ENDBRANCH  26  27
ENDBRANCH  19  20
ENDBRANCH  18  19
ENDBRANCH   2  18
TORSDOF 6
ENDMDL
MODEL 9
REMARK VINA RESULT:      -8.0      6.513      7.982
REMARK  Name = 
REMARK  8 active torsions:
REMARK  status: ('A' for Active; 'I' for Inactive)
REMARK    1  A    between atoms: C_1  and  C_2
REMARK    2  A    between atoms: C_2  and  C_19
REMARK    3  A    between atoms: N_3  and  N_4
REMARK    4  A    between atoms: C_5  and  C_7
REMARK    5  A    between atoms: C_7  and  O_8
REMARK    6  A    between atoms: O_8  and  C_9
REMARK    7  A    between atoms: C_12  and  C_13
REMARK    8  A    between atoms: C_15  and  N_16
REMARK                            x       y       z     vdW  Elec       q    Type
REMARK                         _______ _______ _______ _____ _____    ______ ____
ROOT
ATOM      1  N   UNL     1       3.204   5.372  18.167  0.00  0.00    +0.000 N 
ATOM      2  C   UNL     1       2.470   4.332  17.596  0.00  0.00    +0.000 C 
ATOM      3  O   UNL     1       1.259   4.340  17.384  0.00  0.00    +0.000 OA
ATOM      4  H   UNL     1       3.944   5.073  18.799  0.00  0.00    +0.000 HD
ENDROOT
BRANCH   1   7
ATOM      5  C   UNL     1       2.151   5.488  20.833  0.00  0.00    +0.000 C 
ATOM      6  C   UNL     1       2.179   6.615  19.816  0.00  0.00    +0.000 C 
ATOM      7  N   UNL     1       2.592   6.509  18.585  0.00  0.00    +0.000 NA
BRANCH   6   8
ATOM      8  C   UNL     1       1.637   7.945  20.235  0.00  0.00    +0.000 A 
ATOM      9  C   UNL     1       1.253   8.226  21.551  0.00  0.00    +0.000 A 
ATOM     10  C   UNL     1       0.605   9.430  21.846  0.00  0.00    +0.000 A 
ATOM     11  C   UNL     1       0.354  10.352  20.832  0.00  0.00    +0.000 A 
ATOM     12  C   UNL     1       0.849  10.120  19.554  0.00  0.00    +0.000 A 
ATOM     13  C   UNL     1       1.477   8.923  19.248  0.00  0.00    +0.000 A 
ATOM     14  O   UNL     1       0.725  11.035  18.546  0.00  0.00    +0.000 OA
ATOM     15  C   UNL     1      -0.558  11.637  18.652  0.00  0.00    +0.000 C 
ATOM     16  C   UNL     1      -0.797  12.242  20.031  0.00  0.00    +0.000 C 
ATOM     17  O   UNL     1      -0.412  11.435  21.152  0.00  0.00    +0.000 OA
ENDBRANCH   6   8
ENDBRANCH   1   7
BRANCH   2  18
ATOM     18  C   UNL     1       3.350   3.177  17.190  0.00  0.00    +0.000 C 
BRANCH  18  19
ATOM     19  O   UNL     1       4.682   3.602  17.415  0.00  0.00    +0.000 OA
BRANCH  19  20
ATOM     20  C   UNL     1       5.398   3.972  16.319  0.00  0.00    +0.000 A 
ATOM     21  C   UNL     1       5.059   3.628  15.008  0.00  0.00    +0.000 A 
ATOM     22  C   UNL     1       5.854   4.044  13.939  0.00  0.00    +0.000 A 
ATOM     23  C   UNL     1       7.009   4.802  14.164  0.00  0.00    +0.000 A 
ATOM     24  C   UNL     1       7.848   5.263  13.010  0.00  0.00    +0.000 C 
ATOM     25  C   UNL     1       7.378   5.124  15.475  0.00  0.00    +0.000 A 
ATOM     26  C   UNL     1       6.565   4.713  16.534  0.00  0.00    +0.000 A 
BRANCH  26  27
ATOM     27  N   UNL     1       6.958   5.085  17.881  0.00  0.00    +0.000 N 
ATOM     28  O   UNL     1       6.362   6.032  18.411  0.00  0.00    +0.000 OA
ATOM     29  O   UNL     1       7.913   4.468  18.372  0.00  0.00    +0.000 OA
ENDBRANCH  26  27
ENDBRANCH  19  20
ENDBRANCH  18  19
ENDBRANCH   2  18
TORSDOF 6
ENDMDL
