MODEL 1
REMARK VINA RESULT:      -8.4      0.000      0.000
REMARK  Name = 
REMARK  3 active torsions:
REMARK  status: ('A' for Active; 'I' for Inactive)
REMARK    1  A    between atoms: C_9  and  N_10
REMARK    2  A    between atoms: N_10  and  C_11
REMARK    3  A    between atoms: N_18  and  C_19
REMARK                            x       y       z     vdW  Elec       q    Type
REMARK                         _______ _______ _______ _____ _____    ______ ____
ROOT
ATOM      1  O   UNL     1       4.959   3.127  17.289  0.00  0.00    +0.000 OA
ATOM      2  C   UNL     1       4.202   3.882  17.879  0.00  0.00    +0.000 C 
ATOM      3  C   UNL     1       2.917   3.416  18.384  0.00  0.00    +0.000 A 
ATOM      4  C   UNL     1       2.362   2.154  18.259  0.00  0.00    +0.000 A 
ATOM      5  C   UNL     1       1.109   1.948  18.828  0.00  0.00    +0.000 A 
ATOM      6  C   UNL     1       0.454   2.996  19.498  0.00  0.00    +0.000 A 
ATOM      7  C   UNL     1       1.051   4.257  19.622  0.00  0.00    +0.000 A 
ATOM      8  C   UNL     1       2.304   4.460  19.059  0.00  0.00    +0.000 A 
ATOM      9  C   UNL     1       3.207   5.665  19.054  0.00  0.00    +0.000 C 
ATOM     10  N   UNL     1       4.346   5.223  18.251  0.00  0.00    +0.000 N 
ENDROOT
BRANCH  10  11
ATOM     11  C   UNL     1       5.549   5.973  18.076  0.00  0.00    +0.000 A 
ATOM     12  C   UNL     1       6.676   5.750  18.877  0.00  0.00    +0.000 A 
ATOM     13  C   UNL     1       7.853   6.472  18.680  0.00  0.00    +0.000 A 
ATOM     14  C   UNL     1       7.882   7.412  17.672  0.00  0.00    +0.000 A 
ATOM     15  N   UNL     1       6.826   7.680  16.878  0.00  0.00    +0.000 NA
ATOM     16  C   UNL     1       5.692   6.963  17.103  0.00  0.00    +0.000 A 
ENDBRANCH  10  11
BRANCH   9  17
ATOM     17  N   UNL     1       2.536   6.786  18.401  0.00  0.00    +0.000 N 
ATOM     18  H   UNL     1       3.139   7.215  17.704  0.00  0.00    +0.000 HD
BRANCH  17  19
ATOM     19  C   UNL     1       1.988   7.783  19.238  0.00  0.00    +0.000 A 
ATOM     20  C   UNL     1       1.820   7.482  20.598  0.00  0.00    +0.000 A 
ATOM     21  C   UNL     1       1.309   8.434  21.493  0.00  0.00    +0.000 A 
ATOM     22  C   UNL     1       0.922   9.690  21.037  0.00  0.00    +0.000 A 
ATOM     23  C   UNL     1       1.000   9.979  19.679  0.00  0.00    +0.000 A 
ATOM     24  C   UNL     1       1.500   9.023  18.795  0.00  0.00    +0.000 A 
ATOM     25  F   UNL     1       1.495   9.327  17.489  0.00  0.00    +0.000 F 
ENDBRANCH  17  19
ENDBRANCH   9  17
TORSDOF 3
ENDMDL
MODEL 2
REMARK VINA RESULT:      -7.8      2.502      5.527
REMARK  Name = 
REMARK  3 active torsions:
REMARK  status: ('A' for Active; 'I' for Inactive)
REMARK    1  A    between atoms: C_9  and  N_10
REMARK    2  A    between atoms: N_10  and  C_11
REMARK    3  A    between atoms: N_18  and  C_19
REMARK                            x       y       z     vdW  Elec       q    Type
REMARK                         _______ _______ _______ _____ _____    ______ ____
ROOT
ATOM      1  O   UNL     1       1.050   5.346  20.786  0.00  0.00    +0.000 OA
ATOM      2  C   UNL     1       1.824   5.273  19.845  0.00  0.00    +0.000 C 
ATOM      3  C   UNL     1       2.300   3.983  19.363  0.00  0.00    +0.000 A 
ATOM      4  C   UNL     1       2.012   2.727  19.869  0.00  0.00    +0.000 A 
ATOM      5  C   UNL     1       2.594   1.634  19.233  0.00  0.00    +0.000 A 
ATOM      6  C   UNL     1       3.436   1.824  18.124  0.00  0.00    +0.000 A 
ATOM      7  C   UNL     1       3.693   3.108  17.625  0.00  0.00    +0.000 A 
ATOM      8  C   UNL     1       3.108   4.197  18.257  0.00  0.00    +0.000 A 
ATOM      9  C   UNL     1       3.158   5.669  17.944  0.00  0.00    +0.000 C 
ATOM     10  N   UNL     1       2.366   6.265  19.020  0.00  0.00    +0.000 N 
ENDROOT
BRANCH  10  11
ATOM     11  C   UNL     1       1.995   7.642  19.082  0.00  0.00    +0.000 A 
ATOM     12  C   UNL     1       2.031   8.463  17.948  0.00  0.00    +0.000 A 
ATOM     13  C   UNL     1       1.642   9.802  18.016  0.00  0.00    +0.000 A 
ATOM     14  C   UNL     1       1.217  10.298  19.231  0.00  0.00    +0.000 A 
ATOM     15  N   UNL     1       1.175   9.560  20.358  0.00  0.00    +0.000 NA
ATOM     16  C   UNL     1       1.568   8.262  20.257  0.00  0.00    +0.000 A 
ENDBRANCH  10  11
BRANCH   9  17
ATOM     17  N   UNL     1       4.537   6.146  18.012  0.00  0.00    +0.000 N 
ATOM     18  H   UNL     1       4.571   7.161  18.027  0.00  0.00    +0.000 HD
BRANCH  17  19
ATOM     19  C   UNL     1       5.436   5.652  17.041  0.00  0.00    +0.000 A 
ATOM     20  C   UNL     1       5.073   5.761  15.691  0.00  0.00    +0.000 A 
ATOM     21  C   UNL     1       5.929   5.319  14.672  0.00  0.00    +0.000 A 
ATOM     22  C   UNL     1       7.147   4.725  14.986  0.00  0.00    +0.000 A 
ATOM     23  C   UNL     1       7.488   4.529  16.320  0.00  0.00    +0.000 A 
ATOM     24  C   UNL     1       6.627   4.963  17.326  0.00  0.00    +0.000 A 
ATOM     25  F   UNL     1       6.972   4.694  18.594  0.00  0.00    +0.000 F 
ENDBRANCH  17  19
ENDBRANCH   9  17
TORSDOF 3
ENDMDL
MODEL 3
REMARK VINA RESULT:      -7.7      2.137      2.846
REMARK  Name = 
REMARK  3 active torsions:
REMARK  status: ('A' for Active; 'I' for Inactive)
REMARK    1  A    between atoms: C_9  and  N_10
REMARK    2  A    between atoms: N_10  and  C_11
REMARK    3  A    between atoms: N_18  and  C_19
REMARK                            x       y       z     vdW  Elec       q    Type
REMARK                         _______ _______ _______ _____ _____    ______ ____
ROOT
ATOM      1  O   UNL     1       2.424   3.161  16.411  0.00  0.00    +0.000 OA
ATOM      2  C   UNL     1       2.901   3.479  17.490  0.00  0.00    +0.000 C 
ATOM      3  C   UNL     1       2.187   3.218  18.733  0.00  0.00    +0.000 A 
ATOM      4  C   UNL     1       0.935   2.650  18.891  0.00  0.00    +0.000 A 
ATOM      5  C   UNL     1       0.459   2.505  20.192  0.00  0.00    +0.000 A 
ATOM      6  C   UNL     1       1.238   2.927  21.282  0.00  0.00    +0.000 A 
ATOM      7  C   UNL     1       2.510   3.483  21.089  0.00  0.00    +0.000 A 
ATOM      8  C   UNL     1       2.986   3.622  19.792  0.00  0.00    +0.000 A 
ATOM      9  C   UNL     1       4.300   4.137  19.267  0.00  0.00    +0.000 C 
ATOM     10  N   UNL     1       4.134   4.054  17.817  0.00  0.00    +0.000 N 
ENDROOT
BRANCH  10  11
ATOM     11  C   UNL     1       5.174   4.297  16.870  0.00  0.00    +0.000 A 
ATOM     12  C   UNL     1       4.906   4.434  15.503  0.00  0.00    +0.000 A 
ATOM     13  C   UNL     1       5.928   4.697  14.590  0.00  0.00    +0.000 A 
ATOM     14  C   UNL     1       7.215   4.821  15.070  0.00  0.00    +0.000 A 
ATOM     15  N   UNL     1       7.537   4.685  16.372  0.00  0.00    +0.000 NA
ATOM     16  C   UNL     1       6.517   4.422  17.232  0.00  0.00    +0.000 A 
ENDBRANCH  10  11
BRANCH   9  17
ATOM     17  N   UNL     1       4.487   5.527  19.674  0.00  0.00    +0.000 N 
ATOM     18  H   UNL     1       4.494   5.612  20.687  0.00  0.00    +0.000 HD
BRANCH  17  19
ATOM     19  C   UNL     1       3.607   6.483  19.119  0.00  0.00    +0.000 A 
ATOM     20  C   UNL     1       3.989   7.116  17.928  0.00  0.00    +0.000 A 
ATOM     21  C   UNL     1       3.152   8.054  17.305  0.00  0.00    +0.000 A 
ATOM     22  C   UNL     1       1.935   8.402  17.882  0.00  0.00    +0.000 A 
ATOM     23  C   UNL     1       1.577   7.850  19.107  0.00  0.00    +0.000 A 
ATOM     24  C   UNL     1       2.419   6.925  19.724  0.00  0.00    +0.000 A 
ATOM     25  F   UNL     1       2.059   6.471  20.932  0.00  0.00    +0.000 F 
ENDBRANCH  17  19
ENDBRANCH   9  17
TORSDOF 3
ENDMDL
MODEL 4
REMARK VINA RESULT:      -7.7      0.973      1.374
REMARK  Name = 
REMARK  3 active torsions:
REMARK  status: ('A' for Active; 'I' for Inactive)
REMARK    1  A    between atoms: C_9  and  N_10
REMARK    2  A    between atoms: N_10  and  C_11
REMARK    3  A    between atoms: N_18  and  C_19
REMARK                            x       y       z     vdW  Elec       q    Type
REMARK                         _______ _______ _______ _____ _____    ______ ____
ROOT
ATOM      1  O   UNL     1       5.142   3.071  17.341  0.00  0.00    +0.000 OA
ATOM      2  C   UNL     1       4.331   3.823  17.859  0.00  0.00    +0.000 C 
ATOM      3  C   UNL     1       3.030   3.336  18.299  0.00  0.00    +0.000 A 
ATOM      4  C   UNL     1       2.517   2.056  18.182  0.00  0.00    +0.000 A 
ATOM      5  C   UNL     1       1.236   1.832  18.680  0.00  0.00    +0.000 A 
ATOM      6  C   UNL     1       0.515   2.881  19.274  0.00  0.00    +0.000 A 
ATOM      7  C   UNL     1       1.070   4.163  19.394  0.00  0.00    +0.000 A 
ATOM      8  C   UNL     1       2.349   4.383  18.901  0.00  0.00    +0.000 A 
ATOM      9  C   UNL     1       3.219   5.612  18.913  0.00  0.00    +0.000 C 
ATOM     10  N   UNL     1       4.417   5.178  18.196  0.00  0.00    +0.000 N 
ENDROOT
BRANCH  10  11
ATOM     11  C   UNL     1       5.608   5.955  18.070  0.00  0.00    +0.000 A 
ATOM     12  C   UNL     1       6.708   5.754  18.913  0.00  0.00    +0.000 A 
ATOM     13  C   UNL     1       7.876   6.503  18.764  0.00  0.00    +0.000 A 
ATOM     14  C   UNL     1       7.922   7.448  17.761  0.00  0.00    +0.000 A 
ATOM     15  N   UNL     1       6.891   7.696  16.929  0.00  0.00    +0.000 NA
ATOM     16  C   UNL     1       5.765   6.953  17.107  0.00  0.00    +0.000 A 
ENDBRANCH  10  11
BRANCH   9  17
ATOM     17  N   UNL     1       2.560   6.693  18.184  0.00  0.00    +0.000 N 
ATOM     18  H   UNL     1       3.175   7.080  17.474  0.00  0.00    +0.000 HD
BRANCH  17  19
ATOM     19  C   UNL     1       1.999   7.737  18.953  0.00  0.00    +0.000 A 
ATOM     20  C   UNL     1       1.772   8.970  18.323  0.00  0.00    +0.000 A 
ATOM     21  C   UNL     1       1.191  10.041  19.017  0.00  0.00    +0.000 A 
ATOM     22  C   UNL     1       0.861   9.912  20.363  0.00  0.00    +0.000 A 
ATOM     23  C   UNL     1       1.157   8.726  21.027  0.00  0.00    +0.000 A 
ATOM     24  C   UNL     1       1.743   7.669  20.332  0.00  0.00    +0.000 A 
ATOM     25  F   UNL     1       2.066   6.573  21.033  0.00  0.00    +0.000 F 
ENDBRANCH  17  19
ENDBRANCH   9  17
TORSDOF 3
ENDMDL
MODEL 5
REMARK VINA RESULT:      -7.5      2.155      5.345
REMARK  Name = 
REMARK  3 active torsions:
REMARK  status: ('A' for Active; 'I' for Inactive)
REMARK    1  A    between atoms: C_9  and  N_10
REMARK    2  A    between atoms: N_10  and  C_11
REMARK    3  A    between atoms: N_18  and  C_19
REMARK                            x       y       z     vdW  Elec       q    Type
REMARK                         _______ _______ _______ _____ _____    ______ ____
ROOT
ATOM      1  O   UNL     1       1.033   5.248  20.773  0.00  0.00    +0.000 OA
ATOM      2  C   UNL     1       1.804   5.257  19.825  0.00  0.00    +0.000 C 
ATOM      3  C   UNL     1       2.306   4.014  19.255  0.00  0.00    +0.000 A 
ATOM      4  C   UNL     1       2.049   2.720  19.675  0.00  0.00    +0.000 A 
ATOM      5  C   UNL     1       2.652   1.686  18.964  0.00  0.00    +0.000 A 
ATOM      6  C   UNL     1       3.483   1.970  17.867  0.00  0.00    +0.000 A 
ATOM      7  C   UNL     1       3.709   3.291  17.456  0.00  0.00    +0.000 A 
ATOM      8  C   UNL     1       3.103   4.321  18.162  0.00  0.00    +0.000 A 
ATOM      9  C   UNL     1       3.118   5.812  17.951  0.00  0.00    +0.000 C 
ATOM     10  N   UNL     1       2.319   6.314  19.068  0.00  0.00    +0.000 N 
ENDROOT
BRANCH  10  11
ATOM     11  C   UNL     1       1.917   7.675  19.225  0.00  0.00    +0.000 A 
ATOM     12  C   UNL     1       1.856   8.553  18.135  0.00  0.00    +0.000 A 
ATOM     13  C   UNL     1       1.438   9.874  18.297  0.00  0.00    +0.000 A 
ATOM     14  C   UNL     1       1.083  10.296  19.561  0.00  0.00    +0.000 A 
ATOM     15  N   UNL     1       1.135   9.503  20.649  0.00  0.00    +0.000 NA
ATOM     16  C   UNL     1       1.555   8.223  20.456  0.00  0.00    +0.000 A 
ENDBRANCH  10  11
BRANCH   9  17
ATOM     17  N   UNL     1       4.486   6.313  18.045  0.00  0.00    +0.000 N 
ATOM     18  H   UNL     1       4.505   7.329  18.005  0.00  0.00    +0.000 HD
BRANCH  17  19
ATOM     19  C   UNL     1       5.430   5.781  17.139  0.00  0.00    +0.000 A 
ATOM     20  C   UNL     1       6.488   5.022  17.660  0.00  0.00    +0.000 A 
ATOM     21  C   UNL     1       7.445   4.438  16.817  0.00  0.00    +0.000 A 
ATOM     22  C   UNL     1       7.382   4.634  15.441  0.00  0.00    +0.000 A 
ATOM     23  C   UNL     1       6.391   5.454  14.912  0.00  0.00    +0.000 A 
ATOM     24  C   UNL     1       5.450   6.038  15.758  0.00  0.00    +0.000 A 
ATOM     25  F   UNL     1       4.555   6.870  15.207  0.00  0.00    +0.000 F 
ENDBRANCH  17  19
ENDBRANCH   9  17
TORSDOF 3
ENDMDL
MODEL 6
REMARK VINA RESULT:      -7.5      2.096      2.731
REMARK  Name = 
REMARK  3 active torsions:
REMARK  status: ('A' for Active; 'I' for Inactive)
REMARK    1  A    between atoms: C_9  and  N_10
REMARK    2  A    between atoms: N_10  and  C_11
REMARK    3  A    between atoms: N_18  and  C_19
REMARK                            x       y       z     vdW  Elec       q    Type
REMARK                         _______ _______ _______ _____ _____    ______ ____
ROOT
ATOM      1  O   UNL     1       2.404   3.212  16.347  0.00  0.00    +0.000 OA
ATOM      2  C   UNL     1       2.951   3.530  17.392  0.00  0.00    +0.000 C 
ATOM      3  C   UNL     1       2.296   3.323  18.677  0.00  0.00    +0.000 A 
ATOM      4  C   UNL     1       1.033   2.810  18.914  0.00  0.00    +0.000 A 
ATOM      5  C   UNL     1       0.622   2.710  20.240  0.00  0.00    +0.000 A 
ATOM      6  C   UNL     1       1.476   3.120  21.278  0.00  0.00    +0.000 A 
ATOM      7  C   UNL     1       2.756   3.620  21.006  0.00  0.00    +0.000 A 
ATOM      8  C   UNL     1       3.166   3.714  19.683  0.00  0.00    +0.000 A 
ATOM      9  C   UNL     1       4.469   4.164  19.078  0.00  0.00    +0.000 C 
ATOM     10  N   UNL     1       4.222   4.061  17.640  0.00  0.00    +0.000 N 
ENDROOT
BRANCH  10  11
ATOM     11  C   UNL     1       5.218   4.243  16.634  0.00  0.00    +0.000 A 
ATOM     12  C   UNL     1       4.894   4.251  15.272  0.00  0.00    +0.000 A 
ATOM     13  C   UNL     1       5.873   4.455  14.299  0.00  0.00    +0.000 A 
ATOM     14  C   UNL     1       7.174   4.651  14.713  0.00  0.00    +0.000 A 
ATOM     15  N   UNL     1       7.549   4.639  16.008  0.00  0.00    +0.000 NA
ATOM     16  C   UNL     1       6.570   4.430  16.929  0.00  0.00    +0.000 A 
ENDBRANCH  10  11
BRANCH   9  17
ATOM     17  N   UNL     1       4.734   5.553  19.444  0.00  0.00    +0.000 N 
ATOM     18  H   UNL     1       4.957   5.633  20.432  0.00  0.00    +0.000 HD
BRANCH  17  19
ATOM     19  C   UNL     1       3.752   6.507  19.097  0.00  0.00    +0.000 A 
ATOM     20  C   UNL     1       2.640   6.645  19.940  0.00  0.00    +0.000 A 
ATOM     21  C   UNL     1       1.641   7.592  19.674  0.00  0.00    +0.000 A 
ATOM     22  C   UNL     1       1.716   8.394  18.538  0.00  0.00    +0.000 A 
ATOM     23  C   UNL     1       2.766   8.214  17.644  0.00  0.00    +0.000 A 
ATOM     24  C   UNL     1       3.750   7.263  17.912  0.00  0.00    +0.000 A 
ATOM     25  F   UNL     1       4.705   7.084  16.989  0.00  0.00    +0.000 F 
ENDBRANCH  17  19
ENDBRANCH   9  17
TORSDOF 3
ENDMDL
MODEL 7
REMARK VINA RESULT:      -7.5      2.599      5.474
REMARK  Name = 
REMARK  3 active torsions:
REMARK  status: ('A' for Active; 'I' for Inactive)
REMARK    1  A    between atoms: C_9  and  N_10
REMARK    2  A    between atoms: N_10  and  C_11
REMARK    3  A    between atoms: N_18  and  C_19
REMARK                            x       y       z     vdW  Elec       q    Type
REMARK                         _______ _______ _______ _____ _____    ______ ____
ROOT
ATOM      1  O   UNL     1       0.984   6.515  21.384  0.00  0.00    +0.000 OA
ATOM      2  C   UNL     1       1.775   6.151  20.527  0.00  0.00    +0.000 C 
ATOM      3  C   UNL     1       2.245   4.773  20.476  0.00  0.00    +0.000 A 
ATOM      4  C   UNL     1       1.934   3.736  21.338  0.00  0.00    +0.000 A 
ATOM      5  C   UNL     1       2.516   2.497  21.082  0.00  0.00    +0.000 A 
ATOM      6  C   UNL     1       3.379   2.332  19.986  0.00  0.00    +0.000 A 
ATOM      7  C   UNL     1       3.660   3.399  19.121  0.00  0.00    +0.000 A 
ATOM      8  C   UNL     1       3.076   4.632  19.374  0.00  0.00    +0.000 A 
ATOM      9  C   UNL     1       3.147   5.936  18.625  0.00  0.00    +0.000 C 
ATOM     10  N   UNL     1       2.343   6.838  19.449  0.00  0.00    +0.000 N 
ENDROOT
BRANCH  10  11
ATOM     11  C   UNL     1       1.986   8.169  19.076  0.00  0.00    +0.000 A 
ATOM     12  C   UNL     1       1.266   9.005  19.939  0.00  0.00    +0.000 A 
ATOM     13  C   UNL     1       0.945  10.313  19.573  0.00  0.00    +0.000 A 
ATOM     14  C   UNL     1       1.357  10.765  18.337  0.00  0.00    +0.000 A 
ATOM     15  N   UNL     1       2.039  10.003  17.459  0.00  0.00    +0.000 NA
ATOM     16  C   UNL     1       2.329   8.731  17.845  0.00  0.00    +0.000 A 
ENDBRANCH  10  11
BRANCH   9  17
ATOM     17  N   UNL     1       4.530   6.403  18.572  0.00  0.00    +0.000 N 
ATOM     18  H   UNL     1       4.570   7.416  18.489  0.00  0.00    +0.000 HD
BRANCH  17  19
ATOM     19  C   UNL     1       5.372   5.811  17.604  0.00  0.00    +0.000 A 
ATOM     20  C   UNL     1       4.919   5.763  16.278  0.00  0.00    +0.000 A 
ATOM     21  C   UNL     1       5.714   5.217  15.260  0.00  0.00    +0.000 A 
ATOM     22  C   UNL     1       6.960   4.673  15.556  0.00  0.00    +0.000 A 
ATOM     23  C   UNL     1       7.391   4.633  16.878  0.00  0.00    +0.000 A 
ATOM     24  C   UNL     1       6.590   5.171  17.885  0.00  0.00    +0.000 A 
ATOM     25  F   UNL     1       7.022   5.050  19.148  0.00  0.00    +0.000 F 
ENDBRANCH  17  19
ENDBRANCH   9  17
TORSDOF 3
ENDMDL
MODEL 8
REMARK VINA RESULT:      -7.5      3.524      5.408
REMARK  Name = 
REMARK  3 active torsions:
REMARK  status: ('A' for Active; 'I' for Inactive)
REMARK    1  A    between atoms: C_9  and  N_10
REMARK    2  A    between atoms: N_10  and  C_11
REMARK    3  A    between atoms: N_18  and  C_19
REMARK                            x       y       z     vdW  Elec       q    Type
REMARK                         _______ _______ _______ _____ _____    ______ ____
ROOT
ATOM      1  O   UNL     1       8.520   5.805  14.068  0.00  0.00    +0.000 OA
ATOM      2  C   UNL     1       7.495   5.193  14.322  0.00  0.00    +0.000 C 
ATOM      3  C   UNL     1       6.795   4.439  13.290  0.00  0.00    +0.000 A 
ATOM      4  C   UNL     1       7.122   4.326  11.949  0.00  0.00    +0.000 A 
ATOM      5  C   UNL     1       6.291   3.544  11.152  0.00  0.00    +0.000 A 
ATOM      6  C   UNL     1       5.172   2.903  11.711  0.00  0.00    +0.000 A 
ATOM      7  C   UNL     1       4.878   3.022  13.076  0.00  0.00    +0.000 A 
ATOM      8  C   UNL     1       5.710   3.799  13.871  0.00  0.00    +0.000 A 
ATOM      9  C   UNL     1       5.686   4.087  15.348  0.00  0.00    +0.000 C 
ATOM     10  N   UNL     1       6.809   5.006  15.527  0.00  0.00    +0.000 N 
ENDROOT
BRANCH  10  11
ATOM     11  C   UNL     1       7.289   5.457  16.793  0.00  0.00    +0.000 A 
ATOM     12  C   UNL     1       7.462   6.819  17.071  0.00  0.00    +0.000 A 
ATOM     13  C   UNL     1       7.908   7.249  18.321  0.00  0.00    +0.000 A 
ATOM     14  C   UNL     1       8.174   6.297  19.282  0.00  0.00    +0.000 A 
ATOM     15  N   UNL     1       8.041   4.972  19.069  0.00  0.00    +0.000 NA
ATOM     16  C   UNL     1       7.611   4.588  17.837  0.00  0.00    +0.000 A 
ENDBRANCH  10  11
BRANCH   9  17
ATOM     17  N   UNL     1       4.433   4.750  15.704  0.00  0.00    +0.000 N 
ATOM     18  H   UNL     1       4.448   5.728  15.430  0.00  0.00    +0.000 HD
BRANCH  17  19
ATOM     19  C   UNL     1       4.004   4.635  17.045  0.00  0.00    +0.000 A 
ATOM     20  C   UNL     1       3.565   3.380  17.491  0.00  0.00    +0.000 A 
ATOM     21  C   UNL     1       3.153   3.186  18.818  0.00  0.00    +0.000 A 
ATOM     22  C   UNL     1       3.137   4.252  19.712  0.00  0.00    +0.000 A 
ATOM     23  C   UNL     1       3.487   5.522  19.267  0.00  0.00    +0.000 A 
ATOM     24  C   UNL     1       3.886   5.708  17.944  0.00  0.00    +0.000 A 
ATOM     25  F   UNL     1       4.152   6.961  17.549  0.00  0.00    +0.000 F 
ENDBRANCH  17  19
ENDBRANCH   9  17
TORSDOF 3
ENDMDL
MODEL 9
REMARK VINA RESULT:      -7.5      1.892      4.566
REMARK  Name = 
REMARK  3 active torsions:
REMARK  status: ('A' for Active; 'I' for Inactive)
REMARK    1  A    between atoms: C_9  and  N_10
REMARK    2  A    between atoms: N_10  and  C_11
REMARK    3  A    between atoms: N_18  and  C_19
REMARK                            x       y       z     vdW  Elec       q    Type
REMARK                         _______ _______ _______ _____ _____    ______ ____
ROOT
ATOM      1  O   UNL     1       4.705   2.151  17.972  0.00  0.00    +0.000 OA
ATOM      2  C   UNL     1       4.389   3.321  17.828  0.00  0.00    +0.000 C 
ATOM      3  C   UNL     1       4.934   4.117  16.736  0.00  0.00    +0.000 A 
ATOM      4  C   UNL     1       5.855   3.730  15.778  0.00  0.00    +0.000 A 
ATOM      5  C   UNL     1       6.229   4.678  14.829  0.00  0.00    +0.000 A 
ATOM      6  C   UNL     1       5.677   5.970  14.864  0.00  0.00    +0.000 A 
ATOM      7  C   UNL     1       4.733   6.326  15.837  0.00  0.00    +0.000 A 
ATOM      8  C   UNL     1       4.358   5.378  16.779  0.00  0.00    +0.000 A 
ATOM      9  C   UNL     1       3.360   5.439  17.905  0.00  0.00    +0.000 C 
ATOM     10  N   UNL     1       3.486   4.124  18.533  0.00  0.00    +0.000 N 
ENDROOT
BRANCH  10  11
ATOM     11  C   UNL     1       2.633   3.640  19.570  0.00  0.00    +0.000 A 
ATOM     12  C   UNL     1       1.257   3.475  19.371  0.00  0.00    +0.000 A 
ATOM     13  C   UNL     1       0.437   2.977  20.384  0.00  0.00    +0.000 A 
ATOM     14  C   UNL     1       1.017   2.648  21.591  0.00  0.00    +0.000 A 
ATOM     15  N   UNL     1       2.332   2.799  21.847  0.00  0.00    +0.000 NA
ATOM     16  C   UNL     1       3.100   3.293  20.839  0.00  0.00    +0.000 A 
ENDBRANCH  10  11
BRANCH   9  17
ATOM     17  N   UNL     1       3.741   6.486  18.850  0.00  0.00    +0.000 N 
ATOM     18  H   UNL     1       4.189   6.090  19.671  0.00  0.00    +0.000 HD
BRANCH  17  19
ATOM     19  C   UNL     1       2.731   7.391  19.246  0.00  0.00    +0.000 A 
ATOM     20  C   UNL     1       2.131   7.201  20.499  0.00  0.00    +0.000 A 
ATOM     21  C   UNL     1       1.143   8.078  20.970  0.00  0.00    +0.000 A 
ATOM     22  C   UNL     1       0.711   9.140  20.180  0.00  0.00    +0.000 A 
ATOM     23  C   UNL     1       1.232   9.296  18.900  0.00  0.00    +0.000 A 
ATOM     24  C   UNL     1       2.208   8.413  18.437  0.00  0.00    +0.000 A 
ATOM     25  F   UNL     1       2.631   8.568  17.174  0.00  0.00    +0.000 F 
ENDBRANCH  17  19
ENDBRANCH   9  17
TORSDOF 3
ENDMDL
