MODEL 1
REMARK VINA RESULT:      -8.1      0.000      0.000
REMARK  Name = 
REMARK  8 active torsions:
REMARK  status: ('A' for Active; 'I' for Inactive)
REMARK    1  A    between atoms: C_1  and  C_2
REMARK    2  A    between atoms: C_4  and  N_5
REMARK    3  A    between atoms: C_7  and  C_8
REMARK    4  A    between atoms: C_9  and  C_10
REMARK    5  A    between atoms: C_10  and  N_11
REMARK    6  A    between atoms: C_12  and  C_14
REMARK    7  A    between atoms: N_17  and  C_18
REMARK    8  A    between atoms: C_18  and  C_19
REMARK                            x       y       z     vdW  Elec       q    Type
REMARK                         _______ _______ _______ _____ _____    ______ ____
ROOT
ATOM      1  N   UNL     1       4.127   6.380  19.133  0.00  0.00    +0.000 N 
ATOM      2  C   UNL     1       2.799   6.242  19.480  0.00  0.00    +0.000 C 
ATOM      3  O   UNL     1       2.253   5.157  19.646  0.00  0.00    +0.000 OA
ATOM      4  H   UNL     1       4.540   7.295  19.263  0.00  0.00    +0.000 HD
ENDROOT
BRANCH   2   5
ATOM      5  C   UNL     1       2.102   7.500  19.659  0.00  0.00    +0.000 A 
ATOM      6  C   UNL     1       1.318   7.917  20.755  0.00  0.00    +0.000 A 
ATOM      7  N   UNL     1       0.785   9.130  20.582  0.00  0.00    +0.000 NA
ATOM      8  N   UNL     1       1.227   9.502  19.360  0.00  0.00    +0.000 N 
ATOM      9  C   UNL     1       2.012   8.554  18.767  0.00  0.00    +0.000 A 
BRANCH   8  10
ATOM     10  C   UNL     1       0.747  10.732  18.747  0.00  0.00    +0.000 C 
BRANCH  10  11
ATOM     11  C   UNL     1      -0.746  10.734  18.513  0.00  0.00    +0.000 A 
ATOM     12  C   UNL     1      -1.572  11.663  19.166  0.00  0.00    +0.000 A 
ATOM     13  C   UNL     1      -2.928  11.759  18.839  0.00  0.00    +0.000 A 
ATOM     14  C   UNL     1      -3.467  10.926  17.861  0.00  0.00    +0.000 A 
ATOM     15 CL   UNL     1      -5.115  11.099  17.403  0.00  0.00    +0.000 Cl
ATOM     16  C   UNL     1      -2.671   9.969  17.236  0.00  0.00    +0.000 A 
ATOM     17  C   UNL     1      -1.317   9.871  17.564  0.00  0.00    +0.000 A 
ENDBRANCH  10  11
ENDBRANCH   8  10
ENDBRANCH   2   5
BRANCH   1  18
ATOM     18  C   UNL     1       5.016   5.255  18.978  0.00  0.00    +0.000 C 
BRANCH  18  26
ATOM     19  C   UNL     1       3.668   3.690  16.747  0.00  0.00    +0.000 C 
ATOM     20  C   UNL     1       4.969   4.424  16.558  0.00  0.00    +0.000 A 
ATOM     21  C   UNL     1       5.564   4.371  15.291  0.00  0.00    +0.000 A 
ATOM     22  C   UNL     1       6.765   5.021  15.067  0.00  0.00    +0.000 A 
ATOM     23  N   UNL     1       7.381   5.734  16.016  0.00  0.00    +0.000 NA
ATOM     24  C   UNL     1       6.804   5.809  17.246  0.00  0.00    +0.000 A 
ATOM     25  C   UNL     1       7.562   6.660  18.231  0.00  0.00    +0.000 C 
ATOM     26  C   UNL     1       5.603   5.162  17.583  0.00  0.00    +0.000 A 
BRANCH  22  27
ATOM     27  N   UNL     1       7.338   5.014  13.797  0.00  0.00    +0.000 N 
ATOM     28  H   UNL     1       6.660   5.168  13.062  0.00  0.00    +0.000 HD
ATOM     29  H   UNL     1       7.840   4.136  13.693  0.00  0.00    +0.000 HD
ENDBRANCH  22  27
ENDBRANCH  18  26
ENDBRANCH   1  18
TORSDOF 6
ENDMDL
MODEL 2
REMARK VINA RESULT:      -7.9      0.624      1.134
REMARK  Name = 
REMARK  8 active torsions:
REMARK  status: ('A' for Active; 'I' for Inactive)
REMARK    1  A    between atoms: C_1  and  C_2
REMARK    2  A    between atoms: C_4  and  N_5
REMARK    3  A    between atoms: C_7  and  C_8
REMARK    4  A    between atoms: C_9  and  C_10
REMARK    5  A    between atoms: C_10  and  N_11
REMARK    6  A    between atoms: C_12  and  C_14
REMARK    7  A    between atoms: N_17  and  C_18
REMARK    8  A    between atoms: C_18  and  C_19
REMARK                            x       y       z     vdW  Elec       q    Type
REMARK                         _______ _______ _______ _____ _____    ______ ____
ROOT
ATOM      1  N   UNL     1       3.868   5.988  19.614  0.00  0.00    +0.000 N 
ATOM      2  C   UNL     1       2.494   5.979  19.724  0.00  0.00    +0.000 C 
ATOM      3  O   UNL     1       1.814   4.965  19.616  0.00  0.00    +0.000 OA
ATOM      4  H   UNL     1       4.349   6.809  19.960  0.00  0.00    +0.000 HD
ENDROOT
BRANCH   2   5
ATOM      5  C   UNL     1       1.916   7.277  20.008  0.00  0.00    +0.000 A 
ATOM      6  C   UNL     1       1.097   7.652  21.093  0.00  0.00    +0.000 A 
ATOM      7  N   UNL     1       0.704   8.927  21.034  0.00  0.00    +0.000 NA
ATOM      8  N   UNL     1       1.273   9.383  19.896  0.00  0.00    +0.000 N 
ATOM      9  C   UNL     1       2.001   8.429  19.245  0.00  0.00    +0.000 A 
BRANCH   8  10
ATOM     10  C   UNL     1       0.967  10.720  19.405  0.00  0.00    +0.000 C 
BRANCH  10  11
ATOM     11  C   UNL     1      -0.436  10.844  18.858  0.00  0.00    +0.000 A 
ATOM     12  C   UNL     1      -0.902   9.956  17.875  0.00  0.00    +0.000 A 
ATOM     13  C   UNL     1      -2.243   9.979  17.478  0.00  0.00    +0.000 A 
ATOM     14  C   UNL     1      -3.123  10.892  18.056  0.00  0.00    +0.000 A 
ATOM     15 CL   UNL     1      -4.787  10.867  17.625  0.00  0.00    +0.000 Cl
ATOM     16  C   UNL     1      -2.665  11.808  18.999  0.00  0.00    +0.000 A 
ATOM     17  C   UNL     1      -1.326  11.787  19.395  0.00  0.00    +0.000 A 
ENDBRANCH  10  11
ENDBRANCH   8  10
ENDBRANCH   2   5
BRANCH   1  18
ATOM     18  C   UNL     1       4.645   4.790  19.405  0.00  0.00    +0.000 C 
BRANCH  18  26
ATOM     19  C   UNL     1       3.408   3.862  16.788  0.00  0.00    +0.000 C 
ATOM     20  C   UNL     1       4.822   4.366  16.887  0.00  0.00    +0.000 A 
ATOM     21  C   UNL     1       5.581   4.402  15.711  0.00  0.00    +0.000 A 
ATOM     22  C   UNL     1       6.889   4.849  15.749  0.00  0.00    +0.000 A 
ATOM     23  N   UNL     1       7.465   5.283  16.876  0.00  0.00    +0.000 NA
ATOM     24  C   UNL     1       6.733   5.270  18.022  0.00  0.00    +0.000 A 
ATOM     25  C   UNL     1       7.464   5.806  19.225  0.00  0.00    +0.000 C 
ATOM     26  C   UNL     1       5.408   4.809  18.095  0.00  0.00    +0.000 A 
BRANCH  22  27
ATOM     27  N   UNL     1       7.635   4.934  14.575  0.00  0.00    +0.000 N 
ATOM     28  H   UNL     1       7.159   4.527  13.780  0.00  0.00    +0.000 HD
ATOM     29  H   UNL     1       8.539   4.506  14.755  0.00  0.00    +0.000 HD
ENDBRANCH  22  27
ENDBRANCH  18  26
ENDBRANCH   1  18
TORSDOF 6
ENDMDL
MODEL 3
REMARK VINA RESULT:      -7.9      0.926      1.850
REMARK  Name = 
REMARK  8 active torsions:
REMARK  status: ('A' for Active; 'I' for Inactive)
REMARK    1  A    between atoms: C_1  and  C_2
REMARK    2  A    between atoms: C_4  and  N_5
REMARK    3  A    between atoms: C_7  and  C_8
REMARK    4  A    between atoms: C_9  and  C_10
REMARK    5  A    between atoms: C_10  and  N_11
REMARK    6  A    between atoms: C_12  and  C_14
REMARK    7  A    between atoms: N_17  and  C_18
REMARK    8  A    between atoms: C_18  and  C_19
REMARK                            x       y       z     vdW  Elec       q    Type
REMARK                         _______ _______ _______ _____ _____    ______ ____
ROOT
ATOM      1  N   UNL     1       3.562   6.120  19.595  0.00  0.00    +0.000 N 
ATOM      2  C   UNL     1       2.331   6.198  20.212  0.00  0.00    +0.000 C 
ATOM      3  O   UNL     1       1.769   5.236  20.723  0.00  0.00    +0.000 OA
ATOM      4  H   UNL     1       4.047   6.993  19.430  0.00  0.00    +0.000 HD
ENDROOT
BRANCH   2   5
ATOM      5  C   UNL     1       1.763   7.531  20.229  0.00  0.00    +0.000 A 
ATOM      6  C   UNL     1       1.061   8.170  21.272  0.00  0.00    +0.000 A 
ATOM      7  N   UNL     1       0.640   9.394  20.944  0.00  0.00    +0.000 NA
ATOM      8  N   UNL     1       1.073   9.550  19.672  0.00  0.00    +0.000 N 
ATOM      9  C   UNL     1       1.743   8.457  19.201  0.00  0.00    +0.000 A 
BRANCH   8  10
ATOM     10  C   UNL     1       0.690  10.726  18.904  0.00  0.00    +0.000 C 
BRANCH  10  11
ATOM     11  C   UNL     1      -0.784  10.766  18.576  0.00  0.00    +0.000 A 
ATOM     12  C   UNL     1      -1.635  11.683  19.214  0.00  0.00    +0.000 A 
ATOM     13  C   UNL     1      -2.965  11.819  18.805  0.00  0.00    +0.000 A 
ATOM     14  C   UNL     1      -3.454  11.036  17.761  0.00  0.00    +0.000 A 
ATOM     15 CL   UNL     1      -5.066  11.259  17.206  0.00  0.00    +0.000 Cl
ATOM     16  C   UNL     1      -2.635  10.091  17.148  0.00  0.00    +0.000 A 
ATOM     17  C   UNL     1      -1.307   9.954  17.557  0.00  0.00    +0.000 A 
ENDBRANCH  10  11
ENDBRANCH   8  10
ENDBRANCH   2   5
BRANCH   1  18
ATOM     18  C   UNL     1       4.331   4.900  19.533  0.00  0.00    +0.000 C 
BRANCH  18  26
ATOM     19  C   UNL     1       7.232   5.697  19.097  0.00  0.00    +0.000 C 
ATOM     20  C   UNL     1       6.378   5.101  18.010  0.00  0.00    +0.000 A 
ATOM     21  C   UNL     1       6.966   4.913  16.754  0.00  0.00    +0.000 A 
ATOM     22  C   UNL     1       6.222   4.377  15.718  0.00  0.00    +0.000 A 
ATOM     23  N   UNL     1       4.949   3.997  15.873  0.00  0.00    +0.000 NA
ATOM     24  C   UNL     1       4.371   4.157  17.094  0.00  0.00    +0.000 A 
ATOM     25  C   UNL     1       2.947   3.670  17.170  0.00  0.00    +0.000 C 
ATOM     26  C   UNL     1       5.031   4.717  18.201  0.00  0.00    +0.000 A 
BRANCH  22  27
ATOM     27  N   UNL     1       6.814   4.141  14.479  0.00  0.00    +0.000 N 
ATOM     28  H   UNL     1       6.165   3.761  13.802  0.00  0.00    +0.000 HD
ATOM     29  H   UNL     1       7.619   3.540  14.634  0.00  0.00    +0.000 HD
ENDBRANCH  22  27
ENDBRANCH  18  26
ENDBRANCH   1  18
TORSDOF 6
ENDMDL
MODEL 4
REMARK VINA RESULT:      -7.5      2.493      3.286
REMARK  Name = 
REMARK  8 active torsions:
REMARK  status: ('A' for Active; 'I' for Inactive)
REMARK    1  A    between atoms: C_1  and  C_2
REMARK    2  A    between atoms: C_4  and  N_5
REMARK    3  A    between atoms: C_7  and  C_8
REMARK    4  A    between atoms: C_9  and  C_10
REMARK    5  A    between atoms: C_10  and  N_11
REMARK    6  A    between atoms: C_12  and  C_14
REMARK    7  A    between atoms: N_17  and  C_18
REMARK    8  A    between atoms: C_18  and  C_19
REMARK                            x       y       z     vdW  Elec       q    Type
REMARK                         _______ _______ _______ _____ _____    ______ ____
ROOT
ATOM      1  N   UNL     1       4.222   6.277  19.231  0.00  0.00    +0.000 N 
ATOM      2  C   UNL     1       2.893   6.093  19.553  0.00  0.00    +0.000 C 
ATOM      3  O   UNL     1       2.371   4.990  19.664  0.00  0.00    +0.000 OA
ATOM      4  H   UNL     1       4.612   7.195  19.405  0.00  0.00    +0.000 HD
ENDROOT
BRANCH   2   5
ATOM      5  C   UNL     1       2.164   7.325  19.776  0.00  0.00    +0.000 A 
ATOM      6  C   UNL     1       1.461   7.729  20.931  0.00  0.00    +0.000 A 
ATOM      7  N   UNL     1       0.867   8.917  20.791  0.00  0.00    +0.000 NA
ATOM      8  N   UNL     1       1.187   9.286  19.530  0.00  0.00    +0.000 N 
ATOM      9  C   UNL     1       1.955   8.361  18.883  0.00  0.00    +0.000 A 
BRANCH   8  10
ATOM     10  C   UNL     1       0.606  10.487  18.946  0.00  0.00    +0.000 C 
BRANCH  10  11
ATOM     11  C   UNL     1       1.435  11.727  19.191  0.00  0.00    +0.000 A 
ATOM     12  C   UNL     1       2.275  12.236  18.188  0.00  0.00    +0.000 A 
ATOM     13  C   UNL     1       2.927  13.461  18.363  0.00  0.00    +0.000 A 
ATOM     14  C   UNL     1       2.747  14.180  19.543  0.00  0.00    +0.000 A 
ATOM     15 CL   UNL     1       3.485  15.722  19.726  0.00  0.00    +0.000 Cl
ATOM     16  C   UNL     1       1.953  13.667  20.565  0.00  0.00    +0.000 A 
ATOM     17  C   UNL     1       1.303  12.443  20.391  0.00  0.00    +0.000 A 
ENDBRANCH  10  11
ENDBRANCH   8  10
ENDBRANCH   2   5
BRANCH   1  18
ATOM     18  C   UNL     1       5.140   5.181  19.039  0.00  0.00    +0.000 C 
BRANCH  18  26
ATOM     19  C   UNL     1       3.773   3.617  16.819  0.00  0.00    +0.000 C 
ATOM     20  C   UNL     1       5.052   4.384  16.609  0.00  0.00    +0.000 A 
ATOM     21  C   UNL     1       5.616   4.363  15.328  0.00  0.00    +0.000 A 
ATOM     22  C   UNL     1       6.795   5.044  15.084  0.00  0.00    +0.000 A 
ATOM     23  N   UNL     1       7.418   5.758  16.027  0.00  0.00    +0.000 NA
ATOM     24  C   UNL     1       6.870   5.801  17.272  0.00  0.00    +0.000 A 
ATOM     25  C   UNL     1       7.633   6.655  18.250  0.00  0.00    +0.000 C 
ATOM     26  C   UNL     1       5.693   5.122  17.629  0.00  0.00    +0.000 A 
BRANCH  22  27
ATOM     27  N   UNL     1       7.337   5.069  13.800  0.00  0.00    +0.000 N 
ATOM     28  H   UNL     1       8.344   4.967  13.799  0.00  0.00    +0.000 HD
ATOM     29  H   UNL     1       7.027   5.928  13.354  0.00  0.00    +0.000 HD
ENDBRANCH  22  27
ENDBRANCH  18  26
ENDBRANCH   1  18
TORSDOF 6
ENDMDL
MODEL 5
REMARK VINA RESULT:      -7.3      0.764      1.441
REMARK  Name = 
REMARK  8 active torsions:
REMARK  status: ('A' for Active; 'I' for Inactive)
REMARK    1  A    between atoms: C_1  and  C_2
REMARK    2  A    between atoms: C_4  and  N_5
REMARK    3  A    between atoms: C_7  and  C_8
REMARK    4  A    between atoms: C_9  and  C_10
REMARK    5  A    between atoms: C_10  and  N_11
REMARK    6  A    between atoms: C_12  and  C_14
REMARK    7  A    between atoms: N_17  and  C_18
REMARK    8  A    between atoms: C_18  and  C_19
REMARK                            x       y       z     vdW  Elec       q    Type
REMARK                         _______ _______ _______ _____ _____    ______ ____
ROOT
ATOM      1  N   UNL     1       4.006   6.760  18.402  0.00  0.00    +0.000 N 
ATOM      2  C   UNL     1       2.858   6.825  19.165  0.00  0.00    +0.000 C 
ATOM      3  O   UNL     1       2.510   5.942  19.940  0.00  0.00    +0.000 OA
ATOM      4  H   UNL     1       4.332   7.626  17.992  0.00  0.00    +0.000 HD
ENDROOT
BRANCH   2   5
ATOM      5  C   UNL     1       2.104   8.050  18.991  0.00  0.00    +0.000 A 
ATOM      6  C   UNL     1       2.124   8.944  17.900  0.00  0.00    +0.000 A 
ATOM      7  N   UNL     1       1.328  10.001  18.077  0.00  0.00    +0.000 NA
ATOM      8  N   UNL     1       0.787   9.791  19.298  0.00  0.00    +0.000 N 
ATOM      9  C   UNL     1       1.228   8.641  19.885  0.00  0.00    +0.000 A 
BRANCH   8  10
ATOM     10  C   UNL     1      -0.051  10.810  19.915  0.00  0.00    +0.000 C 
BRANCH  10  11
ATOM     11  C   UNL     1      -1.368  11.007  19.202  0.00  0.00    +0.000 A 
ATOM     12  C   UNL     1      -1.790  10.102  18.214  0.00  0.00    +0.000 A 
ATOM     13  C   UNL     1      -3.070  10.202  17.660  0.00  0.00    +0.000 A 
ATOM     14  C   UNL     1      -3.933  11.209  18.086  0.00  0.00    +0.000 A 
ATOM     15 CL   UNL     1      -5.534  11.284  17.463  0.00  0.00    +0.000 Cl
ATOM     16  C   UNL     1      -3.514  12.141  19.032  0.00  0.00    +0.000 A 
ATOM     17  C   UNL     1      -2.235  12.043  19.584  0.00  0.00    +0.000 A 
ENDBRANCH  10  11
ENDBRANCH   8  10
ENDBRANCH   2   5
BRANCH   1  18
ATOM     18  C   UNL     1       4.936   5.658  18.480  0.00  0.00    +0.000 C 
BRANCH  18  26
ATOM     19  C   UNL     1       3.724   3.572  16.630  0.00  0.00    +0.000 C 
ATOM     20  C   UNL     1       4.976   4.335  16.290  0.00  0.00    +0.000 A 
ATOM     21  C   UNL     1       5.591   4.056  15.063  0.00  0.00    +0.000 A 
ATOM     22  C   UNL     1       6.749   4.723  14.706  0.00  0.00    +0.000 A 
ATOM     23  N   UNL     1       7.304   5.660  15.483  0.00  0.00    +0.000 NA
ATOM     24  C   UNL     1       6.706   5.953  16.669  0.00  0.00    +0.000 A 
ATOM     25  C   UNL     1       7.393   7.042  17.452  0.00  0.00    +0.000 C 
ATOM     26  C   UNL     1       5.546   5.314  17.135  0.00  0.00    +0.000 A 
BRANCH  22  27
ATOM     27  N   UNL     1       7.339   4.487  13.466  0.00  0.00    +0.000 N 
ATOM     28  H   UNL     1       7.162   5.230  12.802  0.00  0.00    +0.000 HD
ATOM     29  H   UNL     1       7.014   3.581  13.140  0.00  0.00    +0.000 HD
ENDBRANCH  22  27
ENDBRANCH  18  26
ENDBRANCH   1  18
TORSDOF 6
ENDMDL
MODEL 6
REMARK VINA RESULT:      -7.1      3.938      9.528
REMARK  Name = 
REMARK  8 active torsions:
REMARK  status: ('A' for Active; 'I' for Inactive)
REMARK    1  A    between atoms: C_1  and  C_2
REMARK    2  A    between atoms: C_4  and  N_5
REMARK    3  A    between atoms: C_7  and  C_8
REMARK    4  A    between atoms: C_9  and  C_10
REMARK    5  A    between atoms: C_10  and  N_11
REMARK    6  A    between atoms: C_12  and  C_14
REMARK    7  A    between atoms: N_17  and  C_18
REMARK    8  A    between atoms: C_18  and  C_19
REMARK                            x       y       z     vdW  Elec       q    Type
REMARK                         _______ _______ _______ _____ _____    ______ ____
ROOT
ATOM      1  N   UNL     1      -0.555  11.108  18.040  0.00  0.00    +0.000 N 
ATOM      2  C   UNL     1       0.443  11.023  18.988  0.00  0.00    +0.000 C 
ATOM      3  O   UNL     1       0.681  11.910  19.800  0.00  0.00    +0.000 OA
ATOM      4  H   UNL     1      -0.834  10.245  17.591  0.00  0.00    +0.000 HD
ENDROOT
BRANCH   2   5
ATOM      5  C   UNL     1       1.176   9.774  18.962  0.00  0.00    +0.000 A 
ATOM      6  C   UNL     1       1.275   8.795  19.973  0.00  0.00    +0.000 A 
ATOM      7  N   UNL     1       2.066   7.773  19.635  0.00  0.00    +0.000 NA
ATOM      8  N   UNL     1       2.487   8.095  18.391  0.00  0.00    +0.000 N 
ATOM      9  C   UNL     1       1.986   9.287  17.951  0.00  0.00    +0.000 A 
BRANCH   8  10
ATOM     10  C   UNL     1       3.489   7.279  17.720  0.00  0.00    +0.000 C 
BRANCH  10  11
ATOM     11  C   UNL     1       3.392   5.813  18.072  0.00  0.00    +0.000 A 
ATOM     12  C   UNL     1       2.249   5.070  17.736  0.00  0.00    +0.000 A 
ATOM     13  C   UNL     1       2.220   3.686  17.930  0.00  0.00    +0.000 A 
ATOM     14  C   UNL     1       3.332   3.037  18.464  0.00  0.00    +0.000 A 
ATOM     15 CL   UNL     1       3.326   1.325  18.629  0.00  0.00    +0.000 Cl
ATOM     16  C   UNL     1       4.456   3.765  18.843  0.00  0.00    +0.000 A 
ATOM     17  C   UNL     1       4.484   5.148  18.652  0.00  0.00    +0.000 A 
ENDBRANCH  10  11
ENDBRANCH   8  10
ENDBRANCH   2   5
BRANCH   1  18
ATOM     18  C   UNL     1      -1.449  12.238  17.943  0.00  0.00    +0.000 C 
BRANCH  18  26
ATOM     19  C   UNL     1      -2.997  12.759  20.507  0.00  0.00    +0.000 C 
ATOM     20  C   UNL     1      -3.609  12.087  19.307  0.00  0.00    +0.000 A 
ATOM     21  C   UNL     1      -4.950  11.696  19.398  0.00  0.00    +0.000 A 
ATOM     22  C   UNL     1      -5.558  11.067  18.326  0.00  0.00    +0.000 A 
ATOM     23  N   UNL     1      -4.918  10.835  17.175  0.00  0.00    +0.000 NA
ATOM     24  C   UNL     1      -3.619  11.227  17.067  0.00  0.00    +0.000 A 
ATOM     25  C   UNL     1      -3.002  10.947  15.722  0.00  0.00    +0.000 C 
ATOM     26  C   UNL     1      -2.904  11.847  18.106  0.00  0.00    +0.000 A 
BRANCH  22  27
ATOM     27  N   UNL     1      -6.906  10.719  18.390  0.00  0.00    +0.000 N 
ATOM     28  H   UNL     1      -7.047   9.750  18.648  0.00  0.00    +0.000 HD
ATOM     29  H   UNL     1      -7.325  10.953  17.494  0.00  0.00    +0.000 HD
ENDBRANCH  22  27
ENDBRANCH  18  26
ENDBRANCH   1  18
TORSDOF 6
ENDMDL
MODEL 7
REMARK VINA RESULT:      -7.1      1.077      2.278
REMARK  Name = 
REMARK  8 active torsions:
REMARK  status: ('A' for Active; 'I' for Inactive)
REMARK    1  A    between atoms: C_1  and  C_2
REMARK    2  A    between atoms: C_4  and  N_5
REMARK    3  A    between atoms: C_7  and  C_8
REMARK    4  A    between atoms: C_9  and  C_10
REMARK    5  A    between atoms: C_10  and  N_11
REMARK    6  A    between atoms: C_12  and  C_14
REMARK    7  A    between atoms: N_17  and  C_18
REMARK    8  A    between atoms: C_18  and  C_19
REMARK                            x       y       z     vdW  Elec       q    Type
REMARK                         _______ _______ _______ _____ _____    ______ ____
ROOT
ATOM      1  N   UNL     1       3.802   6.736  18.570  0.00  0.00    +0.000 N 
ATOM      2  C   UNL     1       2.660   6.931  19.318  0.00  0.00    +0.000 C 
ATOM      3  O   UNL     1       2.251   6.128  20.149  0.00  0.00    +0.000 OA
ATOM      4  H   UNL     1       4.188   7.547  18.104  0.00  0.00    +0.000 HD
ENDROOT
BRANCH   2   5
ATOM      5  C   UNL     1       1.992   8.190  19.057  0.00  0.00    +0.000 A 
ATOM      6  C   UNL     1       2.124   9.035  17.935  0.00  0.00    +0.000 A 
ATOM      7  N   UNL     1       1.385  10.144  18.028  0.00  0.00    +0.000 NA
ATOM      8  N   UNL     1       0.769  10.017  19.224  0.00  0.00    +0.000 N 
ATOM      9  C   UNL     1       1.108   8.868  19.879  0.00  0.00    +0.000 A 
BRANCH   8  10
ATOM     10  C   UNL     1      -0.036  11.108  19.756  0.00  0.00    +0.000 C 
BRANCH  10  11
ATOM     11  C   UNL     1      -1.411  11.187  19.134  0.00  0.00    +0.000 A 
ATOM     12  C   UNL     1      -1.814  10.253  18.167  0.00  0.00    +0.000 A 
ATOM     13  C   UNL     1      -3.133  10.238  17.701  0.00  0.00    +0.000 A 
ATOM     14  C   UNL     1      -4.053  11.159  18.196  0.00  0.00    +0.000 A 
ATOM     15 CL   UNL     1      -5.693  11.090  17.682  0.00  0.00    +0.000 Cl
ATOM     16  C   UNL     1      -3.658  12.121  19.122  0.00  0.00    +0.000 A 
ATOM     17  C   UNL     1      -2.341  12.137  19.586  0.00  0.00    +0.000 A 
ENDBRANCH  10  11
ENDBRANCH   8  10
ENDBRANCH   2   5
BRANCH   1  18
ATOM     18  C   UNL     1       4.654   5.581  18.728  0.00  0.00    +0.000 C 
BRANCH  18  26
ATOM     19  C   UNL     1       7.298   6.541  17.575  0.00  0.00    +0.000 C 
ATOM     20  C   UNL     1       6.423   5.532  16.880  0.00  0.00    +0.000 A 
ATOM     21  C   UNL     1       6.867   5.027  15.652  0.00  0.00    +0.000 A 
ATOM     22  C   UNL     1       6.096   4.104  14.968  0.00  0.00    +0.000 A 
ATOM     23  N   UNL     1       4.937   3.643  15.449  0.00  0.00    +0.000 NA
ATOM     24  C   UNL     1       4.503   4.113  16.650  0.00  0.00    +0.000 A 
ATOM     25  C   UNL     1       3.203   3.508  17.113  0.00  0.00    +0.000 C 
ATOM     26  C   UNL     1       5.196   5.070  17.408  0.00  0.00    +0.000 A 
BRANCH  22  27
ATOM     27  N   UNL     1       6.554   3.560  13.770  0.00  0.00    +0.000 N 
ATOM     28  H   UNL     1       6.529   2.548  13.766  0.00  0.00    +0.000 HD
ATOM     29  H   UNL     1       7.485   3.932  13.601  0.00  0.00    +0.000 HD
ENDBRANCH  22  27
ENDBRANCH  18  26
ENDBRANCH   1  18
TORSDOF 6
ENDMDL
MODEL 8
REMARK VINA RESULT:      -7.1      3.766      8.446
REMARK  Name = 
REMARK  8 active torsions:
REMARK  status: ('A' for Active; 'I' for Inactive)
REMARK    1  A    between atoms: C_1  and  C_2
REMARK    2  A    between atoms: C_4  and  N_5
REMARK    3  A    between atoms: C_7  and  C_8
REMARK    4  A    between atoms: C_9  and  C_10
REMARK    5  A    between atoms: C_10  and  N_11
REMARK    6  A    between atoms: C_12  and  C_14
REMARK    7  A    between atoms: N_17  and  C_18
REMARK    8  A    between atoms: C_18  and  C_19
REMARK                            x       y       z     vdW  Elec       q    Type
REMARK                         _______ _______ _______ _____ _____    ______ ____
ROOT
ATOM      1  N   UNL     1       2.236   6.938  20.368  0.00  0.00    +0.000 N 
ATOM      2  C   UNL     1       2.220   5.560  20.419  0.00  0.00    +0.000 C 
ATOM      3  O   UNL     1       1.288   4.912  20.883  0.00  0.00    +0.000 OA
ATOM      4  H   UNL     1       2.919   7.364  19.754  0.00  0.00    +0.000 HD
ENDROOT
BRANCH   2   5
ATOM      5  C   UNL     1       3.396   4.933  19.849  0.00  0.00    +0.000 A 
ATOM      6  C   UNL     1       3.859   3.614  20.030  0.00  0.00    +0.000 A 
ATOM      7  N   UNL     1       5.002   3.369  19.385  0.00  0.00    +0.000 NA
ATOM      8  N   UNL     1       5.284   4.545  18.780  0.00  0.00    +0.000 N 
ATOM      9  C   UNL     1       4.355   5.512  19.037  0.00  0.00    +0.000 A 
BRANCH   8  10
ATOM     10  C   UNL     1       6.545   4.724  18.074  0.00  0.00    +0.000 C 
BRANCH  10  11
ATOM     11  C   UNL     1       6.412   4.574  16.576  0.00  0.00    +0.000 A 
ATOM     12  C   UNL     1       7.396   5.087  15.715  0.00  0.00    +0.000 A 
ATOM     13  C   UNL     1       7.347   4.820  14.343  0.00  0.00    +0.000 A 
ATOM     14  C   UNL     1       6.312   4.045  13.824  0.00  0.00    +0.000 A 
ATOM     15 CL   UNL     1       6.294   3.652  12.150  0.00  0.00    +0.000 Cl
ATOM     16  C   UNL     1       5.304   3.568  14.658  0.00  0.00    +0.000 A 
ATOM     17  C   UNL     1       5.352   3.835  16.028  0.00  0.00    +0.000 A 
ENDBRANCH  10  11
ENDBRANCH   8  10
ENDBRANCH   2   5
BRANCH   1  18
ATOM     18  C   UNL     1       1.132   7.752  20.817  0.00  0.00    +0.000 C 
BRANCH  18  26
ATOM     19  C   UNL     1       1.996   8.142  17.928  0.00  0.00    +0.000 C 
ATOM     20  C   UNL     1       1.500   9.272  18.791  0.00  0.00    +0.000 A 
ATOM     21  C   UNL     1       1.441  10.547  18.217  0.00  0.00    +0.000 A 
ATOM     22  C   UNL     1       1.002  11.621  18.970  0.00  0.00    +0.000 A 
ATOM     23  N   UNL     1       0.596  11.489  20.237  0.00  0.00    +0.000 NA
ATOM     24  C   UNL     1       0.631  10.251  20.801  0.00  0.00    +0.000 A 
ATOM     25  C   UNL     1       0.126  10.207  22.220  0.00  0.00    +0.000 C 
ATOM     26  C   UNL     1       1.087   9.104  20.132  0.00  0.00    +0.000 A 
BRANCH  22  27
ATOM     27  N   UNL     1       0.894  12.884  18.391  0.00  0.00    +0.000 N 
ATOM     28  H   UNL     1       0.359  13.529  18.959  0.00  0.00    +0.000 HD
ATOM     29  H   UNL     1       0.503  12.762  17.460  0.00  0.00    +0.000 HD
ENDBRANCH  22  27
ENDBRANCH  18  26
ENDBRANCH   1  18
TORSDOF 6
ENDMDL
MODEL 9
REMARK VINA RESULT:      -7.1      3.311      4.444
REMARK  Name = 
REMARK  8 active torsions:
REMARK  status: ('A' for Active; 'I' for Inactive)
REMARK    1  A    between atoms: C_1  and  C_2
REMARK    2  A    between atoms: C_4  and  N_5
REMARK    3  A    between atoms: C_7  and  C_8
REMARK    4  A    between atoms: C_9  and  C_10
REMARK    5  A    between atoms: C_10  and  N_11
REMARK    6  A    between atoms: C_12  and  C_14
REMARK    7  A    between atoms: N_17  and  C_18
REMARK    8  A    between atoms: C_18  and  C_19
REMARK                            x       y       z     vdW  Elec       q    Type
REMARK                         _______ _______ _______ _____ _____    ______ ____
ROOT
ATOM      1  N   UNL     1       2.198   7.294  19.894  0.00  0.00    +0.000 N 
ATOM      2  C   UNL     1       1.535   8.494  19.745  0.00  0.00    +0.000 C 
ATOM      3  O   UNL     1       1.355   9.037  18.661  0.00  0.00    +0.000 OA
ATOM      4  H   UNL     1       2.079   6.813  20.776  0.00  0.00    +0.000 HD
ENDROOT
BRANCH   2   5
ATOM      5  C   UNL     1       1.039   9.053  20.987  0.00  0.00    +0.000 A 
ATOM      6  C   UNL     1       1.658   9.055  22.254  0.00  0.00    +0.000 A 
ATOM      7  N   UNL     1       0.908   9.627  23.200  0.00  0.00    +0.000 NA
ATOM      8  N   UNL     1      -0.211   9.998  22.538  0.00  0.00    +0.000 N 
ATOM      9  C   UNL     1      -0.180   9.667  21.213  0.00  0.00    +0.000 A 
BRANCH   8  10
ATOM     10  C   UNL     1      -1.347  10.547  23.265  0.00  0.00    +0.000 C 
BRANCH  10  11
ATOM     11  C   UNL     1      -1.648  11.982  22.898  0.00  0.00    +0.000 A 
ATOM     12  C   UNL     1      -0.639  12.818  22.392  0.00  0.00    +0.000 A 
ATOM     13  C   UNL     1      -0.949  14.096  21.917  0.00  0.00    +0.000 A 
ATOM     14  C   UNL     1      -2.267  14.546  21.948  0.00  0.00    +0.000 A 
ATOM     15 CL   UNL     1      -2.661  16.086  21.291  0.00  0.00    +0.000 Cl
ATOM     16  C   UNL     1      -3.272  13.747  22.488  0.00  0.00    +0.000 A 
ATOM     17  C   UNL     1      -2.962  12.471  22.964  0.00  0.00    +0.000 A 
ENDBRANCH  10  11
ENDBRANCH   8  10
ENDBRANCH   2   5
BRANCH   1  18
ATOM     18  C   UNL     1       2.707   6.537  18.776  0.00  0.00    +0.000 C 
BRANCH  18  26
ATOM     19  C   UNL     1       1.096   4.416  20.241  0.00  0.00    +0.000 C 
ATOM     20  C   UNL     1       2.547   4.235  19.883  0.00  0.00    +0.000 A 
ATOM     21  C   UNL     1       3.159   3.030  20.249  0.00  0.00    +0.000 A 
ATOM     22  C   UNL     1       4.493   2.818  19.951  0.00  0.00    +0.000 A 
ATOM     23  N   UNL     1       5.232   3.717  19.292  0.00  0.00    +0.000 NA
ATOM     24  C   UNL     1       4.644   4.885  18.915  0.00  0.00    +0.000 A 
ATOM     25  C   UNL     1       5.554   5.814  18.154  0.00  0.00    +0.000 C 
ATOM     26  C   UNL     1       3.306   5.208  19.194  0.00  0.00    +0.000 A 
BRANCH  22  27
ATOM     27  N   UNL     1       5.096   1.602  20.268  0.00  0.00    +0.000 N 
ATOM     28  H   UNL     1       6.080   1.699  20.482  0.00  0.00    +0.000 HD
ATOM     29  H   UNL     1       4.922   0.964  19.495  0.00  0.00    +0.000 HD
ENDBRANCH  22  27
ENDBRANCH  18  26
ENDBRANCH   1  18
TORSDOF 6
ENDMDL
