MODEL 1
REMARK VINA RESULT:      -7.2      0.000      0.000
REMARK  Name = 
REMARK  10 active torsions:
REMARK  status: ('A' for Active; 'I' for Inactive)
REMARK    1  A    between atoms: C_1  and  C_2
REMARK    2  A    between atoms: N_6  and  C_7
REMARK    3  A    between atoms: C_7  and  C_8
REMARK    4  A    between atoms: C_8  and  C_9
REMARK    5  A    between atoms: C_8  and  N_10
REMARK    6  A    between atoms: N_10  and  C_11
REMARK    7  A    between atoms: C_11  and  C_12
REMARK    8  A    between atoms: N_16  and  C_17
REMARK    9  A    between atoms: C_17  and  C_18
REMARK   10  A    between atoms: C_18  and  C_19
REMARK                            x       y       z     vdW  Elec       q    Type
REMARK                         _______ _______ _______ _____ _____    ______ ____
ROOT
ATOM      1  C   UNL     1       5.863   4.541  18.754  0.00  0.00    +0.000 A 
ATOM      2  N   UNL     1       6.103   5.041  19.951  0.00  0.00    +0.000 NA
ATOM      3  N   UNL     1       7.361   5.587  19.942  0.00  0.00    +0.000 NA
ATOM      4  C   UNL     1       7.860   5.417  18.740  0.00  0.00    +0.000 A 
ATOM      5  N   UNL     1       6.957   4.769  17.954  0.00  0.00    +0.000 N 
ENDROOT
BRANCH   1   6
ATOM      6  C   UNL     1       4.625   3.831  18.326  0.00  0.00    +0.000 C 
BRANCH   6   7
ATOM      7  N   UNL     1       3.687   3.578  19.429  0.00  0.00    +0.000 NA
ATOM      8  H   UNL     1       3.469   2.583  19.439  0.00  0.00    +0.000 HD
BRANCH   7   9
ATOM      9  C   UNL     1       2.427   4.355  19.346  0.00  0.00    +0.000 C 
ATOM     10  C   UNL     1       1.232   3.539  19.857  0.00  0.00    +0.000 C 
BRANCH   9  11
ATOM     11  C   UNL     1       2.512   5.660  20.173  0.00  0.00    +0.000 C 
BRANCH  11  17
ATOM     12  C   UNL     1       1.153   8.245  21.196  0.00  0.00    +0.000 C 
ATOM     13  C   UNL     1       1.730   8.051  19.842  0.00  0.00    +0.000 A 
ATOM     14  N   UNL     1       1.777   8.967  18.895  0.00  0.00    +0.000 NA
ATOM     15  C   UNL     1       2.436   8.391  17.843  0.00  0.00    +0.000 A 
ATOM     16  C   UNL     1       2.799   7.102  18.149  0.00  0.00    +0.000 A 
ATOM     17  N   UNL     1       2.316   6.879  19.410  0.00  0.00    +0.000 N 
ENDBRANCH  11  17
ENDBRANCH   9  11
ENDBRANCH   7   9
ENDBRANCH   6   7
ENDBRANCH   1   6
BRANCH   5  18
ATOM     18  C   UNL     1       7.086   4.385  16.563  0.00  0.00    +0.000 C 
BRANCH  18  19
ATOM     19  C   UNL     1       6.220   5.167  15.574  0.00  0.00    +0.000 C 
BRANCH  19  20
ATOM     20  C   UNL     1       6.359   4.644  14.166  0.00  0.00    +0.000 A 
ATOM     21  C   UNL     1       5.427   3.738  13.641  0.00  0.00    +0.000 A 
ATOM     22  C   UNL     1       5.562   3.266  12.333  0.00  0.00    +0.000 A 
ATOM     23  C   UNL     1       6.627   3.692  11.543  0.00  0.00    +0.000 A 
ATOM     24  C   UNL     1       7.564   4.585  12.060  0.00  0.00    +0.000 A 
ATOM     25  C   UNL     1       7.434   5.056  13.367  0.00  0.00    +0.000 A 
ENDBRANCH  19  20
ENDBRANCH  18  19
ENDBRANCH   5  18
TORSDOF 8
ENDMDL
MODEL 2
REMARK VINA RESULT:      -7.1      1.869      6.707
REMARK  Name = 
REMARK  10 active torsions:
REMARK  status: ('A' for Active; 'I' for Inactive)
REMARK    1  A    between atoms: C_1  and  C_2
REMARK    2  A    between atoms: N_6  and  C_7
REMARK    3  A    between atoms: C_7  and  C_8
REMARK    4  A    between atoms: C_8  and  C_9
REMARK    5  A    between atoms: C_8  and  N_10
REMARK    6  A    between atoms: N_10  and  C_11
REMARK    7  A    between atoms: C_11  and  C_12
REMARK    8  A    between atoms: N_16  and  C_17
REMARK    9  A    between atoms: C_17  and  C_18
REMARK   10  A    between atoms: C_18  and  C_19
REMARK                            x       y       z     vdW  Elec       q    Type
REMARK                         _______ _______ _______ _____ _____    ______ ____
ROOT
ATOM      1  C   UNL     1       2.924   3.219  17.992  0.00  0.00    +0.000 A 
ATOM      2  N   UNL     1       1.958   2.383  17.664  0.00  0.00    +0.000 NA
ATOM      3  N   UNL     1       0.858   2.679  18.428  0.00  0.00    +0.000 NA
ATOM      4  C   UNL     1       1.172   3.693  19.200  0.00  0.00    +0.000 A 
ATOM      5  N   UNL     1       2.457   4.074  18.962  0.00  0.00    +0.000 N 
ENDROOT
BRANCH   1   6
ATOM      6  C   UNL     1       4.303   3.241  17.427  0.00  0.00    +0.000 C 
BRANCH   6   7
ATOM      7  N   UNL     1       4.417   4.044  16.201  0.00  0.00    +0.000 NA
ATOM      8  H   UNL     1       3.908   3.567  15.458  0.00  0.00    +0.000 HD
BRANCH   7   9
ATOM      9  C   UNL     1       5.813   4.285  15.761  0.00  0.00    +0.000 C 
ATOM     10  C   UNL     1       5.961   4.098  14.244  0.00  0.00    +0.000 C 
BRANCH   9  11
ATOM     11  C   UNL     1       6.280   5.716  16.121  0.00  0.00    +0.000 C 
BRANCH  11  17
ATOM     12  C   UNL     1       7.339   8.326  17.400  0.00  0.00    +0.000 C 
ATOM     13  C   UNL     1       7.559   6.956  17.927  0.00  0.00    +0.000 A 
ATOM     14  N   UNL     1       8.207   6.660  19.038  0.00  0.00    +0.000 NA
ATOM     15  C   UNL     1       8.123   5.301  19.174  0.00  0.00    +0.000 A 
ATOM     16  C   UNL     1       7.413   4.754  18.134  0.00  0.00    +0.000 A 
ATOM     17  N   UNL     1       7.087   5.808  17.324  0.00  0.00    +0.000 N 
ENDBRANCH  11  17
ENDBRANCH   9  11
ENDBRANCH   7   9
ENDBRANCH   6   7
ENDBRANCH   1   6
BRANCH   5  18
ATOM     18  C   UNL     1       3.207   5.148  19.579  0.00  0.00    +0.000 C 
BRANCH  18  19
ATOM     19  C   UNL     1       3.549   6.329  18.669  0.00  0.00    +0.000 C 
BRANCH  19  20
ATOM     20  C   UNL     1       2.593   7.481  18.855  0.00  0.00    +0.000 A 
ATOM     21  C   UNL     1       2.251   8.310  17.778  0.00  0.00    +0.000 A 
ATOM     22  C   UNL     1       1.359   9.369  17.960  0.00  0.00    +0.000 A 
ATOM     23  C   UNL     1       0.806   9.610  19.216  0.00  0.00    +0.000 A 
ATOM     24  C   UNL     1       1.150   8.797  20.295  0.00  0.00    +0.000 A 
ATOM     25  C   UNL     1       2.043   7.740  20.117  0.00  0.00    +0.000 A 
ENDBRANCH  19  20
ENDBRANCH  18  19
ENDBRANCH   5  18
TORSDOF 8
ENDMDL
MODEL 3
REMARK VINA RESULT:      -7.1      2.085      6.871
REMARK  Name = 
REMARK  10 active torsions:
REMARK  status: ('A' for Active; 'I' for Inactive)
REMARK    1  A    between atoms: C_1  and  C_2
REMARK    2  A    between atoms: N_6  and  C_7
REMARK    3  A    between atoms: C_7  and  C_8
REMARK    4  A    between atoms: C_8  and  C_9
REMARK    5  A    between atoms: C_8  and  N_10
REMARK    6  A    between atoms: N_10  and  C_11
REMARK    7  A    between atoms: C_11  and  C_12
REMARK    8  A    between atoms: N_16  and  C_17
REMARK    9  A    between atoms: C_17  and  C_18
REMARK   10  A    between atoms: C_18  and  C_19
REMARK                            x       y       z     vdW  Elec       q    Type
REMARK                         _______ _______ _______ _____ _____    ______ ____
ROOT
ATOM      1  C   UNL     1       3.138   3.576  20.105  0.00  0.00    +0.000 A 
ATOM      2  N   UNL     1       2.309   2.674  20.596  0.00  0.00    +0.000 NA
ATOM      3  N   UNL     1       1.181   3.321  21.031  0.00  0.00    +0.000 NA
ATOM      4  C   UNL     1       1.339   4.601  20.790  0.00  0.00    +0.000 A 
ATOM      5  N   UNL     1       2.549   4.814  20.205  0.00  0.00    +0.000 N 
ENDROOT
BRANCH   1   6
ATOM      6  C   UNL     1       4.493   3.316  19.544  0.00  0.00    +0.000 C 
BRANCH   6   7
ATOM      7  N   UNL     1       4.481   2.410  18.386  0.00  0.00    +0.000 NA
ATOM      8  H   UNL     1       5.424   2.046  18.257  0.00  0.00    +0.000 HD
BRANCH   7   9
ATOM      9  C   UNL     1       4.024   3.042  17.125  0.00  0.00    +0.000 C 
ATOM     10  C   UNL     1       2.492   3.081  17.043  0.00  0.00    +0.000 C 
BRANCH   9  11
ATOM     11  C   UNL     1       4.554   4.490  16.994  0.00  0.00    +0.000 C 
BRANCH  11  17
ATOM     12  C   UNL     1       7.557   4.676  17.715  0.00  0.00    +0.000 C 
ATOM     13  C   UNL     1       6.995   4.725  16.342  0.00  0.00    +0.000 A 
ATOM     14  N   UNL     1       7.700   4.817  15.232  0.00  0.00    +0.000 NA
ATOM     15  C   UNL     1       6.798   4.773  14.205  0.00  0.00    +0.000 A 
ATOM     16  C   UNL     1       5.519   4.651  14.691  0.00  0.00    +0.000 A 
ATOM     17  N   UNL     1       5.647   4.656  16.054  0.00  0.00    +0.000 N 
ENDBRANCH  11  17
ENDBRANCH   9  11
ENDBRANCH   7   9
ENDBRANCH   6   7
ENDBRANCH   1   6
BRANCH   5  18
ATOM     18  C   UNL     1       3.130   6.066  19.764  0.00  0.00    +0.000 C 
BRANCH  18  19
ATOM     19  C   UNL     1       2.402   6.770  18.618  0.00  0.00    +0.000 C 
BRANCH  19  20
ATOM     20  C   UNL     1       1.812   8.089  19.048  0.00  0.00    +0.000 A 
ATOM     21  C   UNL     1       1.459   8.315  20.386  0.00  0.00    +0.000 A 
ATOM     22  C   UNL     1       0.920   9.544  20.775  0.00  0.00    +0.000 A 
ATOM     23  C   UNL     1       0.727  10.552  19.833  0.00  0.00    +0.000 A 
ATOM     24  C   UNL     1       1.066  10.332  18.499  0.00  0.00    +0.000 A 
ATOM     25  C   UNL     1       1.602   9.105  18.107  0.00  0.00    +0.000 A 
ENDBRANCH  19  20
ENDBRANCH  18  19
ENDBRANCH   5  18
TORSDOF 8
ENDMDL
MODEL 4
REMARK VINA RESULT:      -6.9      2.451      5.475
REMARK  Name = 
REMARK  10 active torsions:
REMARK  status: ('A' for Active; 'I' for Inactive)
REMARK    1  A    between atoms: C_1  and  C_2
REMARK    2  A    between atoms: N_6  and  C_7
REMARK    3  A    between atoms: C_7  and  C_8
REMARK    4  A    between atoms: C_8  and  C_9
REMARK    5  A    between atoms: C_8  and  N_10
REMARK    6  A    between atoms: N_10  and  C_11
REMARK    7  A    between atoms: C_11  and  C_12
REMARK    8  A    between atoms: N_16  and  C_17
REMARK    9  A    between atoms: C_17  and  C_18
REMARK   10  A    between atoms: C_18  and  C_19
REMARK                            x       y       z     vdW  Elec       q    Type
REMARK                         _______ _______ _______ _____ _____    ______ ____
ROOT
ATOM      1  C   UNL     1       4.989   5.869  16.552  0.00  0.00    +0.000 A 
ATOM      2  N   UNL     1       5.607   6.503  15.575  0.00  0.00    +0.000 NA
ATOM      3  N   UNL     1       6.115   5.567  14.710  0.00  0.00    +0.000 NA
ATOM      4  C   UNL     1       5.791   4.383  15.172  0.00  0.00    +0.000 A 
ATOM      5  N   UNL     1       5.079   4.516  16.325  0.00  0.00    +0.000 N 
ENDROOT
BRANCH   1   6
ATOM      6  C   UNL     1       4.313   6.495  17.723  0.00  0.00    +0.000 C 
BRANCH   6   7
ATOM      7  N   UNL     1       3.586   7.728  17.385  0.00  0.00    +0.000 NA
ATOM      8  H   UNL     1       4.203   8.520  17.561  0.00  0.00    +0.000 HD
BRANCH   7   9
ATOM      9  C   UNL     1       2.323   7.914  18.138  0.00  0.00    +0.000 C 
ATOM     10  C   UNL     1       2.333   7.121  19.452  0.00  0.00    +0.000 C 
BRANCH   9  11
ATOM     11  C   UNL     1       2.080   9.405  18.474  0.00  0.00    +0.000 C 
BRANCH  11  17
ATOM     12  C   UNL     1       0.896  10.088  21.250  0.00  0.00    +0.000 C 
ATOM     13  C   UNL     1       0.143  10.075  19.970  0.00  0.00    +0.000 A 
ATOM     14  N   UNL     1      -1.130  10.390  19.831  0.00  0.00    +0.000 NA
ATOM     15  C   UNL     1      -1.398  10.300  18.492  0.00  0.00    +0.000 A 
ATOM     16  C   UNL     1      -0.273   9.926  17.799  0.00  0.00    +0.000 A 
ATOM     17  N   UNL     1       0.697   9.750  18.749  0.00  0.00    +0.000 N 
ENDBRANCH  11  17
ENDBRANCH   9  11
ENDBRANCH   7   9
ENDBRANCH   6   7
ENDBRANCH   1   6
BRANCH   5  18
ATOM     18  C   UNL     1       4.516   3.476  17.162  0.00  0.00    +0.000 C 
BRANCH  18  19
ATOM     19  C   UNL     1       2.990   3.374  17.161  0.00  0.00    +0.000 C 
BRANCH  19  20
ATOM     20  C   UNL     1       2.430   3.288  18.559  0.00  0.00    +0.000 A 
ATOM     21  C   UNL     1       3.269   3.391  19.676  0.00  0.00    +0.000 A 
ATOM     22  C   UNL     1       2.738   3.317  20.966  0.00  0.00    +0.000 A 
ATOM     23  C   UNL     1       1.369   3.136  21.149  0.00  0.00    +0.000 A 
ATOM     24  C   UNL     1       0.528   3.022  20.043  0.00  0.00    +0.000 A 
ATOM     25  C   UNL     1       1.056   3.093  18.754  0.00  0.00    +0.000 A 
ENDBRANCH  19  20
ENDBRANCH  18  19
ENDBRANCH   5  18
TORSDOF 8
ENDMDL
MODEL 5
REMARK VINA RESULT:      -6.9      2.773      6.060
REMARK  Name = 
REMARK  10 active torsions:
REMARK  status: ('A' for Active; 'I' for Inactive)
REMARK    1  A    between atoms: C_1  and  C_2
REMARK    2  A    between atoms: N_6  and  C_7
REMARK    3  A    between atoms: C_7  and  C_8
REMARK    4  A    between atoms: C_8  and  C_9
REMARK    5  A    between atoms: C_8  and  N_10
REMARK    6  A    between atoms: N_10  and  C_11
REMARK    7  A    between atoms: C_11  and  C_12
REMARK    8  A    between atoms: N_16  and  C_17
REMARK    9  A    between atoms: C_17  and  C_18
REMARK   10  A    between atoms: C_18  and  C_19
REMARK                            x       y       z     vdW  Elec       q    Type
REMARK                         _______ _______ _______ _____ _____    ______ ____
ROOT
ATOM      1  C   UNL     1       6.036   5.264  16.621  0.00  0.00    +0.000 A 
ATOM      2  N   UNL     1       7.352   5.331  16.684  0.00  0.00    +0.000 NA
ATOM      3  N   UNL     1       7.697   6.603  17.066  0.00  0.00    +0.000 NA
ATOM      4  C   UNL     1       6.588   7.282  17.235  0.00  0.00    +0.000 A 
ATOM      5  N   UNL     1       5.515   6.486  16.973  0.00  0.00    +0.000 N 
ENDROOT
BRANCH   1   6
ATOM      6  C   UNL     1       5.231   4.074  16.223  0.00  0.00    +0.000 C 
BRANCH   6   7
ATOM      7  N   UNL     1       4.806   3.250  17.364  0.00  0.00    +0.000 NA
ATOM      8  H   UNL     1       5.032   2.278  17.157  0.00  0.00    +0.000 HD
BRANCH   7   9
ATOM      9  C   UNL     1       3.363   3.359  17.686  0.00  0.00    +0.000 C 
ATOM     10  C   UNL     1       2.519   3.558  16.419  0.00  0.00    +0.000 C 
BRANCH   9  11
ATOM     11  C   UNL     1       2.850   2.094  18.417  0.00  0.00    +0.000 C 
BRANCH  11  17
ATOM     12  C   UNL     1       4.796   1.895  20.814  0.00  0.00    +0.000 C 
ATOM     13  C   UNL     1       3.352   2.229  20.900  0.00  0.00    +0.000 A 
ATOM     14  N   UNL     1       2.703   2.525  22.009  0.00  0.00    +0.000 NA
ATOM     15  C   UNL     1       1.421   2.821  21.630  0.00  0.00    +0.000 A 
ATOM     16  C   UNL     1       1.282   2.705  20.269  0.00  0.00    +0.000 A 
ATOM     17  N   UNL     1       2.506   2.295  19.813  0.00  0.00    +0.000 N 
ENDBRANCH  11  17
ENDBRANCH   9  11
ENDBRANCH   7   9
ENDBRANCH   6   7
ENDBRANCH   1   6
BRANCH   5  18
ATOM     18  C   UNL     1       4.107   6.820  17.041  0.00  0.00    +0.000 C 
BRANCH  18  19
ATOM     19  C   UNL     1       3.438   6.609  18.401  0.00  0.00    +0.000 C 
BRANCH  19  20
ATOM     20  C   UNL     1       2.467   7.716  18.730  0.00  0.00    +0.000 A 
ATOM     21  C   UNL     1       1.938   7.845  20.021  0.00  0.00    +0.000 A 
ATOM     22  C   UNL     1       1.045   8.878  20.316  0.00  0.00    +0.000 A 
ATOM     23  C   UNL     1       0.673   9.785  19.326  0.00  0.00    +0.000 A 
ATOM     24  C   UNL     1       1.186   9.657  18.037  0.00  0.00    +0.000 A 
ATOM     25  C   UNL     1       2.076   8.625  17.738  0.00  0.00    +0.000 A 
ENDBRANCH  19  20
ENDBRANCH  18  19
ENDBRANCH   5  18
TORSDOF 8
ENDMDL
MODEL 6
REMARK VINA RESULT:      -6.8      2.528      5.387
REMARK  Name = 
REMARK  10 active torsions:
REMARK  status: ('A' for Active; 'I' for Inactive)
REMARK    1  A    between atoms: C_1  and  C_2
REMARK    2  A    between atoms: N_6  and  C_7
REMARK    3  A    between atoms: C_7  and  C_8
REMARK    4  A    between atoms: C_8  and  C_9
REMARK    5  A    between atoms: C_8  and  N_10
REMARK    6  A    between atoms: N_10  and  C_11
REMARK    7  A    between atoms: C_11  and  C_12
REMARK    8  A    between atoms: N_16  and  C_17
REMARK    9  A    between atoms: C_17  and  C_18
REMARK   10  A    between atoms: C_18  and  C_19
REMARK                            x       y       z     vdW  Elec       q    Type
REMARK                         _______ _______ _______ _____ _____    ______ ____
ROOT
ATOM      1  C   UNL     1       5.311   6.426  17.064  0.00  0.00    +0.000 A 
ATOM      2  N   UNL     1       6.463   6.992  16.757  0.00  0.00    +0.000 NA
ATOM      3  N   UNL     1       7.176   6.115  15.979  0.00  0.00    +0.000 NA
ATOM      4  C   UNL     1       6.444   5.038  15.822  0.00  0.00    +0.000 A 
ATOM      5  N   UNL     1       5.261   5.183  16.479  0.00  0.00    +0.000 N 
ENDROOT
BRANCH   1   6
ATOM      6  C   UNL     1       4.238   7.014  17.914  0.00  0.00    +0.000 C 
BRANCH   6   7
ATOM      7  N   UNL     1       3.279   7.832  17.158  0.00  0.00    +0.000 NA
ATOM      8  H   UNL     1       3.763   8.666  16.826  0.00  0.00    +0.000 HD
BRANCH   7   9
ATOM      9  C   UNL     1       2.082   8.238  17.933  0.00  0.00    +0.000 C 
ATOM     10  C   UNL     1       2.135   7.697  19.368  0.00  0.00    +0.000 C 
BRANCH   9  11
ATOM     11  C   UNL     1       1.948   9.779  18.001  0.00  0.00    +0.000 C 
BRANCH  11  17
ATOM     12  C   UNL     1       1.366  12.111  19.949  0.00  0.00    +0.000 C 
ATOM     13  C   UNL     1       0.343  11.305  19.238  0.00  0.00    +0.000 A 
ATOM     14  N   UNL     1      -0.961  11.494  19.308  0.00  0.00    +0.000 NA
ATOM     15  C   UNL     1      -1.523  10.577  18.462  0.00  0.00    +0.000 A 
ATOM     16  C   UNL     1      -0.551   9.815  17.863  0.00  0.00    +0.000 A 
ATOM     17  N   UNL     1       0.633  10.259  18.387  0.00  0.00    +0.000 N 
ENDBRANCH  11  17
ENDBRANCH   9  11
ENDBRANCH   7   9
ENDBRANCH   6   7
ENDBRANCH   1   6
BRANCH   5  18
ATOM     18  C   UNL     1       4.157   4.249  16.565  0.00  0.00    +0.000 C 
BRANCH  18  19
ATOM     19  C   UNL     1       4.235   3.230  17.703  0.00  0.00    +0.000 C 
BRANCH  19  20
ATOM     20  C   UNL     1       3.080   3.367  18.663  0.00  0.00    +0.000 A 
ATOM     21  C   UNL     1       3.220   4.088  19.857  0.00  0.00    +0.000 A 
ATOM     22  C   UNL     1       2.141   4.214  20.735  0.00  0.00    +0.000 A 
ATOM     23  C   UNL     1       0.918   3.620  20.431  0.00  0.00    +0.000 A 
ATOM     24  C   UNL     1       0.773   2.892  19.251  0.00  0.00    +0.000 A 
ATOM     25  C   UNL     1       1.850   2.762  18.373  0.00  0.00    +0.000 A 
ENDBRANCH  19  20
ENDBRANCH  18  19
ENDBRANCH   5  18
TORSDOF 8
ENDMDL
MODEL 7
REMARK VINA RESULT:      -6.8      1.884      6.988
REMARK  Name = 
REMARK  10 active torsions:
REMARK  status: ('A' for Active; 'I' for Inactive)
REMARK    1  A    between atoms: C_1  and  C_2
REMARK    2  A    between atoms: N_6  and  C_7
REMARK    3  A    between atoms: C_7  and  C_8
REMARK    4  A    between atoms: C_8  and  C_9
REMARK    5  A    between atoms: C_8  and  N_10
REMARK    6  A    between atoms: N_10  and  C_11
REMARK    7  A    between atoms: C_11  and  C_12
REMARK    8  A    between atoms: N_16  and  C_17
REMARK    9  A    between atoms: C_17  and  C_18
REMARK   10  A    between atoms: C_18  and  C_19
REMARK                            x       y       z     vdW  Elec       q    Type
REMARK                         _______ _______ _______ _____ _____    ______ ____
ROOT
ATOM      1  C   UNL     1       3.135   3.290  17.947  0.00  0.00    +0.000 A 
ATOM      2  N   UNL     1       2.540   2.123  18.106  0.00  0.00    +0.000 NA
ATOM      3  N   UNL     1       1.255   2.352  18.527  0.00  0.00    +0.000 NA
ATOM      4  C   UNL     1       1.089   3.651  18.610  0.00  0.00    +0.000 A 
ATOM      5  N   UNL     1       2.239   4.286  18.252  0.00  0.00    +0.000 N 
ENDROOT
BRANCH   1   6
ATOM      6  C   UNL     1       4.546   3.510  17.523  0.00  0.00    +0.000 C 
BRANCH   6   7
ATOM      7  N   UNL     1       4.670   4.007  16.145  0.00  0.00    +0.000 NA
ATOM      8  H   UNL     1       4.162   3.372  15.531  0.00  0.00    +0.000 HD
BRANCH   7   9
ATOM      9  C   UNL     1       6.068   4.137  15.669  0.00  0.00    +0.000 C 
ATOM     10  C   UNL     1       6.175   3.855  14.164  0.00  0.00    +0.000 C 
BRANCH   9  11
ATOM     11  C   UNL     1       6.628   5.555  15.938  0.00  0.00    +0.000 C 
BRANCH  11  17
ATOM     12  C   UNL     1       7.326   8.243  17.301  0.00  0.00    +0.000 C 
ATOM     13  C   UNL     1       7.607   6.895  17.856  0.00  0.00    +0.000 A 
ATOM     14  N   UNL     1       8.162   6.653  19.029  0.00  0.00    +0.000 NA
ATOM     15  C   UNL     1       8.181   5.292  19.165  0.00  0.00    +0.000 A 
ATOM     16  C   UNL     1       7.629   4.689  18.061  0.00  0.00    +0.000 A 
ATOM     17  N   UNL     1       7.298   5.713  17.216  0.00  0.00    +0.000 N 
ENDBRANCH  11  17
ENDBRANCH   9  11
ENDBRANCH   7   9
ENDBRANCH   6   7
ENDBRANCH   1   6
BRANCH   5  18
ATOM     18  C   UNL     1       2.500   5.710  18.191  0.00  0.00    +0.000 C 
BRANCH  18  19
ATOM     19  C   UNL     1       2.612   6.423  19.539  0.00  0.00    +0.000 C 
BRANCH  19  20
ATOM     20  C   UNL     1       1.987   7.796  19.505  0.00  0.00    +0.000 A 
ATOM     21  C   UNL     1       1.394   8.343  20.651  0.00  0.00    +0.000 A 
ATOM     22  C   UNL     1       0.825   9.618  20.609  0.00  0.00    +0.000 A 
ATOM     23  C   UNL     1       0.840  10.353  19.426  0.00  0.00    +0.000 A 
ATOM     24  C   UNL     1       1.418   9.811  18.278  0.00  0.00    +0.000 A 
ATOM     25  C   UNL     1       1.985   8.537  18.316  0.00  0.00    +0.000 A 
ENDBRANCH  19  20
ENDBRANCH  18  19
ENDBRANCH   5  18
TORSDOF 8
ENDMDL
MODEL 8
REMARK VINA RESULT:      -6.7      1.101      1.724
REMARK  Name = 
REMARK  10 active torsions:
REMARK  status: ('A' for Active; 'I' for Inactive)
REMARK    1  A    between atoms: C_1  and  C_2
REMARK    2  A    between atoms: N_6  and  C_7
REMARK    3  A    between atoms: C_7  and  C_8
REMARK    4  A    between atoms: C_8  and  C_9
REMARK    5  A    between atoms: C_8  and  N_10
REMARK    6  A    between atoms: N_10  and  C_11
REMARK    7  A    between atoms: C_11  and  C_12
REMARK    8  A    between atoms: N_16  and  C_17
REMARK    9  A    between atoms: C_17  and  C_18
REMARK   10  A    between atoms: C_18  and  C_19
REMARK                            x       y       z     vdW  Elec       q    Type
REMARK                         _______ _______ _______ _____ _____    ______ ____
ROOT
ATOM      1  C   UNL     1       4.918   4.548  18.816  0.00  0.00    +0.000 A 
ATOM      2  N   UNL     1       5.615   4.699  19.926  0.00  0.00    +0.000 NA
ATOM      3  N   UNL     1       6.800   5.312  19.608  0.00  0.00    +0.000 NA
ATOM      4  C   UNL     1       6.799   5.529  18.314  0.00  0.00    +0.000 A 
ATOM      5  N   UNL     1       5.638   5.073  17.770  0.00  0.00    +0.000 N 
ENDROOT
BRANCH   1   6
ATOM      6  C   UNL     1       3.579   3.906  18.695  0.00  0.00    +0.000 C 
BRANCH   6   7
ATOM      7  N   UNL     1       2.495   4.864  18.435  0.00  0.00    +0.000 NA
ATOM      8  H   UNL     1       2.877   5.640  17.895  0.00  0.00    +0.000 HD
BRANCH   7   9
ATOM      9  C   UNL     1       1.844   5.392  19.658  0.00  0.00    +0.000 C 
ATOM     10  C   UNL     1       1.819   4.342  20.776  0.00  0.00    +0.000 C 
BRANCH   9  11
ATOM     11  C   UNL     1       2.575   6.649  20.189  0.00  0.00    +0.000 C 
BRANCH  11  17
ATOM     12  C   UNL     1       2.326   8.553  17.763  0.00  0.00    +0.000 C 
ATOM     13  C   UNL     1       1.651   8.732  19.073  0.00  0.00    +0.000 A 
ATOM     14  N   UNL     1       0.819   9.710  19.376  0.00  0.00    +0.000 NA
ATOM     15  C   UNL     1       0.390   9.461  20.651  0.00  0.00    +0.000 A 
ATOM     16  C   UNL     1       0.966   8.314  21.139  0.00  0.00    +0.000 A 
ATOM     17  N   UNL     1       1.795   7.872  20.143  0.00  0.00    +0.000 N 
ENDBRANCH  11  17
ENDBRANCH   9  11
ENDBRANCH   7   9
ENDBRANCH   6   7
ENDBRANCH   1   6
BRANCH   5  18
ATOM     18  C   UNL     1       5.215   5.114  16.385  0.00  0.00    +0.000 C 
BRANCH  18  19
ATOM     19  C   UNL     1       5.399   3.819  15.594  0.00  0.00    +0.000 C 
BRANCH  19  20
ATOM     20  C   UNL     1       6.098   4.055  14.278  0.00  0.00    +0.000 A 
ATOM     21  C   UNL     1       5.761   3.306  13.142  0.00  0.00    +0.000 A 
ATOM     22  C   UNL     1       6.410   3.539  11.927  0.00  0.00    +0.000 A 
ATOM     23  C   UNL     1       7.400   4.516  11.839  0.00  0.00    +0.000 A 
ATOM     24  C   UNL     1       7.748   5.258  12.966  0.00  0.00    +0.000 A 
ATOM     25  C   UNL     1       7.103   5.026  14.182  0.00  0.00    +0.000 A 
ENDBRANCH  19  20
ENDBRANCH  18  19
ENDBRANCH   5  18
TORSDOF 8
ENDMDL
MODEL 9
REMARK VINA RESULT:      -6.7      1.829      6.675
REMARK  Name = 
REMARK  10 active torsions:
REMARK  status: ('A' for Active; 'I' for Inactive)
REMARK    1  A    between atoms: C_1  and  C_2
REMARK    2  A    between atoms: N_6  and  C_7
REMARK    3  A    between atoms: C_7  and  C_8
REMARK    4  A    between atoms: C_8  and  C_9
REMARK    5  A    between atoms: C_8  and  N_10
REMARK    6  A    between atoms: N_10  and  C_11
REMARK    7  A    between atoms: C_11  and  C_12
REMARK    8  A    between atoms: N_16  and  C_17
REMARK    9  A    between atoms: C_17  and  C_18
REMARK   10  A    between atoms: C_18  and  C_19
REMARK                            x       y       z     vdW  Elec       q    Type
REMARK                         _______ _______ _______ _____ _____    ______ ____
ROOT
ATOM      1  C   UNL     1       3.463   3.390  19.755  0.00  0.00    +0.000 A 
ATOM      2  N   UNL     1       3.347   2.590  20.798  0.00  0.00    +0.000 NA
ATOM      3  N   UNL     1       2.186   2.909  21.455  0.00  0.00    +0.000 NA
ATOM      4  C   UNL     1       1.614   3.889  20.797  0.00  0.00    +0.000 A 
ATOM      5  N   UNL     1       2.373   4.226  19.718  0.00  0.00    +0.000 N 
ENDROOT
BRANCH   1   6
ATOM      6  C   UNL     1       4.587   3.408  18.777  0.00  0.00    +0.000 C 
BRANCH   6   7
ATOM      7  N   UNL     1       5.869   3.818  19.370  0.00  0.00    +0.000 NA
ATOM      8  H   UNL     1       5.706   4.057  20.347  0.00  0.00    +0.000 HD
BRANCH   7   9
ATOM      9  C   UNL     1       6.516   4.963  18.687  0.00  0.00    +0.000 C 
ATOM     10  C   UNL     1       7.519   5.671  19.609  0.00  0.00    +0.000 C 
BRANCH   9  11
ATOM     11  C   UNL     1       7.266   4.510  17.411  0.00  0.00    +0.000 C 
BRANCH  11  17
ATOM     12  C   UNL     1       5.726   7.056  16.563  0.00  0.00    +0.000 C 
ATOM     13  C   UNL     1       5.845   5.812  15.761  0.00  0.00    +0.000 A 
ATOM     14  N   UNL     1       5.341   5.630  14.556  0.00  0.00    +0.000 NA
ATOM     15  C   UNL     1       5.732   4.377  14.168  0.00  0.00    +0.000 A 
ATOM     16  C   UNL     1       6.487   3.782  15.148  0.00  0.00    +0.000 A 
ATOM     17  N   UNL     1       6.526   4.686  16.175  0.00  0.00    +0.000 N 
ENDBRANCH  11  17
ENDBRANCH   9  11
ENDBRANCH   7   9
ENDBRANCH   6   7
ENDBRANCH   1   6
BRANCH   5  18
ATOM     18  C   UNL     1       2.117   5.243  18.719  0.00  0.00    +0.000 C 
BRANCH  18  19
ATOM     19  C   UNL     1       3.032   6.467  18.766  0.00  0.00    +0.000 C 
BRANCH  19  20
ATOM     20  C   UNL     1       2.256   7.744  18.972  0.00  0.00    +0.000 A 
ATOM     21  C   UNL     1       2.137   8.686  17.941  0.00  0.00    +0.000 A 
ATOM     22  C   UNL     1       1.410   9.862  18.141  0.00  0.00    +0.000 A 
ATOM     23  C   UNL     1       0.801  10.107  19.370  0.00  0.00    +0.000 A 
ATOM     24  C   UNL     1       0.924   9.181  20.404  0.00  0.00    +0.000 A 
ATOM     25  C   UNL     1       1.651   8.007  20.209  0.00  0.00    +0.000 A 
ENDBRANCH  19  20
ENDBRANCH  18  19
ENDBRANCH   5  18
TORSDOF 8
ENDMDL
