MODEL 1
REMARK VINA RESULT:      -6.3      0.000      0.000
REMARK  Name = 
REMARK  9 active torsions:
REMARK  status: ('A' for Active; 'I' for Inactive)
REMARK    1  A    between atoms: C_1  and  C_2
REMARK    2  A    between atoms: C_2  and  C_3
REMARK    3  A    between atoms: C_3  and  C_4
REMARK    4  A    between atoms: C_4  and  C_5
REMARK    5  A    between atoms: C_5  and  C_6
REMARK    6  A    between atoms: C_6  and  C_7
REMARK    7  A    between atoms: C_7  and  N_8
REMARK    8  A    between atoms: C_12  and  C_14
REMARK    9  A    between atoms: C_23  and  C_24
REMARK                            x       y       z     vdW  Elec       q    Type
REMARK                         _______ _______ _______ _____ _____    ______ ____
ROOT
ATOM      1  N   UNL     1       7.271   7.308  17.079  0.00  0.00    +0.000 NA
ATOM      2  C   UNL     1       8.011   6.339  17.913  0.00  0.00    +0.000 C 
ATOM      3  C   UNL     1       7.213   5.652  19.058  0.00  0.00    +0.000 C 
ATOM      4  N   UNL     1       5.831   5.279  18.710  0.00  0.00    +0.000 N 
ATOM      5  C   UNL     1       5.303   4.088  19.232  0.00  0.00    +0.000 C 
ATOM      6  O   UNL     1       5.940   3.390  20.021  0.00  0.00    +0.000 OA
ATOM      7  C   UNL     1       5.115   6.224  17.837  0.00  0.00    +0.000 C 
ATOM      8  C   UNL     1       5.975   6.707  16.644  0.00  0.00    +0.000 C 
ENDROOT
BRANCH   5   9
ATOM      9  C   UNL     1       3.937   3.616  18.834  0.00  0.00    +0.000 A 
ATOM     10  C   UNL     1       3.796   2.843  17.669  0.00  0.00    +0.000 A 
ATOM     11  C   UNL     1       2.565   2.290  17.316  0.00  0.00    +0.000 A 
ATOM     12  C   UNL     1       1.434   2.599  18.062  0.00  0.00    +0.000 A 
ATOM     13  C   UNL     1       1.534   3.456  19.161  0.00  0.00    +0.000 A 
ATOM     14 CL   UNL     1       0.052   3.840  19.976  0.00  0.00    +0.000 Cl
ATOM     15  C   UNL     1       2.784   3.958  19.572  0.00  0.00    +0.000 A 
ATOM     16 CL   UNL     1       2.874   4.953  20.993  0.00  0.00    +0.000 Cl
ENDBRANCH   5   9
BRANCH   8  17
ATOM     17  C   UNL     1       6.064   5.568  15.606  0.00  0.00    +0.000 A 
ATOM     18  C   UNL     1       7.207   5.457  14.802  0.00  0.00    +0.000 A 
ATOM     19  C   UNL     1       7.250   4.552  13.734  0.00  0.00    +0.000 A 
ATOM     20  C   UNL     1       6.154   3.739  13.450  0.00  0.00    +0.000 A 
ATOM     21  C   UNL     1       5.019   3.819  14.240  0.00  0.00    +0.000 A 
ATOM     22  C   UNL     1       4.982   4.715  15.306  0.00  0.00    +0.000 A 
ENDBRANCH   8  17
BRANCH   1  23
ATOM     23  C   UNL     1       7.035   8.572  17.819  0.00  0.00    +0.000 C 
BRANCH  23  24
ATOM     24  C   UNL     1       8.169   9.608  17.721  0.00  0.00    +0.000 C 
BRANCH  24  25
ATOM     25  C   UNL     1       8.997   9.773  18.996  0.00  0.00    +0.000 C 
BRANCH  25  26
ATOM     26  C   UNL     1       9.371  11.233  19.251  0.00  0.00    +0.000 C 
BRANCH  26  27
ATOM     27  C   UNL     1      10.878  11.452  19.168  0.00  0.00    +0.000 C 
BRANCH  27  29
ATOM     28  C   UNL     1      11.219  13.261  17.458  0.00  0.00    +0.000 C 
ATOM     29  C   UNL     1      11.293  11.770  17.733  0.00  0.00    +0.000 C 
ENDBRANCH  27  29
ENDBRANCH  26  27
ENDBRANCH  25  26
ENDBRANCH  24  25
ENDBRANCH  23  24
ENDBRANCH   1  23
TORSDOF 8
ENDMDL
MODEL 2
REMARK VINA RESULT:      -6.2      2.411      3.959
REMARK  Name = 
REMARK  9 active torsions:
REMARK  status: ('A' for Active; 'I' for Inactive)
REMARK    1  A    between atoms: C_1  and  C_2
REMARK    2  A    between atoms: C_2  and  C_3
REMARK    3  A    between atoms: C_3  and  C_4
REMARK    4  A    between atoms: C_4  and  C_5
REMARK    5  A    between atoms: C_5  and  C_6
REMARK    6  A    between atoms: C_6  and  C_7
REMARK    7  A    between atoms: C_7  and  N_8
REMARK    8  A    between atoms: C_12  and  C_14
REMARK    9  A    between atoms: C_23  and  C_24
REMARK                            x       y       z     vdW  Elec       q    Type
REMARK                         _______ _______ _______ _____ _____    ______ ____
ROOT
ATOM      1  N   UNL     1       5.726   7.072  16.882  0.00  0.00    +0.000 NA
ATOM      2  C   UNL     1       5.073   6.368  15.759  0.00  0.00    +0.000 C 
ATOM      3  C   UNL     1       4.694   4.879  15.996  0.00  0.00    +0.000 C 
ATOM      4  N   UNL     1       4.163   4.583  17.338  0.00  0.00    +0.000 N 
ATOM      5  C   UNL     1       3.140   3.629  17.463  0.00  0.00    +0.000 C 
ATOM      6  O   UNL     1       2.728   2.993  16.492  0.00  0.00    +0.000 OA
ATOM      7  C   UNL     1       4.784   5.324  18.449  0.00  0.00    +0.000 C 
ATOM      8  C   UNL     1       4.958   6.830  18.139  0.00  0.00    +0.000 C 
ENDROOT
BRANCH   5   9
ATOM      9  C   UNL     1       2.502   3.360  18.791  0.00  0.00    +0.000 A 
ATOM     10  C   UNL     1       1.263   3.955  19.086  0.00  0.00    +0.000 A 
ATOM     11  C   UNL     1       0.577   3.650  20.262  0.00  0.00    +0.000 A 
ATOM     12  C   UNL     1       1.177   2.833  21.213  0.00  0.00    +0.000 A 
ATOM     13  C   UNL     1       2.457   2.319  20.988  0.00  0.00    +0.000 A 
ATOM     14 CL   UNL     1       3.146   1.378  22.271  0.00  0.00    +0.000 Cl
ATOM     15  C   UNL     1       3.125   2.559  19.771  0.00  0.00    +0.000 A 
ATOM     16 CL   UNL     1       4.680   1.833  19.500  0.00  0.00    +0.000 Cl
ENDBRANCH   5   9
BRANCH   8  17
ATOM     17  C   UNL     1       3.580   7.518  18.240  0.00  0.00    +0.000 A 
ATOM     18  C   UNL     1       3.272   8.576  17.374  0.00  0.00    +0.000 A 
ATOM     19  C   UNL     1       2.110   9.337  17.550  0.00  0.00    +0.000 A 
ATOM     20  C   UNL     1       1.231   9.053  18.594  0.00  0.00    +0.000 A 
ATOM     21  C   UNL     1       1.504   8.003  19.454  0.00  0.00    +0.000 A 
ATOM     22  C   UNL     1       2.657   7.244  19.271  0.00  0.00    +0.000 A 
ENDBRANCH   8  17
BRANCH   1  23
ATOM     23  C   UNL     1       7.132   6.626  17.039  0.00  0.00    +0.000 C 
BRANCH  23  24
ATOM     24  C   UNL     1       7.952   7.404  18.085  0.00  0.00    +0.000 C 
BRANCH  24  25
ATOM     25  C   UNL     1       8.104   8.898  17.796  0.00  0.00    +0.000 C 
BRANCH  25  26
ATOM     26  C   UNL     1       8.994   9.593  18.826  0.00  0.00    +0.000 C 
BRANCH  26  27
ATOM     27  C   UNL     1       9.211  11.063  18.483  0.00  0.00    +0.000 C 
BRANCH  27  29
ATOM     28  C   UNL     1      11.533  11.626  19.261  0.00  0.00    +0.000 C 
ATOM     29  C   UNL     1      10.659  11.305  18.063  0.00  0.00    +0.000 C 
ENDBRANCH  27  29
ENDBRANCH  26  27
ENDBRANCH  25  26
ENDBRANCH  24  25
ENDBRANCH  23  24
ENDBRANCH   1  23
TORSDOF 8
ENDMDL
MODEL 3
REMARK VINA RESULT:      -6.2     10.216     13.038
REMARK  Name = 
REMARK  9 active torsions:
REMARK  status: ('A' for Active; 'I' for Inactive)
REMARK    1  A    between atoms: C_1  and  C_2
REMARK    2  A    between atoms: C_2  and  C_3
REMARK    3  A    between atoms: C_3  and  C_4
REMARK    4  A    between atoms: C_4  and  C_5
REMARK    5  A    between atoms: C_5  and  C_6
REMARK    6  A    between atoms: C_6  and  C_7
REMARK    7  A    between atoms: C_7  and  N_8
REMARK    8  A    between atoms: C_12  and  C_14
REMARK    9  A    between atoms: C_23  and  C_24
REMARK                            x       y       z     vdW  Elec       q    Type
REMARK                         _______ _______ _______ _____ _____    ______ ____
ROOT
ATOM      1  N   UNL     1      -3.707  10.821  16.847  0.00  0.00    +0.000 NA
ATOM      2  C   UNL     1      -3.180   9.580  17.451  0.00  0.00    +0.000 C 
ATOM      3  C   UNL     1      -1.819   9.689  18.193  0.00  0.00    +0.000 C 
ATOM      4  N   UNL     1      -1.645  10.916  18.989  0.00  0.00    +0.000 N 
ATOM      5  C   UNL     1      -0.954  10.837  20.208  0.00  0.00    +0.000 C 
ATOM      6  O   UNL     1      -0.436   9.787  20.591  0.00  0.00    +0.000 OA
ATOM      7  C   UNL     1      -2.215  12.142  18.405  0.00  0.00    +0.000 C 
ATOM      8  C   UNL     1      -3.642  11.930  17.844  0.00  0.00    +0.000 C 
ENDROOT
BRANCH   5   9
ATOM      9  C   UNL     1      -0.831  12.036  21.099  0.00  0.00    +0.000 A 
ATOM     10  C   UNL     1      -1.730  12.184  22.170  0.00  0.00    +0.000 A 
ATOM     11  C   UNL     1      -1.589  13.223  23.090  0.00  0.00    +0.000 A 
ATOM     12  C   UNL     1      -0.618  14.195  22.885  0.00  0.00    +0.000 A 
ATOM     13  C   UNL     1       0.215  14.127  21.765  0.00  0.00    +0.000 A 
ATOM     14 CL   UNL     1       1.340  15.431  21.560  0.00  0.00    +0.000 Cl
ATOM     15  C   UNL     1       0.133  13.041  20.871  0.00  0.00    +0.000 A 
ATOM     16 CL   UNL     1       1.242  12.953  19.538  0.00  0.00    +0.000 Cl
ENDBRANCH   5   9
BRANCH   8  17
ATOM     17  C   UNL     1      -4.629  11.844  19.028  0.00  0.00    +0.000 A 
ATOM     18  C   UNL     1      -5.823  11.124  18.878  0.00  0.00    +0.000 A 
ATOM     19  C   UNL     1      -6.820  11.170  19.860  0.00  0.00    +0.000 A 
ATOM     20  C   UNL     1      -6.642  11.933  21.013  0.00  0.00    +0.000 A 
ATOM     21  C   UNL     1      -5.465  12.639  21.193  0.00  0.00    +0.000 A 
ATOM     22  C   UNL     1      -4.472  12.585  20.216  0.00  0.00    +0.000 A 
ENDBRANCH   8  17
BRANCH   1  23
ATOM     23  C   UNL     1      -2.946  11.178  15.624  0.00  0.00    +0.000 C 
BRANCH  23  24
ATOM     24  C   UNL     1      -2.893  10.081  14.545  0.00  0.00    +0.000 C 
BRANCH  24  25
ATOM     25  C   UNL     1      -4.176   9.923  13.730  0.00  0.00    +0.000 C 
BRANCH  25  26
ATOM     26  C   UNL     1      -3.888   9.690  12.247  0.00  0.00    +0.000 C 
BRANCH  26  27
ATOM     27  C   UNL     1      -5.102  10.006  11.380  0.00  0.00    +0.000 C 
BRANCH  27  29
ATOM     28  C   UNL     1      -7.612   9.888  11.413  0.00  0.00    +0.000 C 
ATOM     29  C   UNL     1      -6.322   9.226  11.864  0.00  0.00    +0.000 C 
ENDBRANCH  27  29
ENDBRANCH  26  27
ENDBRANCH  25  26
ENDBRANCH  24  25
ENDBRANCH  23  24
ENDBRANCH   1  23
TORSDOF 8
ENDMDL
MODEL 4
REMARK VINA RESULT:      -6.1      9.859     10.948
REMARK  Name = 
REMARK  9 active torsions:
REMARK  status: ('A' for Active; 'I' for Inactive)
REMARK    1  A    between atoms: C_1  and  C_2
REMARK    2  A    between atoms: C_2  and  C_3
REMARK    3  A    between atoms: C_3  and  C_4
REMARK    4  A    between atoms: C_4  and  C_5
REMARK    5  A    between atoms: C_5  and  C_6
REMARK    6  A    between atoms: C_6  and  C_7
REMARK    7  A    between atoms: C_7  and  N_8
REMARK    8  A    between atoms: C_12  and  C_14
REMARK    9  A    between atoms: C_23  and  C_24
REMARK                            x       y       z     vdW  Elec       q    Type
REMARK                         _______ _______ _______ _____ _____    ______ ____
ROOT
ATOM      1  N   UNL     1       0.834  11.437  18.870  0.00  0.00    +0.000 NA
ATOM      2  C   UNL     1       0.847  10.413  19.935  0.00  0.00    +0.000 C 
ATOM      3  C   UNL     1       0.536  10.902  21.377  0.00  0.00    +0.000 C 
ATOM      4  N   UNL     1      -0.532  11.913  21.470  0.00  0.00    +0.000 N 
ATOM      5  C   UNL     1      -1.405  11.874  22.568  0.00  0.00    +0.000 C 
ATOM      6  O   UNL     1      -1.257  11.061  23.482  0.00  0.00    +0.000 OA
ATOM      7  C   UNL     1      -0.571  12.903  20.380  0.00  0.00    +0.000 C 
ATOM      8  C   UNL     1      -0.408  12.259  18.981  0.00  0.00    +0.000 C 
ENDROOT
BRANCH   5   9
ATOM      9  C   UNL     1      -2.562  12.820  22.662  0.00  0.00    +0.000 A 
ATOM     10  C   UNL     1      -3.798  12.442  22.108  0.00  0.00    +0.000 A 
ATOM     11  C   UNL     1      -4.932  13.239  22.264  0.00  0.00    +0.000 A 
ATOM     12  C   UNL     1      -4.819  14.482  22.876  0.00  0.00    +0.000 A 
ATOM     13  C   UNL     1      -3.576  14.925  23.336  0.00  0.00    +0.000 A 
ATOM     14 CL   UNL     1      -3.528  16.521  24.011  0.00  0.00    +0.000 Cl
ATOM     15  C   UNL     1      -2.440  14.095  23.252  0.00  0.00    +0.000 A 
ATOM     16 CL   UNL     1      -0.932  14.653  23.910  0.00  0.00    +0.000 Cl
ENDBRANCH   5   9
BRANCH   8  17
ATOM     17  C   UNL     1      -1.729  11.555  18.605  0.00  0.00    +0.000 A 
ATOM     18  C   UNL     1      -1.693  10.403  17.806  0.00  0.00    +0.000 A 
ATOM     19  C   UNL     1      -2.871   9.842  17.298  0.00  0.00    +0.000 A 
ATOM     20  C   UNL     1      -4.108  10.418  17.582  0.00  0.00    +0.000 A 
ATOM     21  C   UNL     1      -4.172  11.546  18.382  0.00  0.00    +0.000 A 
ATOM     22  C   UNL     1      -2.998  12.098  18.891  0.00  0.00    +0.000 A 
ENDBRANCH   8  17
BRANCH   1  23
ATOM     23  C   UNL     1       2.037  12.301  18.953  0.00  0.00    +0.000 C 
BRANCH  23  24
ATOM     24  C   UNL     1       2.106  13.428  17.907  0.00  0.00    +0.000 C 
BRANCH  24  25
ATOM     25  C   UNL     1       2.587  14.774  18.449  0.00  0.00    +0.000 C 
BRANCH  25  26
ATOM     26  C   UNL     1       1.426  15.734  18.712  0.00  0.00    +0.000 C 
BRANCH  26  27
ATOM     27  C   UNL     1       1.854  17.190  18.567  0.00  0.00    +0.000 C 
BRANCH  27  29
ATOM     28  C   UNL     1       0.877  18.467  16.635  0.00  0.00    +0.000 C 
ATOM     29  C   UNL     1       2.004  17.558  17.092  0.00  0.00    +0.000 C 
ENDBRANCH  27  29
ENDBRANCH  26  27
ENDBRANCH  25  26
ENDBRANCH  24  25
ENDBRANCH  23  24
ENDBRANCH   1  23
TORSDOF 8
ENDMDL
MODEL 5
REMARK VINA RESULT:      -6.1      7.727     10.725
REMARK  Name = 
REMARK  9 active torsions:
REMARK  status: ('A' for Active; 'I' for Inactive)
REMARK    1  A    between atoms: C_1  and  C_2
REMARK    2  A    between atoms: C_2  and  C_3
REMARK    3  A    between atoms: C_3  and  C_4
REMARK    4  A    between atoms: C_4  and  C_5
REMARK    5  A    between atoms: C_5  and  C_6
REMARK    6  A    between atoms: C_6  and  C_7
REMARK    7  A    between atoms: C_7  and  N_8
REMARK    8  A    between atoms: C_12  and  C_14
REMARK    9  A    between atoms: C_23  and  C_24
REMARK                            x       y       z     vdW  Elec       q    Type
REMARK                         _______ _______ _______ _____ _____    ______ ____
ROOT
ATOM      1  N   UNL     1       0.693   8.987  19.170  0.00  0.00    +0.000 NA
ATOM      2  C   UNL     1       0.332   9.266  20.576  0.00  0.00    +0.000 C 
ATOM      3  C   UNL     1       0.931  10.555  21.206  0.00  0.00    +0.000 C 
ATOM      4  N   UNL     1       0.970  11.721  20.308  0.00  0.00    +0.000 N 
ATOM      5  C   UNL     1       0.730  12.995  20.846  0.00  0.00    +0.000 C 
ATOM      6  O   UNL     1       0.555  13.164  22.053  0.00  0.00    +0.000 OA
ATOM      7  C   UNL     1       1.281  11.432  18.898  0.00  0.00    +0.000 C 
ATOM      8  C   UNL     1       0.494  10.218  18.348  0.00  0.00    +0.000 C 
ENDROOT
BRANCH   5   9
ATOM      9  C   UNL     1       0.666  14.202  19.960  0.00  0.00    +0.000 A 
ATOM     10  C   UNL     1      -0.591  14.743  19.635  0.00  0.00    +0.000 A 
ATOM     11  C   UNL     1      -0.699  15.927  18.905  0.00  0.00    +0.000 A 
ATOM     12  C   UNL     1       0.446  16.523  18.391  0.00  0.00    +0.000 A 
ATOM     13  C   UNL     1       1.698  15.940  18.609  0.00  0.00    +0.000 A 
ATOM     14 CL   UNL     1       3.053  16.719  17.859  0.00  0.00    +0.000 Cl
ATOM     15  C   UNL     1       1.825  14.788  19.410  0.00  0.00    +0.000 A 
ATOM     16 CL   UNL     1       3.407  14.144  19.724  0.00  0.00    +0.000 Cl
ENDBRANCH   5   9
BRANCH   8  17
ATOM     17  C   UNL     1      -0.968  10.647  18.104  0.00  0.00    +0.000 A 
ATOM     18  C   UNL     1      -1.555  11.603  18.944  0.00  0.00    +0.000 A 
ATOM     19  C   UNL     1      -2.925  11.886  18.867  0.00  0.00    +0.000 A 
ATOM     20  C   UNL     1      -3.733  11.222  17.946  0.00  0.00    +0.000 A 
ATOM     21  C   UNL     1      -3.174  10.285  17.093  0.00  0.00    +0.000 A 
ATOM     22  C   UNL     1      -1.810  10.011  17.169  0.00  0.00    +0.000 A 
ENDBRANCH   8  17
BRANCH   1  23
ATOM     23  C   UNL     1       2.096   8.515  19.068  0.00  0.00    +0.000 C 
BRANCH  23  24
ATOM     24  C   UNL     1       2.322   7.343  18.096  0.00  0.00    +0.000 C 
BRANCH  24  25
ATOM     25  C   UNL     1       2.400   5.968  18.760  0.00  0.00    +0.000 C 
BRANCH  25  26
ATOM     26  C   UNL     1       1.802   4.872  17.879  0.00  0.00    +0.000 C 
BRANCH  26  27
ATOM     27  C   UNL     1       2.181   3.480  18.374  0.00  0.00    +0.000 C 
BRANCH  27  29
ATOM     28  C   UNL     1       1.135   3.018  20.612  0.00  0.00    +0.000 C 
ATOM     29  C   UNL     1       1.008   2.837  19.110  0.00  0.00    +0.000 C 
ENDBRANCH  27  29
ENDBRANCH  26  27
ENDBRANCH  25  26
ENDBRANCH  24  25
ENDBRANCH  23  24
ENDBRANCH   1  23
TORSDOF 8
ENDMDL
MODEL 6
REMARK VINA RESULT:      -6.1      0.755      1.279
REMARK  Name = 
REMARK  9 active torsions:
REMARK  status: ('A' for Active; 'I' for Inactive)
REMARK    1  A    between atoms: C_1  and  C_2
REMARK    2  A    between atoms: C_2  and  C_3
REMARK    3  A    between atoms: C_3  and  C_4
REMARK    4  A    between atoms: C_4  and  C_5
REMARK    5  A    between atoms: C_5  and  C_6
REMARK    6  A    between atoms: C_6  and  C_7
REMARK    7  A    between atoms: C_7  and  N_8
REMARK    8  A    between atoms: C_12  and  C_14
REMARK    9  A    between atoms: C_23  and  C_24
REMARK                            x       y       z     vdW  Elec       q    Type
REMARK                         _______ _______ _______ _____ _____    ______ ____
ROOT
ATOM      1  N   UNL     1       7.315   7.320  17.063  0.00  0.00    +0.000 NA
ATOM      2  C   UNL     1       8.047   6.350  17.903  0.00  0.00    +0.000 C 
ATOM      3  C   UNL     1       7.243   5.674  19.049  0.00  0.00    +0.000 C 
ATOM      4  N   UNL     1       5.859   5.308  18.700  0.00  0.00    +0.000 N 
ATOM      5  C   UNL     1       5.322   4.123  19.227  0.00  0.00    +0.000 C 
ATOM      6  O   UNL     1       5.954   3.424  20.021  0.00  0.00    +0.000 OA
ATOM      7  C   UNL     1       5.150   6.254  17.822  0.00  0.00    +0.000 C 
ATOM      8  C   UNL     1       6.015   6.726  16.629  0.00  0.00    +0.000 C 
ENDROOT
BRANCH   5   9
ATOM      9  C   UNL     1       3.954   3.658  18.830  0.00  0.00    +0.000 A 
ATOM     10  C   UNL     1       3.802   2.926  17.639  0.00  0.00    +0.000 A 
ATOM     11  C   UNL     1       2.570   2.379  17.281  0.00  0.00    +0.000 A 
ATOM     12  C   UNL     1       1.447   2.656  18.051  0.00  0.00    +0.000 A 
ATOM     13  C   UNL     1       1.555   3.473  19.180  0.00  0.00    +0.000 A 
ATOM     14 CL   UNL     1       0.082   3.821  20.025  0.00  0.00    +0.000 Cl
ATOM     15  C   UNL     1       2.809   3.967  19.593  0.00  0.00    +0.000 A 
ATOM     16 CL   UNL     1       2.911   4.911  21.047  0.00  0.00    +0.000 Cl
ENDBRANCH   5   9
BRANCH   8  17
ATOM     17  C   UNL     1       6.098   5.582  15.596  0.00  0.00    +0.000 A 
ATOM     18  C   UNL     1       7.252   5.444  14.812  0.00  0.00    +0.000 A 
ATOM     19  C   UNL     1       7.295   4.535  13.747  0.00  0.00    +0.000 A 
ATOM     20  C   UNL     1       6.187   3.744  13.448  0.00  0.00    +0.000 A 
ATOM     21  C   UNL     1       5.041   3.849  14.218  0.00  0.00    +0.000 A 
ATOM     22  C   UNL     1       5.005   4.750  15.281  0.00  0.00    +0.000 A 
ENDBRANCH   8  17
BRANCH   1  23
ATOM     23  C   UNL     1       7.086   8.589  17.797  0.00  0.00    +0.000 C 
BRANCH  23  24
ATOM     24  C   UNL     1       8.257   9.587  17.757  0.00  0.00    +0.000 C 
BRANCH  24  25
ATOM     25  C   UNL     1       8.929   9.838  19.107  0.00  0.00    +0.000 C 
BRANCH  25  26
ATOM     26  C   UNL     1       9.933  10.989  19.042  0.00  0.00    +0.000 C 
BRANCH  26  27
ATOM     27  C   UNL     1      10.365  11.439  20.433  0.00  0.00    +0.000 C 
BRANCH  27  29
ATOM     28  C   UNL     1       8.624  11.983  22.161  0.00  0.00    +0.000 C 
ATOM     29  C   UNL     1       9.410  12.502  20.972  0.00  0.00    +0.000 C 
ENDBRANCH  27  29
ENDBRANCH  26  27
ENDBRANCH  25  26
ENDBRANCH  24  25
ENDBRANCH  23  24
ENDBRANCH   1  23
TORSDOF 8
ENDMDL
MODEL 7
REMARK VINA RESULT:      -6.1      9.738     10.940
REMARK  Name = 
REMARK  9 active torsions:
REMARK  status: ('A' for Active; 'I' for Inactive)
REMARK    1  A    between atoms: C_1  and  C_2
REMARK    2  A    between atoms: C_2  and  C_3
REMARK    3  A    between atoms: C_3  and  C_4
REMARK    4  A    between atoms: C_4  and  C_5
REMARK    5  A    between atoms: C_5  and  C_6
REMARK    6  A    between atoms: C_6  and  C_7
REMARK    7  A    between atoms: C_7  and  N_8
REMARK    8  A    between atoms: C_12  and  C_14
REMARK    9  A    between atoms: C_23  and  C_24
REMARK                            x       y       z     vdW  Elec       q    Type
REMARK                         _______ _______ _______ _____ _____    ______ ____
ROOT
ATOM      1  N   UNL     1       0.870  11.136  18.684  0.00  0.00    +0.000 NA
ATOM      2  C   UNL     1       0.856  10.142  19.777  0.00  0.00    +0.000 C 
ATOM      3  C   UNL     1       0.648  10.692  21.216  0.00  0.00    +0.000 C 
ATOM      4  N   UNL     1      -0.337  11.782  21.325  0.00  0.00    +0.000 N 
ATOM      5  C   UNL     1      -1.159  11.837  22.461  0.00  0.00    +0.000 C 
ATOM      6  O   UNL     1      -1.030  11.040  23.391  0.00  0.00    +0.000 OA
ATOM      7  C   UNL     1      -0.353  12.742  20.208  0.00  0.00    +0.000 C 
ATOM      8  C   UNL     1      -0.302  12.051  18.824  0.00  0.00    +0.000 C 
ENDROOT
BRANCH   5   9
ATOM      9  C   UNL     1      -2.239  12.869  22.576  0.00  0.00    +0.000 A 
ATOM     10  C   UNL     1      -3.574  12.487  22.354  0.00  0.00    +0.000 A 
ATOM     11  C   UNL     1      -4.624  13.383  22.556  0.00  0.00    +0.000 A 
ATOM     12  C   UNL     1      -4.344  14.708  22.869  0.00  0.00    +0.000 A 
ATOM     13  C   UNL     1      -3.019  15.135  22.986  0.00  0.00    +0.000 A 
ATOM     14 CL   UNL     1      -2.778  16.823  23.301  0.00  0.00    +0.000 Cl
ATOM     15  C   UNL     1      -1.954  14.221  22.861  0.00  0.00    +0.000 A 
ATOM     16 CL   UNL     1      -0.326  14.778  23.095  0.00  0.00    +0.000 Cl
ENDBRANCH   5   9
BRANCH   8  17
ATOM     17  C   UNL     1      -1.687  11.437  18.527  0.00  0.00    +0.000 A 
ATOM     18  C   UNL     1      -1.779  10.321  17.684  0.00  0.00    +0.000 A 
ATOM     19  C   UNL     1      -3.023   9.848  17.250  0.00  0.00    +0.000 A 
ATOM     20  C   UNL     1      -4.200  10.478  17.652  0.00  0.00    +0.000 A 
ATOM     21  C   UNL     1      -4.136  11.573  18.498  0.00  0.00    +0.000 A 
ATOM     22  C   UNL     1      -2.896  12.037  18.933  0.00  0.00    +0.000 A 
ENDBRANCH   8  17
BRANCH   1  23
ATOM     23  C   UNL     1       2.136  11.909  18.688  0.00  0.00    +0.000 C 
BRANCH  23  24
ATOM     24  C   UNL     1       2.079  13.260  17.951  0.00  0.00    +0.000 C 
BRANCH  24  25
ATOM     25  C   UNL     1       2.871  14.385  18.618  0.00  0.00    +0.000 C 
BRANCH  25  26
ATOM     26  C   UNL     1       2.238  15.754  18.372  0.00  0.00    +0.000 C 
BRANCH  26  27
ATOM     27  C   UNL     1       1.176  16.081  19.417  0.00  0.00    +0.000 C 
BRANCH  27  29
ATOM     28  C   UNL     1      -1.293  16.342  19.808  0.00  0.00    +0.000 C 
ATOM     29  C   UNL     1      -0.201  16.186  18.765  0.00  0.00    +0.000 C 
ENDBRANCH  27  29
ENDBRANCH  26  27
ENDBRANCH  25  26
ENDBRANCH  24  25
ENDBRANCH  23  24
ENDBRANCH   1  23
TORSDOF 8
ENDMDL
MODEL 8
REMARK VINA RESULT:      -6.1     10.145     12.875
REMARK  Name = 
REMARK  9 active torsions:
REMARK  status: ('A' for Active; 'I' for Inactive)
REMARK    1  A    between atoms: C_1  and  C_2
REMARK    2  A    between atoms: C_2  and  C_3
REMARK    3  A    between atoms: C_3  and  C_4
REMARK    4  A    between atoms: C_4  and  C_5
REMARK    5  A    between atoms: C_5  and  C_6
REMARK    6  A    between atoms: C_6  and  C_7
REMARK    7  A    between atoms: C_7  and  N_8
REMARK    8  A    between atoms: C_12  and  C_14
REMARK    9  A    between atoms: C_23  and  C_24
REMARK                            x       y       z     vdW  Elec       q    Type
REMARK                         _______ _______ _______ _____ _____    ______ ____
ROOT
ATOM      1  N   UNL     1      -1.091  10.435  18.900  0.00  0.00    +0.000 NA
ATOM      2  C   UNL     1       0.318  10.607  19.307  0.00  0.00    +0.000 C 
ATOM      3  C   UNL     1       1.034  11.895  18.811  0.00  0.00    +0.000 C 
ATOM      4  N   UNL     1       0.204  13.112  18.835  0.00  0.00    +0.000 N 
ATOM      5  C   UNL     1       0.806  14.334  19.173  0.00  0.00    +0.000 C 
ATOM      6  O   UNL     1       2.017  14.420  19.384  0.00  0.00    +0.000 OA
ATOM      7  C   UNL     1      -1.212  12.926  18.475  0.00  0.00    +0.000 C 
ATOM      8  C   UNL     1      -1.848  11.694  19.166  0.00  0.00    +0.000 C 
ENDROOT
BRANCH   5   9
ATOM      9  C   UNL     1      -0.012  15.582  19.302  0.00  0.00    +0.000 A 
ATOM     10  C   UNL     1      -0.151  16.425  18.185  0.00  0.00    +0.000 A 
ATOM     11  C   UNL     1      -0.989  17.539  18.223  0.00  0.00    +0.000 A 
ATOM     12  C   UNL     1      -1.609  17.892  19.416  0.00  0.00    +0.000 A 
ATOM     13  C   UNL     1      -1.396  17.129  20.567  0.00  0.00    +0.000 A 
ATOM     14 CL   UNL     1      -2.152  17.700  22.020  0.00  0.00    +0.000 Cl
ATOM     15  C   UNL     1      -0.614  15.959  20.521  0.00  0.00    +0.000 A 
ATOM     16 CL   UNL     1      -0.443  14.996  21.957  0.00  0.00    +0.000 Cl
ENDBRANCH   5   9
BRANCH   8  17
ATOM     17  C   UNL     1      -2.103  12.037  20.649  0.00  0.00    +0.000 A 
ATOM     18  C   UNL     1      -1.311  11.441  21.640  0.00  0.00    +0.000 A 
ATOM     19  C   UNL     1      -1.625  11.587  22.997  0.00  0.00    +0.000 A 
ATOM     20  C   UNL     1      -2.734  12.334  23.390  0.00  0.00    +0.000 A 
ATOM     21  C   UNL     1      -3.523  12.947  22.431  0.00  0.00    +0.000 A 
ATOM     22  C   UNL     1      -3.203  12.805  21.082  0.00  0.00    +0.000 A 
ENDBRANCH   8  17
BRANCH   1  23
ATOM     23  C   UNL     1      -1.186  10.066  17.466  0.00  0.00    +0.000 C 
BRANCH  23  24
ATOM     24  C   UNL     1      -2.617   9.993  16.902  0.00  0.00    +0.000 C 
BRANCH  24  25
ATOM     25  C   UNL     1      -2.848  10.821  15.637  0.00  0.00    +0.000 C 
BRANCH  25  26
ATOM     26  C   UNL     1      -2.843   9.956  14.378  0.00  0.00    +0.000 C 
BRANCH  26  27
ATOM     27  C   UNL     1      -4.225   9.882  13.738  0.00  0.00    +0.000 C 
BRANCH  27  29
ATOM     28  C   UNL     1      -5.455   9.547  11.573  0.00  0.00    +0.000 C 
ATOM     29  C   UNL     1      -4.107   9.813  12.217  0.00  0.00    +0.000 C 
ENDBRANCH  27  29
ENDBRANCH  26  27
ENDBRANCH  25  26
ENDBRANCH  24  25
ENDBRANCH  23  24
ENDBRANCH   1  23
TORSDOF 8
ENDMDL
MODEL 9
REMARK VINA RESULT:      -6.1      9.709     12.742
REMARK  Name = 
REMARK  9 active torsions:
REMARK  status: ('A' for Active; 'I' for Inactive)
REMARK    1  A    between atoms: C_1  and  C_2
REMARK    2  A    between atoms: C_2  and  C_3
REMARK    3  A    between atoms: C_3  and  C_4
REMARK    4  A    between atoms: C_4  and  C_5
REMARK    5  A    between atoms: C_5  and  C_6
REMARK    6  A    between atoms: C_6  and  C_7
REMARK    7  A    between atoms: C_7  and  N_8
REMARK    8  A    between atoms: C_12  and  C_14
REMARK    9  A    between atoms: C_23  and  C_24
REMARK                            x       y       z     vdW  Elec       q    Type
REMARK                         _______ _______ _______ _____ _____    ______ ____
ROOT
ATOM      1  N   UNL     1      -1.163  10.413  18.924  0.00  0.00    +0.000 NA
ATOM      2  C   UNL     1       0.233  10.230  19.372  0.00  0.00    +0.000 C 
ATOM      3  C   UNL     1       1.251  11.327  18.949  0.00  0.00    +0.000 C 
ATOM      4  N   UNL     1       0.732  12.704  19.005  0.00  0.00    +0.000 N 
ATOM      5  C   UNL     1       1.596  13.734  19.410  0.00  0.00    +0.000 C 
ATOM      6  O   UNL     1       2.785  13.522  19.653  0.00  0.00    +0.000 OA
ATOM      7  C   UNL     1      -0.675  12.875  18.605  0.00  0.00    +0.000 C 
ATOM      8  C   UNL     1      -1.607  11.806  19.226  0.00  0.00    +0.000 C 
ENDROOT
BRANCH   5   9
ATOM      9  C   UNL     1       1.094  15.136  19.573  0.00  0.00    +0.000 A 
ATOM     10  C   UNL     1       1.194  16.027  18.490  0.00  0.00    +0.000 A 
ATOM     11  C   UNL     1       0.644  17.307  18.556  0.00  0.00    +0.000 A 
ATOM     12  C   UNL     1       0.088  17.754  19.748  0.00  0.00    +0.000 A 
ATOM     13  C   UNL     1       0.077  16.923  20.871  0.00  0.00    +0.000 A 
ATOM     14 CL   UNL     1      -0.569  17.605  22.329  0.00  0.00    +0.000 Cl
ATOM     15  C   UNL     1       0.560  15.602  20.793  0.00  0.00    +0.000 A 
ATOM     16 CL   UNL     1       0.451  14.575  22.190  0.00  0.00    +0.000 Cl
ENDBRANCH   5   9
BRANCH   8  17
ATOM     17  C   UNL     1      -1.823  12.146  20.716  0.00  0.00    +0.000 A 
ATOM     18  C   UNL     1      -1.227  11.344  21.699  0.00  0.00    +0.000 A 
ATOM     19  C   UNL     1      -1.542  11.511  23.054  0.00  0.00    +0.000 A 
ATOM     20  C   UNL     1      -2.456  12.486  23.452  0.00  0.00    +0.000 A 
ATOM     21  C   UNL     1      -3.045  13.302  22.502  0.00  0.00    +0.000 A 
ATOM     22  C   UNL     1      -2.724  13.137  21.156  0.00  0.00    +0.000 A 
ENDBRANCH   8  17
BRANCH   1  23
ATOM     23  C   UNL     1      -1.294  10.129  17.474  0.00  0.00    +0.000 C 
BRANCH  23  24
ATOM     24  C   UNL     1      -2.725   9.821  16.995  0.00  0.00    +0.000 C 
BRANCH  24  25
ATOM     25  C   UNL     1      -3.326  10.872  16.061  0.00  0.00    +0.000 C 
BRANCH  25  26
ATOM     26  C   UNL     1      -4.553  11.547  16.672  0.00  0.00    +0.000 C 
BRANCH  26  27
ATOM     27  C   UNL     1      -4.924  10.932  18.017  0.00  0.00    +0.000 C 
BRANCH  27  29
ATOM     28  C   UNL     1      -6.908   9.942  19.200  0.00  0.00    +0.000 C 
ATOM     29  C   UNL     1      -6.431  11.024  18.249  0.00  0.00    +0.000 C 
ENDBRANCH  27  29
ENDBRANCH  26  27
ENDBRANCH  25  26
ENDBRANCH  24  25
ENDBRANCH  23  24
ENDBRANCH   1  23
TORSDOF 8
ENDMDL
