MODEL 1
REMARK VINA RESULT:      -6.2      0.000      0.000
REMARK  Name = 
REMARK  3 active torsions:
REMARK  status: ('A' for Active; 'I' for Inactive)
REMARK    1  A    between atoms: N_1  and  C_2
REMARK    2  A    between atoms: C_5  and  C_6
REMARK    3  A    between atoms: C_6  and  C_7
REMARK                            x       y       z     vdW  Elec       q    Type
REMARK                         _______ _______ _______ _____ _____    ______ ____
ROOT
ATOM      1  C   UNL     1       6.547   4.552  17.920  0.00  0.00    +0.000 A 
ATOM      2  C   UNL     1       5.990   5.087  19.083  0.00  0.00    +0.000 A 
ATOM      3  C   UNL     1       4.627   5.395  19.150  0.00  0.00    +0.000 A 
ATOM      4  C   UNL     1       3.798   5.205  18.037  0.00  0.00    +0.000 A 
ATOM      5  C   UNL     1       4.372   4.731  16.850  0.00  0.00    +0.000 A 
ATOM      6  C   UNL     1       5.738   4.431  16.788  0.00  0.00    +0.000 A 
ENDROOT
BRANCH   1   7
ATOM      7  N   UNL     1       7.931   4.358  17.823  0.00  0.00    +0.000 N 
ATOM      8  H   UNL     1       8.300   3.728  18.529  0.00  0.00    +0.000 HD
ATOM      9  H   UNL     1       8.242   4.112  16.890  0.00  0.00    +0.000 HD
ENDBRANCH   1   7
BRANCH   4  10
ATOM     10  C   UNL     1       2.319   5.496  18.120  0.00  0.00    +0.000 C 
BRANCH  10  11
ATOM     11  C   UNL     1       1.659   4.334  18.780  0.00  0.00    +0.000 A 
ATOM     12  C   UNL     1       1.183   4.200  20.070  0.00  0.00    +0.000 A 
ATOM     13  N   UNL     1       0.607   2.962  20.121  0.00  0.00    +0.000 N 
ATOM     14  C   UNL     1       0.727   2.401  18.883  0.00  0.00    +0.000 A 
ATOM     15  N   UNL     1       1.354   3.200  18.051  0.00  0.00    +0.000 NA
ATOM     16  H   UNL     1       0.157   2.540  20.922  0.00  0.00    +0.000 HD
ENDBRANCH  10  11
ENDBRANCH   4  10
TORSDOF 3
ENDMDL
MODEL 2
REMARK VINA RESULT:      -6.1      0.185      1.345
REMARK  Name = 
REMARK  3 active torsions:
REMARK  status: ('A' for Active; 'I' for Inactive)
REMARK    1  A    between atoms: N_1  and  C_2
REMARK    2  A    between atoms: C_5  and  C_6
REMARK    3  A    between atoms: C_6  and  C_7
REMARK                            x       y       z     vdW  Elec       q    Type
REMARK                         _______ _______ _______ _____ _____    ______ ____
ROOT
ATOM      1  C   UNL     1       6.693   4.631  17.717  0.00  0.00    +0.000 A 
ATOM      2  C   UNL     1       5.829   4.345  16.660  0.00  0.00    +0.000 A 
ATOM      3  C   UNL     1       4.462   4.626  16.754  0.00  0.00    +0.000 A 
ATOM      4  C   UNL     1       3.925   5.170  17.929  0.00  0.00    +0.000 A 
ATOM      5  C   UNL     1       4.785   5.395  19.013  0.00  0.00    +0.000 A 
ATOM      6  C   UNL     1       6.149   5.104  18.913  0.00  0.00    +0.000 A 
ENDROOT
BRANCH   1   7
ATOM      7  N   UNL     1       8.037   4.238  17.658  0.00  0.00    +0.000 N 
ATOM      8  H   UNL     1       8.516   4.562  16.824  0.00  0.00    +0.000 HD
ATOM      9  H   UNL     1       8.558   4.445  18.504  0.00  0.00    +0.000 HD
ENDBRANCH   1   7
BRANCH   4  10
ATOM     10  C   UNL     1       2.458   5.515  18.018  0.00  0.00    +0.000 C 
BRANCH  10  11
ATOM     11  C   UNL     1       1.762   4.390  18.703  0.00  0.00    +0.000 A 
ATOM     12  C   UNL     1       1.348   4.273  20.016  0.00  0.00    +0.000 A 
ATOM     13  N   UNL     1       0.699   3.073  20.089  0.00  0.00    +0.000 N 
ATOM     14  C   UNL     1       0.717   2.519  18.842  0.00  0.00    +0.000 A 
ATOM     15  N   UNL     1       1.348   3.286  17.983  0.00  0.00    +0.000 NA
ATOM     16  H   UNL     1       0.266   2.671  20.910  0.00  0.00    +0.000 HD
ENDBRANCH  10  11
ENDBRANCH   4  10
TORSDOF 3
ENDMDL
MODEL 3
REMARK VINA RESULT:      -6.0      1.253      5.162
REMARK  Name = 
REMARK  3 active torsions:
REMARK  status: ('A' for Active; 'I' for Inactive)
REMARK    1  A    between atoms: N_1  and  C_2
REMARK    2  A    between atoms: C_5  and  C_6
REMARK    3  A    between atoms: C_6  and  C_7
REMARK                            x       y       z     vdW  Elec       q    Type
REMARK                         _______ _______ _______ _____ _____    ______ ____
ROOT
ATOM      1  C   UNL     1       1.366   3.921  19.661  0.00  0.00    +0.000 A 
ATOM      2  C   UNL     1       1.717   3.684  18.331  0.00  0.00    +0.000 A 
ATOM      3  C   UNL     1       2.657   4.491  17.682  0.00  0.00    +0.000 A 
ATOM      4  C   UNL     1       3.240   5.579  18.344  0.00  0.00    +0.000 A 
ATOM      5  C   UNL     1       2.837   5.855  19.658  0.00  0.00    +0.000 A 
ATOM      6  C   UNL     1       1.891   5.047  20.298  0.00  0.00    +0.000 A 
ENDROOT
BRANCH   1   7
ATOM      7  N   UNL     1       0.340   3.182  20.265  0.00  0.00    +0.000 N 
ATOM      8  H   UNL     1      -0.410   2.936  19.626  0.00  0.00    +0.000 HD
ATOM      9  H   UNL     1       0.672   2.382  20.792  0.00  0.00    +0.000 HD
ENDBRANCH   1   7
BRANCH   4  10
ATOM     10  C   UNL     1       4.287   6.425  17.660  0.00  0.00    +0.000 C 
BRANCH  10  11
ATOM     11  C   UNL     1       5.554   5.642  17.616  0.00  0.00    +0.000 A 
ATOM     12  C   UNL     1       6.300   5.104  18.647  0.00  0.00    +0.000 A 
ATOM     13  N   UNL     1       7.319   4.423  18.044  0.00  0.00    +0.000 N 
ATOM     14  C   UNL     1       7.155   4.544  16.695  0.00  0.00    +0.000 A 
ATOM     15  N   UNL     1       6.101   5.271  16.402  0.00  0.00    +0.000 NA
ATOM     16  H   UNL     1       8.055   3.906  18.507  0.00  0.00    +0.000 HD
ENDBRANCH  10  11
ENDBRANCH   4  10
TORSDOF 3
ENDMDL
MODEL 4
REMARK VINA RESULT:      -5.9      1.245      5.014
REMARK  Name = 
REMARK  3 active torsions:
REMARK  status: ('A' for Active; 'I' for Inactive)
REMARK    1  A    between atoms: N_1  and  C_2
REMARK    2  A    between atoms: C_5  and  C_6
REMARK    3  A    between atoms: C_6  and  C_7
REMARK                            x       y       z     vdW  Elec       q    Type
REMARK                         _______ _______ _______ _____ _____    ______ ____
ROOT
ATOM      1  C   UNL     1       1.247   3.831  19.676  0.00  0.00    +0.000 A 
ATOM      2  C   UNL     1       1.778   4.951  20.316  0.00  0.00    +0.000 A 
ATOM      3  C   UNL     1       2.735   5.752  19.684  0.00  0.00    +0.000 A 
ATOM      4  C   UNL     1       3.206   5.426  18.406  0.00  0.00    +0.000 A 
ATOM      5  C   UNL     1       2.720   4.263  17.792  0.00  0.00    +0.000 A 
ATOM      6  C   UNL     1       1.768   3.463  18.433  0.00  0.00    +0.000 A 
ENDROOT
BRANCH   1   7
ATOM      7  N   UNL     1       0.378   2.970  20.361  0.00  0.00    +0.000 N 
ATOM      8  H   UNL     1       0.082   3.329  21.262  0.00  0.00    +0.000 HD
ATOM      9  H   UNL     1      -0.404   2.651  19.799  0.00  0.00    +0.000 HD
ENDBRANCH   1   7
BRANCH   4  10
ATOM     10  C   UNL     1       4.206   6.312  17.704  0.00  0.00    +0.000 C 
BRANCH  10  11
ATOM     11  C   UNL     1       5.499   5.574  17.625  0.00  0.00    +0.000 A 
ATOM     12  C   UNL     1       6.216   4.934  18.617  0.00  0.00    +0.000 A 
ATOM     13  N   UNL     1       7.282   4.359  17.984  0.00  0.00    +0.000 N 
ATOM     14  C   UNL     1       7.172   4.641  16.653  0.00  0.00    +0.000 A 
ATOM     15  N   UNL     1       6.109   5.369  16.402  0.00  0.00    +0.000 NA
ATOM     16  H   UNL     1       8.013   3.810  18.415  0.00  0.00    +0.000 HD
ENDBRANCH  10  11
ENDBRANCH   4  10
TORSDOF 3
ENDMDL
MODEL 5
REMARK VINA RESULT:      -5.9      1.614      2.077
REMARK  Name = 
REMARK  3 active torsions:
REMARK  status: ('A' for Active; 'I' for Inactive)
REMARK    1  A    between atoms: N_1  and  C_2
REMARK    2  A    between atoms: C_5  and  C_6
REMARK    3  A    between atoms: C_6  and  C_7
REMARK                            x       y       z     vdW  Elec       q    Type
REMARK                         _______ _______ _______ _____ _____    ______ ____
ROOT
ATOM      1  C   UNL     1       6.739   5.116  15.840  0.00  0.00    +0.000 A 
ATOM      2  C   UNL     1       7.216   4.704  17.085  0.00  0.00    +0.000 A 
ATOM      3  C   UNL     1       6.351   4.570  18.176  0.00  0.00    +0.000 A 
ATOM      4  C   UNL     1       4.991   4.881  18.050  0.00  0.00    +0.000 A 
ATOM      5  C   UNL     1       4.527   5.358  16.817  0.00  0.00    +0.000 A 
ATOM      6  C   UNL     1       5.399   5.496  15.732  0.00  0.00    +0.000 A 
ENDROOT
BRANCH   1   7
ATOM      7  N   UNL     1       7.630   5.359  14.786  0.00  0.00    +0.000 N 
ATOM      8  H   UNL     1       8.447   4.758  14.802  0.00  0.00    +0.000 HD
ATOM      9  H   UNL     1       7.186   5.379  13.875  0.00  0.00    +0.000 HD
ENDBRANCH   1   7
BRANCH   4  10
ATOM     10  C   UNL     1       4.047   4.696  19.214  0.00  0.00    +0.000 C 
BRANCH  10  11
ATOM     11  C   UNL     1       3.107   3.591  18.872  0.00  0.00    +0.000 A 
ATOM     12  C   UNL     1       3.364   2.260  18.608  0.00  0.00    +0.000 A 
ATOM     13  N   UNL     1       2.140   1.680  18.432  0.00  0.00    +0.000 N 
ATOM     14  C   UNL     1       1.195   2.648  18.612  0.00  0.00    +0.000 A 
ATOM     15  N   UNL     1       1.743   3.811  18.881  0.00  0.00    +0.000 NA
ATOM     16  H   UNL     1       1.958   0.707  18.222  0.00  0.00    +0.000 HD
ENDBRANCH  10  11
ENDBRANCH   4  10
TORSDOF 3
ENDMDL
MODEL 6
REMARK VINA RESULT:      -5.9      1.393      5.123
REMARK  Name = 
REMARK  3 active torsions:
REMARK  status: ('A' for Active; 'I' for Inactive)
REMARK    1  A    between atoms: N_1  and  C_2
REMARK    2  A    between atoms: C_5  and  C_6
REMARK    3  A    between atoms: C_6  and  C_7
REMARK                            x       y       z     vdW  Elec       q    Type
REMARK                         _______ _______ _______ _____ _____    ______ ____
ROOT
ATOM      1  C   UNL     1       1.472   4.048  19.605  0.00  0.00    +0.000 A 
ATOM      2  C   UNL     1       2.097   5.154  20.181  0.00  0.00    +0.000 A 
ATOM      3  C   UNL     1       3.017   5.918  19.455  0.00  0.00    +0.000 A 
ATOM      4  C   UNL     1       3.355   5.568  18.141  0.00  0.00    +0.000 A 
ATOM      5  C   UNL     1       2.775   4.418  17.587  0.00  0.00    +0.000 A 
ATOM      6  C   UNL     1       1.862   3.655  18.322  0.00  0.00    +0.000 A 
ENDROOT
BRANCH   1   7
ATOM      7  N   UNL     1       0.643   3.221  20.376  0.00  0.00    +0.000 N 
ATOM      8  H   UNL     1       0.842   3.266  21.370  0.00  0.00    +0.000 HD
ATOM      9  H   UNL     1      -0.344   3.337  20.177  0.00  0.00    +0.000 HD
ENDBRANCH   1   7
BRANCH   4  10
ATOM     10  C   UNL     1       4.313   6.416  17.340  0.00  0.00    +0.000 C 
BRANCH  10  11
ATOM     11  C   UNL     1       5.573   5.641  17.162  0.00  0.00    +0.000 A 
ATOM     12  C   UNL     1       6.204   5.230  16.004  0.00  0.00    +0.000 A 
ATOM     13  N   UNL     1       7.359   4.624  16.411  0.00  0.00    +0.000 N 
ATOM     14  C   UNL     1       7.406   4.702  17.773  0.00  0.00    +0.000 A 
ATOM     15  N   UNL     1       6.348   5.309  18.257  0.00  0.00    +0.000 NA
ATOM     16  H   UNL     1       8.063   4.207  15.817  0.00  0.00    +0.000 HD
ENDBRANCH  10  11
ENDBRANCH   4  10
TORSDOF 3
ENDMDL
MODEL 7
REMARK VINA RESULT:      -5.8      1.437      5.178
REMARK  Name = 
REMARK  3 active torsions:
REMARK  status: ('A' for Active; 'I' for Inactive)
REMARK    1  A    between atoms: N_1  and  C_2
REMARK    2  A    between atoms: C_5  and  C_6
REMARK    3  A    between atoms: C_6  and  C_7
REMARK                            x       y       z     vdW  Elec       q    Type
REMARK                         _______ _______ _______ _____ _____    ______ ____
ROOT
ATOM      1  C   UNL     1       1.684   2.634  18.259  0.00  0.00    +0.000 A 
ATOM      2  C   UNL     1       1.498   4.016  18.236  0.00  0.00    +0.000 A 
ATOM      3  C   UNL     1       2.503   4.868  17.767  0.00  0.00    +0.000 A 
ATOM      4  C   UNL     1       3.734   4.352  17.342  0.00  0.00    +0.000 A 
ATOM      5  C   UNL     1       3.943   2.969  17.429  0.00  0.00    +0.000 A 
ATOM      6  C   UNL     1       2.935   2.124  17.905  0.00  0.00    +0.000 A 
ENDROOT
BRANCH   1   7
ATOM      7  N   UNL     1       0.719   1.799  18.838  0.00  0.00    +0.000 N 
ATOM      8  H   UNL     1       1.105   1.137  19.503  0.00  0.00    +0.000 HD
ATOM      9  H   UNL     1      -0.078   2.300  19.216  0.00  0.00    +0.000 HD
ENDBRANCH   1   7
BRANCH   4  10
ATOM     10  C   UNL     1       4.805   5.265  16.795  0.00  0.00    +0.000 C 
BRANCH  10  11
ATOM     11  C   UNL     1       6.003   5.146  17.673  0.00  0.00    +0.000 A 
ATOM     12  C   UNL     1       7.259   4.643  17.394  0.00  0.00    +0.000 A 
ATOM     13  N   UNL     1       7.993   4.844  18.528  0.00  0.00    +0.000 N 
ATOM     14  C   UNL     1       7.188   5.469  19.436  0.00  0.00    +0.000 A 
ATOM     15  N   UNL     1       5.983   5.667  18.953  0.00  0.00    +0.000 NA
ATOM     16  H   UNL     1       8.963   4.593  18.671  0.00  0.00    +0.000 HD
ENDBRANCH  10  11
ENDBRANCH   4  10
TORSDOF 3
ENDMDL
MODEL 8
REMARK VINA RESULT:      -5.8      1.617      2.295
REMARK  Name = 
REMARK  3 active torsions:
REMARK  status: ('A' for Active; 'I' for Inactive)
REMARK    1  A    between atoms: N_1  and  C_2
REMARK    2  A    between atoms: C_5  and  C_6
REMARK    3  A    between atoms: C_6  and  C_7
REMARK                            x       y       z     vdW  Elec       q    Type
REMARK                         _______ _______ _______ _____ _____    ______ ____
ROOT
ATOM      1  C   UNL     1       6.787   5.245  15.894  0.00  0.00    +0.000 A 
ATOM      2  C   UNL     1       5.416   5.453  15.745  0.00  0.00    +0.000 A 
ATOM      3  C   UNL     1       4.539   5.259  16.817  0.00  0.00    +0.000 A 
ATOM      4  C   UNL     1       5.017   4.816  18.057  0.00  0.00    +0.000 A 
ATOM      5  C   UNL     1       6.386   4.544  18.186  0.00  0.00    +0.000 A 
ATOM      6  C   UNL     1       7.256   4.734  17.107  0.00  0.00    +0.000 A 
ENDROOT
BRANCH   1   7
ATOM      7  N   UNL     1       7.641   5.329  14.786  0.00  0.00    +0.000 N 
ATOM      8  H   UNL     1       7.654   6.248  14.356  0.00  0.00    +0.000 HD
ATOM      9  H   UNL     1       8.575   4.975  14.965  0.00  0.00    +0.000 HD
ENDBRANCH   1   7
BRANCH   4  10
ATOM     10  C   UNL     1       4.080   4.647  19.228  0.00  0.00    +0.000 C 
BRANCH  10  11
ATOM     11  C   UNL     1       3.116   3.560  18.893  0.00  0.00    +0.000 A 
ATOM     12  C   UNL     1       3.339   2.214  18.678  0.00  0.00    +0.000 A 
ATOM     13  N   UNL     1       2.103   1.666  18.482  0.00  0.00    +0.000 N 
ATOM     14  C   UNL     1       1.184   2.667  18.603  0.00  0.00    +0.000 A 
ATOM     15  N   UNL     1       1.760   3.821  18.852  0.00  0.00    +0.000 NA
ATOM     16  H   UNL     1       1.898   0.693  18.298  0.00  0.00    +0.000 HD
ENDBRANCH  10  11
ENDBRANCH   4  10
TORSDOF 3
ENDMDL
MODEL 9
REMARK VINA RESULT:      -5.8      1.313      5.303
REMARK  Name = 
REMARK  3 active torsions:
REMARK  status: ('A' for Active; 'I' for Inactive)
REMARK    1  A    between atoms: N_1  and  C_2
REMARK    2  A    between atoms: C_5  and  C_6
REMARK    3  A    between atoms: C_6  and  C_7
REMARK                            x       y       z     vdW  Elec       q    Type
REMARK                         _______ _______ _______ _____ _____    ______ ____
ROOT
ATOM      1  C   UNL     1       1.729   2.782  18.401  0.00  0.00    +0.000 A 
ATOM      2  C   UNL     1       2.835   2.380  17.652  0.00  0.00    +0.000 A 
ATOM      3  C   UNL     1       3.746   3.318  17.156  0.00  0.00    +0.000 A 
ATOM      4  C   UNL     1       3.548   4.688  17.372  0.00  0.00    +0.000 A 
ATOM      5  C   UNL     1       2.400   5.094  18.068  0.00  0.00    +0.000 A 
ATOM      6  C   UNL     1       1.490   4.150  18.554  0.00  0.00    +0.000 A 
ENDROOT
BRANCH   1   7
ATOM      7  N   UNL     1       0.760   1.848  18.792  0.00  0.00    +0.000 N 
ATOM      8  H   UNL     1      -0.166   2.247  18.897  0.00  0.00    +0.000 HD
ATOM      9  H   UNL     1       0.754   1.007  18.223  0.00  0.00    +0.000 HD
ENDBRANCH   1   7
BRANCH   4  10
ATOM     10  C   UNL     1       4.552   5.699  16.876  0.00  0.00    +0.000 C 
BRANCH  10  11
ATOM     11  C   UNL     1       5.916   5.177  17.174  0.00  0.00    +0.000 A 
ATOM     12  C   UNL     1       6.836   4.575  16.338  0.00  0.00    +0.000 A 
ATOM     13  N   UNL     1       7.945   4.364  17.107  0.00  0.00    +0.000 N 
ATOM     14  C   UNL     1       7.682   4.852  18.354  0.00  0.00    +0.000 A 
ATOM     15  N   UNL     1       6.469   5.350  18.429  0.00  0.00    +0.000 NA
ATOM     16  H   UNL     1       8.813   3.939  16.809  0.00  0.00    +0.000 HD
ENDBRANCH  10  11
ENDBRANCH   4  10
TORSDOF 3
ENDMDL
