MODEL 1
REMARK VINA RESULT:      -6.8      0.000      0.000
REMARK  Name = 
REMARK  14 active torsions:
REMARK  status: ('A' for Active; 'I' for Inactive)
REMARK    1  A    between atoms: C_1  and  O_2
REMARK    2  A    between atoms: O_2  and  C_3
REMARK    3  A    between atoms: C_6  and  C_7
REMARK    4  A    between atoms: C_8  and  C_9
REMARK    5  A    between atoms: C_9  and  O_10
REMARK    6  A    between atoms: C_12  and  O_13
REMARK    7  A    between atoms: O_13  and  C_14
REMARK    8  A    between atoms: C_14  and  C_15
REMARK    9  A    between atoms: C_15  and  O_16
REMARK   10  A    between atoms: C_15  and  C_17
REMARK   11  A    between atoms: C_17  and  N_18
REMARK   12  A    between atoms: N_18  and  C_19
REMARK   13  A    between atoms: C_19  and  C_20
REMARK   14  A    between atoms: C_19  and  C_21
REMARK                            x       y       z     vdW  Elec       q    Type
REMARK                         _______ _______ _______ _____ _____    ______ ____
ROOT
ATOM      1  C   UNL     1       4.569   5.751  18.121  0.00  0.00    +0.000 A 
ATOM      2  C   UNL     1       4.579   6.484  16.928  0.00  0.00    +0.000 A 
ATOM      3  C   UNL     1       5.243   5.999  15.798  0.00  0.00    +0.000 A 
ATOM      4  C   UNL     1       5.964   4.805  15.857  0.00  0.00    +0.000 A 
ATOM      5  C   UNL     1       6.004   4.106  17.068  0.00  0.00    +0.000 A 
ATOM      6  C   UNL     1       5.307   4.560  18.199  0.00  0.00    +0.000 A 
ENDROOT
BRANCH   1   8
ATOM      7  C   UNL     1       2.710   6.950  18.965  0.00  0.00    +0.000 C 
ATOM      8  O   UNL     1       3.911   6.220  19.224  0.00  0.00    +0.000 OA
ENDBRANCH   1   8
BRANCH   4   9
ATOM      9  C   UNL     1       6.588   4.306  14.625  0.00  0.00    +0.000 C 
ATOM     10  C   UNL     1       5.939   4.084  13.470  0.00  0.00    +0.000 C 
BRANCH  10  11
ATOM     11  C   UNL     1       6.602   3.567  12.237  0.00  0.00    +0.000 C 
BRANCH  11  12
ATOM     12  O   UNL     1       6.194   2.228  12.037  0.00  0.00    +0.000 OA
ATOM     13  H   UNL     1       6.953   1.663  12.269  0.00  0.00    +0.000 HD
ENDBRANCH  11  12
ENDBRANCH  10  11
ENDBRANCH   4   9
BRANCH   6  14
ATOM     14  O   UNL     1       5.455   3.722  19.274  0.00  0.00    +0.000 OA
BRANCH  14  15
ATOM     15  C   UNL     1       4.381   2.827  19.579  0.00  0.00    +0.000 C 
BRANCH  15  16
ATOM     16  C   UNL     1       4.143   1.911  18.365  0.00  0.00    +0.000 C 
BRANCH  16  17
ATOM     17  O   UNL     1       4.471   0.559  18.728  0.00  0.00    +0.000 OA
ATOM     18  H   UNL     1       5.435   0.558  18.886  0.00  0.00    +0.000 HD
ENDBRANCH  16  17
BRANCH  16  19
ATOM     19  C   UNL     1       2.695   1.938  17.836  0.00  0.00    +0.000 C 
BRANCH  19  20
ATOM     20  N   UNL     1       1.716   1.924  18.924  0.00  0.00    +0.000 NA
ATOM     21  H   UNL     1       2.208   1.859  19.816  0.00  0.00    +0.000 HD
BRANCH  20  22
ATOM     22  C   UNL     1       0.829   3.091  18.952  0.00  0.00    +0.000 C 
ATOM     23  C   UNL     1       0.903   3.874  20.266  0.00  0.00    +0.000 C 
ATOM     24  C   UNL     1       1.243   4.001  17.792  0.00  0.00    +0.000 C 
ENDBRANCH  20  22
ENDBRANCH  19  20
ENDBRANCH  16  19
ENDBRANCH  15  16
ENDBRANCH  14  15
ENDBRANCH   6  14
TORSDOF 11
ENDMDL
MODEL 2
REMARK VINA RESULT:      -6.7      1.831      3.129
REMARK  Name = 
REMARK  14 active torsions:
REMARK  status: ('A' for Active; 'I' for Inactive)
REMARK    1  A    between atoms: C_1  and  O_2
REMARK    2  A    between atoms: O_2  and  C_3
REMARK    3  A    between atoms: C_6  and  C_7
REMARK    4  A    between atoms: C_8  and  C_9
REMARK    5  A    between atoms: C_9  and  O_10
REMARK    6  A    between atoms: C_12  and  O_13
REMARK    7  A    between atoms: O_13  and  C_14
REMARK    8  A    between atoms: C_14  and  C_15
REMARK    9  A    between atoms: C_15  and  O_16
REMARK   10  A    between atoms: C_15  and  C_17
REMARK   11  A    between atoms: C_17  and  N_18
REMARK   12  A    between atoms: N_18  and  C_19
REMARK   13  A    between atoms: C_19  and  C_20
REMARK   14  A    between atoms: C_19  and  C_21
REMARK                            x       y       z     vdW  Elec       q    Type
REMARK                         _______ _______ _______ _____ _____    ______ ____
ROOT
ATOM      1  C   UNL     1       6.374   4.876  18.363  0.00  0.00    +0.000 A 
ATOM      2  C   UNL     1       7.411   4.755  17.430  0.00  0.00    +0.000 A 
ATOM      3  C   UNL     1       7.144   4.377  16.112  0.00  0.00    +0.000 A 
ATOM      4  C   UNL     1       5.847   4.049  15.716  0.00  0.00    +0.000 A 
ATOM      5  C   UNL     1       4.821   4.110  16.666  0.00  0.00    +0.000 A 
ATOM      6  C   UNL     1       5.068   4.529  17.983  0.00  0.00    +0.000 A 
ENDROOT
BRANCH   1   8
ATOM      7  C   UNL     1       7.973   5.669  19.917  0.00  0.00    +0.000 C 
ATOM      8  O   UNL     1       6.632   5.256  19.651  0.00  0.00    +0.000 OA
ENDBRANCH   1   8
BRANCH   4   9
ATOM      9  C   UNL     1       5.609   3.722  14.305  0.00  0.00    +0.000 C 
ATOM     10  C   UNL     1       6.525   3.823  13.328  0.00  0.00    +0.000 C 
BRANCH  10  11
ATOM     11  C   UNL     1       6.249   3.491  11.899  0.00  0.00    +0.000 C 
BRANCH  11  12
ATOM     12  O   UNL     1       5.780   2.159  11.831  0.00  0.00    +0.000 OA
ATOM     13  H   UNL     1       4.868   2.162  12.174  0.00  0.00    +0.000 HD
ENDBRANCH  11  12
ENDBRANCH  10  11
ENDBRANCH   4   9
BRANCH   6  14
ATOM     14  O   UNL     1       3.930   4.543  18.748  0.00  0.00    +0.000 OA
BRANCH  14  15
ATOM     15  C   UNL     1       3.113   5.717  18.714  0.00  0.00    +0.000 C 
BRANCH  15  16
ATOM     16  C   UNL     1       2.716   6.082  20.156  0.00  0.00    +0.000 C 
BRANCH  16  17
ATOM     17  O   UNL     1       2.207   7.425  20.175  0.00  0.00    +0.000 OA
ATOM     18  H   UNL     1       1.608   7.488  19.405  0.00  0.00    +0.000 HD
ENDBRANCH  16  17
BRANCH  16  19
ATOM     19  C   UNL     1       1.652   5.147  20.766  0.00  0.00    +0.000 C 
BRANCH  19  20
ATOM     20  N   UNL     1       1.064   4.259  19.761  0.00  0.00    +0.000 NA
ATOM     21  H   UNL     1       1.586   4.350  18.889  0.00  0.00    +0.000 HD
BRANCH  20  22
ATOM     22  C   UNL     1       1.029   2.846  20.152  0.00  0.00    +0.000 C 
ATOM     23  C   UNL     1       1.770   1.931  19.173  0.00  0.00    +0.000 C 
ATOM     24  C   UNL     1       1.676   2.745  21.536  0.00  0.00    +0.000 C 
ENDBRANCH  20  22
ENDBRANCH  19  20
ENDBRANCH  16  19
ENDBRANCH  15  16
ENDBRANCH  14  15
ENDBRANCH   6  14
TORSDOF 11
ENDMDL
MODEL 3
REMARK VINA RESULT:      -6.7      1.324      1.597
REMARK  Name = 
REMARK  14 active torsions:
REMARK  status: ('A' for Active; 'I' for Inactive)
REMARK    1  A    between atoms: C_1  and  O_2
REMARK    2  A    between atoms: O_2  and  C_3
REMARK    3  A    between atoms: C_6  and  C_7
REMARK    4  A    between atoms: C_8  and  C_9
REMARK    5  A    between atoms: C_9  and  O_10
REMARK    6  A    between atoms: C_12  and  O_13
REMARK    7  A    between atoms: O_13  and  C_14
REMARK    8  A    between atoms: C_14  and  C_15
REMARK    9  A    between atoms: C_15  and  O_16
REMARK   10  A    between atoms: C_15  and  C_17
REMARK   11  A    between atoms: C_17  and  N_18
REMARK   12  A    between atoms: N_18  and  C_19
REMARK   13  A    between atoms: C_19  and  C_20
REMARK   14  A    between atoms: C_19  and  C_21
REMARK                            x       y       z     vdW  Elec       q    Type
REMARK                         _______ _______ _______ _____ _____    ______ ____
ROOT
ATOM      1  C   UNL     1       4.193   6.151  17.289  0.00  0.00    +0.000 A 
ATOM      2  C   UNL     1       5.001   6.865  16.395  0.00  0.00    +0.000 A 
ATOM      3  C   UNL     1       5.691   6.206  15.375  0.00  0.00    +0.000 A 
ATOM      4  C   UNL     1       5.640   4.816  15.266  0.00  0.00    +0.000 A 
ATOM      5  C   UNL     1       4.883   4.098  16.199  0.00  0.00    +0.000 A 
ATOM      6  C   UNL     1       4.151   4.750  17.204  0.00  0.00    +0.000 A 
ENDROOT
BRANCH   1   8
ATOM      7  C   UNL     1       2.831   7.990  17.892  0.00  0.00    +0.000 C 
ATOM      8  O   UNL     1       3.509   6.795  18.283  0.00  0.00    +0.000 OA
ENDBRANCH   1   8
BRANCH   4   9
ATOM      9  C   UNL     1       6.329   4.178  14.137  0.00  0.00    +0.000 C 
ATOM     10  C   UNL     1       5.718   3.640  13.070  0.00  0.00    +0.000 C 
BRANCH  10  11
ATOM     11  C   UNL     1       6.447   2.990  11.941  0.00  0.00    +0.000 C 
BRANCH  11  12
ATOM     12  O   UNL     1       5.888   1.709  11.724  0.00  0.00    +0.000 OA
ATOM     13  H   UNL     1       6.438   1.272  11.048  0.00  0.00    +0.000 HD
ENDBRANCH  11  12
ENDBRANCH  10  11
ENDBRANCH   4   9
BRANCH   6  14
ATOM     14  O   UNL     1       3.458   3.873  17.997  0.00  0.00    +0.000 OA
BRANCH  14  15
ATOM     15  C   UNL     1       3.604   2.473  17.736  0.00  0.00    +0.000 C 
BRANCH  15  16
ATOM     16  C   UNL     1       3.842   1.746  19.072  0.00  0.00    +0.000 C 
BRANCH  16  17
ATOM     17  O   UNL     1       5.031   2.272  19.686  0.00  0.00    +0.000 OA
ATOM     18  H   UNL     1       4.717   2.855  20.405  0.00  0.00    +0.000 HD
ENDBRANCH  16  17
BRANCH  16  19
ATOM     19  C   UNL     1       2.676   1.881  20.072  0.00  0.00    +0.000 C 
BRANCH  19  20
ATOM     20  N   UNL     1       2.831   3.049  20.939  0.00  0.00    +0.000 NA
ATOM     21  H   UNL     1       3.588   3.633  20.581  0.00  0.00    +0.000 HD
BRANCH  20  22
ATOM     22  C   UNL     1       1.620   3.867  21.071  0.00  0.00    +0.000 C 
ATOM     23  C   UNL     1       1.850   5.344  20.739  0.00  0.00    +0.000 C 
ATOM     24  C   UNL     1       0.577   3.285  20.114  0.00  0.00    +0.000 C 
ENDBRANCH  20  22
ENDBRANCH  19  20
ENDBRANCH  16  19
ENDBRANCH  15  16
ENDBRANCH  14  15
ENDBRANCH   6  14
TORSDOF 11
ENDMDL
MODEL 4
REMARK VINA RESULT:      -6.5      2.488      5.862
REMARK  Name = 
REMARK  14 active torsions:
REMARK  status: ('A' for Active; 'I' for Inactive)
REMARK    1  A    between atoms: C_1  and  O_2
REMARK    2  A    between atoms: O_2  and  C_3
REMARK    3  A    between atoms: C_6  and  C_7
REMARK    4  A    between atoms: C_8  and  C_9
REMARK    5  A    between atoms: C_9  and  O_10
REMARK    6  A    between atoms: C_12  and  O_13
REMARK    7  A    between atoms: O_13  and  C_14
REMARK    8  A    between atoms: C_14  and  C_15
REMARK    9  A    between atoms: C_15  and  O_16
REMARK   10  A    between atoms: C_15  and  C_17
REMARK   11  A    between atoms: C_17  and  N_18
REMARK   12  A    between atoms: N_18  and  C_19
REMARK   13  A    between atoms: C_19  and  C_20
REMARK   14  A    between atoms: C_19  and  C_21
REMARK                            x       y       z     vdW  Elec       q    Type
REMARK                         _______ _______ _______ _____ _____    ______ ____
ROOT
ATOM      1  C   UNL     1       3.455   3.430  17.924  0.00  0.00    +0.000 A 
ATOM      2  C   UNL     1       2.130   3.793  17.655  0.00  0.00    +0.000 A 
ATOM      3  C   UNL     1       1.669   5.079  17.945  0.00  0.00    +0.000 A 
ATOM      4  C   UNL     1       2.503   6.009  18.568  0.00  0.00    +0.000 A 
ATOM      5  C   UNL     1       3.809   5.624  18.894  0.00  0.00    +0.000 A 
ATOM      6  C   UNL     1       4.298   4.349  18.570  0.00  0.00    +0.000 A 
ENDROOT
BRANCH   1   8
ATOM      7  C   UNL     1       3.667   1.181  18.629  0.00  0.00    +0.000 C 
ATOM      8  O   UNL     1       3.911   2.175  17.632  0.00  0.00    +0.000 OA
ENDBRANCH   1   8
BRANCH   4   9
ATOM      9  C   UNL     1       1.992   7.367  18.791  0.00  0.00    +0.000 C 
ATOM     10  C   UNL     1       2.175   8.403  17.956  0.00  0.00    +0.000 C 
BRANCH  10  11
ATOM     11  C   UNL     1       1.649   9.776  18.216  0.00  0.00    +0.000 C 
BRANCH  11  12
ATOM     12  O   UNL     1       2.230  10.663  17.280  0.00  0.00    +0.000 OA
ATOM     13  H   UNL     1       2.773  10.122  16.679  0.00  0.00    +0.000 HD
ENDBRANCH  11  12
ENDBRANCH  10  11
ENDBRANCH   4   9
BRANCH   6  14
ATOM     14  O   UNL     1       5.604   4.179  18.951  0.00  0.00    +0.000 OA
BRANCH  14  15
ATOM     15  C   UNL     1       6.357   5.343  19.304  0.00  0.00    +0.000 C 
BRANCH  15  16
ATOM     16  C   UNL     1       7.553   5.466  18.343  0.00  0.00    +0.000 C 
BRANCH  16  17
ATOM     17  O   UNL     1       8.435   4.350  18.550  0.00  0.00    +0.000 OA
ATOM     18  H   UNL     1       8.306   4.085  19.482  0.00  0.00    +0.000 HD
ENDBRANCH  16  17
BRANCH  16  19
ATOM     19  C   UNL     1       7.155   5.505  16.853  0.00  0.00    +0.000 C 
BRANCH  19  20
ATOM     20  N   UNL     1       7.033   4.162  16.285  0.00  0.00    +0.000 NA
ATOM     21  H   UNL     1       6.518   3.569  16.936  0.00  0.00    +0.000 HD
BRANCH  20  22
ATOM     22  C   UNL     1       6.374   4.119  14.976  0.00  0.00    +0.000 C 
ATOM     23  C   UNL     1       4.982   4.758  14.980  0.00  0.00    +0.000 C 
ATOM     24  C   UNL     1       7.277   4.866  13.992  0.00  0.00    +0.000 C 
ENDBRANCH  20  22
ENDBRANCH  19  20
ENDBRANCH  16  19
ENDBRANCH  15  16
ENDBRANCH  14  15
ENDBRANCH   6  14
TORSDOF 11
ENDMDL
MODEL 5
REMARK VINA RESULT:      -6.5      1.667      2.593
REMARK  Name = 
REMARK  14 active torsions:
REMARK  status: ('A' for Active; 'I' for Inactive)
REMARK    1  A    between atoms: C_1  and  O_2
REMARK    2  A    between atoms: O_2  and  C_3
REMARK    3  A    between atoms: C_6  and  C_7
REMARK    4  A    between atoms: C_8  and  C_9
REMARK    5  A    between atoms: C_9  and  O_10
REMARK    6  A    between atoms: C_12  and  O_13
REMARK    7  A    between atoms: O_13  and  C_14
REMARK    8  A    between atoms: C_14  and  C_15
REMARK    9  A    between atoms: C_15  and  O_16
REMARK   10  A    between atoms: C_15  and  C_17
REMARK   11  A    between atoms: C_17  and  N_18
REMARK   12  A    between atoms: N_18  and  C_19
REMARK   13  A    between atoms: C_19  and  C_20
REMARK   14  A    between atoms: C_19  and  C_21
REMARK                            x       y       z     vdW  Elec       q    Type
REMARK                         _______ _______ _______ _____ _____    ______ ____
ROOT
ATOM      1  C   UNL     1       6.498   5.133  18.457  0.00  0.00    +0.000 A 
ATOM      2  C   UNL     1       7.194   5.757  17.414  0.00  0.00    +0.000 A 
ATOM      3  C   UNL     1       6.860   5.503  16.081  0.00  0.00    +0.000 A 
ATOM      4  C   UNL     1       5.869   4.573  15.762  0.00  0.00    +0.000 A 
ATOM      5  C   UNL     1       5.218   3.904  16.805  0.00  0.00    +0.000 A 
ATOM      6  C   UNL     1       5.514   4.181  18.149  0.00  0.00    +0.000 A 
ENDROOT
BRANCH   1   8
ATOM      7  C   UNL     1       8.200   5.632  20.024  0.00  0.00    +0.000 C 
ATOM      8  O   UNL     1       6.817   5.388  19.762  0.00  0.00    +0.000 OA
ENDBRANCH   1   8
BRANCH   4   9
ATOM      9  C   UNL     1       5.511   4.392  14.350  0.00  0.00    +0.000 C 
ATOM     10  C   UNL     1       6.083   3.506  13.520  0.00  0.00    +0.000 C 
BRANCH  10  11
ATOM     11  C   UNL     1       5.701   3.352  12.085  0.00  0.00    +0.000 C 
BRANCH  11  12
ATOM     12  O   UNL     1       5.929   2.010  11.701  0.00  0.00    +0.000 OA
ATOM     13  H   UNL     1       6.073   1.503  12.521  0.00  0.00    +0.000 HD
ENDBRANCH  11  12
ENDBRANCH  10  11
ENDBRANCH   4   9
BRANCH   6  14
ATOM     14  O   UNL     1       4.751   3.439  19.014  0.00  0.00    +0.000 OA
BRANCH  14  15
ATOM     15  C   UNL     1       3.635   2.722  18.478  0.00  0.00    +0.000 C 
BRANCH  15  16
ATOM     16  C   UNL     1       2.499   2.733  19.517  0.00  0.00    +0.000 C 
BRANCH  16  17
ATOM     17  O   UNL     1       3.071   2.721  20.836  0.00  0.00    +0.000 OA
ATOM     18  H   UNL     1       2.318   2.839  21.448  0.00  0.00    +0.000 HD
ENDBRANCH  16  17
BRANCH  16  19
ATOM     19  C   UNL     1       1.560   3.951  19.403  0.00  0.00    +0.000 C 
BRANCH  19  20
ATOM     20  N   UNL     1       2.109   4.983  18.522  0.00  0.00    +0.000 NA
ATOM     21  H   UNL     1       1.392   5.270  17.856  0.00  0.00    +0.000 HD
BRANCH  20  22
ATOM     22  C   UNL     1       2.610   6.169  19.224  0.00  0.00    +0.000 C 
ATOM     23  C   UNL     1       2.524   7.448  18.385  0.00  0.00    +0.000 C 
ATOM     24  C   UNL     1       1.769   6.333  20.492  0.00  0.00    +0.000 C 
ENDBRANCH  20  22
ENDBRANCH  19  20
ENDBRANCH  16  19
ENDBRANCH  15  16
ENDBRANCH  14  15
ENDBRANCH   6  14
TORSDOF 11
ENDMDL
MODEL 6
REMARK VINA RESULT:      -6.4      2.522      6.509
REMARK  Name = 
REMARK  14 active torsions:
REMARK  status: ('A' for Active; 'I' for Inactive)
REMARK    1  A    between atoms: C_1  and  O_2
REMARK    2  A    between atoms: O_2  and  C_3
REMARK    3  A    between atoms: C_6  and  C_7
REMARK    4  A    between atoms: C_8  and  C_9
REMARK    5  A    between atoms: C_9  and  O_10
REMARK    6  A    between atoms: C_12  and  O_13
REMARK    7  A    between atoms: O_13  and  C_14
REMARK    8  A    between atoms: C_14  and  C_15
REMARK    9  A    between atoms: C_15  and  O_16
REMARK   10  A    between atoms: C_15  and  C_17
REMARK   11  A    between atoms: C_17  and  N_18
REMARK   12  A    between atoms: N_18  and  C_19
REMARK   13  A    between atoms: C_19  and  C_20
REMARK   14  A    between atoms: C_19  and  C_21
REMARK                            x       y       z     vdW  Elec       q    Type
REMARK                         _______ _______ _______ _____ _____    ______ ____
ROOT
ATOM      1  C   UNL     1       3.300   3.434  19.785  0.00  0.00    +0.000 A 
ATOM      2  C   UNL     1       2.033   3.757  20.287  0.00  0.00    +0.000 A 
ATOM      3  C   UNL     1       1.611   5.086  20.358  0.00  0.00    +0.000 A 
ATOM      4  C   UNL     1       2.468   6.124  19.989  0.00  0.00    +0.000 A 
ATOM      5  C   UNL     1       3.756   5.803  19.546  0.00  0.00    +0.000 A 
ATOM      6  C   UNL     1       4.179   4.470  19.431  0.00  0.00    +0.000 A 
ENDROOT
BRANCH   1   8
ATOM      7  C   UNL     1       3.525   1.501  18.438  0.00  0.00    +0.000 C 
ATOM      8  O   UNL     1       3.712   2.133  19.706  0.00  0.00    +0.000 OA
ENDBRANCH   1   8
BRANCH   4   9
ATOM      9  C   UNL     1       1.953   7.499  20.018  0.00  0.00    +0.000 C 
ATOM     10  C   UNL     1       1.333   8.065  21.066  0.00  0.00    +0.000 C 
BRANCH  10  11
ATOM     11  C   UNL     1       0.812   9.464  21.061  0.00  0.00    +0.000 C 
BRANCH  11  12
ATOM     12  O   UNL     1      -0.089   9.603  19.979  0.00  0.00    +0.000 OA
ATOM     13  H   UNL     1       0.355   9.236  19.193  0.00  0.00    +0.000 HD
ENDBRANCH  11  12
ENDBRANCH  10  11
ENDBRANCH   4   9
BRANCH   6  14
ATOM     14  O   UNL     1       5.462   4.369  18.957  0.00  0.00    +0.000 OA
BRANCH  14  15
ATOM     15  C   UNL     1       6.379   5.420  19.276  0.00  0.00    +0.000 C 
BRANCH  15  16
ATOM     16  C   UNL     1       7.532   5.392  18.256  0.00  0.00    +0.000 C 
BRANCH  16  17
ATOM     17  O   UNL     1       7.804   4.027  17.895  0.00  0.00    +0.000 OA
ATOM     18  H   UNL     1       8.767   3.911  18.023  0.00  0.00    +0.000 HD
ENDBRANCH  16  17
BRANCH  16  19
ATOM     19  C   UNL     1       7.246   6.190  16.968  0.00  0.00    +0.000 C 
BRANCH  19  20
ATOM     20  N   UNL     1       5.843   6.092  16.565  0.00  0.00    +0.000 NA
ATOM     21  H   UNL     1       5.470   7.030  16.420  0.00  0.00    +0.000 HD
BRANCH  20  22
ATOM     22  C   UNL     1       5.619   5.297  15.352  0.00  0.00    +0.000 C 
ATOM     23  C   UNL     1       6.913   4.944  14.614  0.00  0.00    +0.000 C 
ATOM     24  C   UNL     1       4.909   4.011  15.781  0.00  0.00    +0.000 C 
ENDBRANCH  20  22
ENDBRANCH  19  20
ENDBRANCH  16  19
ENDBRANCH  15  16
ENDBRANCH  14  15
ENDBRANCH   6  14
TORSDOF 11
ENDMDL
MODEL 7
REMARK VINA RESULT:      -6.4      1.881      4.716
REMARK  Name = 
REMARK  14 active torsions:
REMARK  status: ('A' for Active; 'I' for Inactive)
REMARK    1  A    between atoms: C_1  and  O_2
REMARK    2  A    between atoms: O_2  and  C_3
REMARK    3  A    between atoms: C_6  and  C_7
REMARK    4  A    between atoms: C_8  and  C_9
REMARK    5  A    between atoms: C_9  and  O_10
REMARK    6  A    between atoms: C_12  and  O_13
REMARK    7  A    between atoms: O_13  and  C_14
REMARK    8  A    between atoms: C_14  and  C_15
REMARK    9  A    between atoms: C_15  and  O_16
REMARK   10  A    between atoms: C_15  and  C_17
REMARK   11  A    between atoms: C_17  and  N_18
REMARK   12  A    between atoms: N_18  and  C_19
REMARK   13  A    between atoms: C_19  and  C_20
REMARK   14  A    between atoms: C_19  and  C_21
REMARK                            x       y       z     vdW  Elec       q    Type
REMARK                         _______ _______ _______ _____ _____    ______ ____
ROOT
ATOM      1  C   UNL     1       5.809   5.171  16.491  0.00  0.00    +0.000 A 
ATOM      2  C   UNL     1       5.971   6.562  16.527  0.00  0.00    +0.000 A 
ATOM      3  C   UNL     1       5.006   7.378  17.122  0.00  0.00    +0.000 A 
ATOM      4  C   UNL     1       3.830   6.828  17.635  0.00  0.00    +0.000 A 
ATOM      5  C   UNL     1       3.641   5.445  17.542  0.00  0.00    +0.000 A 
ATOM      6  C   UNL     1       4.621   4.609  16.985  0.00  0.00    +0.000 A 
ENDROOT
BRANCH   1   8
ATOM      7  C   UNL     1       6.648   4.197  14.504  0.00  0.00    +0.000 C 
ATOM      8  O   UNL     1       6.757   4.370  15.918  0.00  0.00    +0.000 OA
ENDBRANCH   1   8
BRANCH   4   9
ATOM      9  C   UNL     1       2.879   7.721  18.309  0.00  0.00    +0.000 C 
ATOM     10  C   UNL     1       2.119   8.641  17.693  0.00  0.00    +0.000 C 
BRANCH  10  11
ATOM     11  C   UNL     1       1.167   9.540  18.409  0.00  0.00    +0.000 C 
BRANCH  11  12
ATOM     12  O   UNL     1       1.100   9.135  19.762  0.00  0.00    +0.000 OA
ATOM     13  H   UNL     1       1.704   8.377  19.860  0.00  0.00    +0.000 HD
ENDBRANCH  11  12
ENDBRANCH  10  11
ENDBRANCH   4   9
BRANCH   6  14
ATOM     14  O   UNL     1       4.255   3.288  17.009  0.00  0.00    +0.000 OA
BRANCH  14  15
ATOM     15  C   UNL     1       2.878   2.977  17.248  0.00  0.00    +0.000 C 
BRANCH  15  16
ATOM     16  C   UNL     1       2.804   1.795  18.231  0.00  0.00    +0.000 C 
BRANCH  16  17
ATOM     17  O   UNL     1       4.016   1.751  19.002  0.00  0.00    +0.000 OA
ATOM     18  H   UNL     1       3.730   1.660  19.932  0.00  0.00    +0.000 HD
ENDBRANCH  16  17
BRANCH  16  19
ATOM     19  C   UNL     1       1.609   1.867  19.203  0.00  0.00    +0.000 C 
BRANCH  19  20
ATOM     20  N   UNL     1       1.100   3.231  19.344  0.00  0.00    +0.000 NA
ATOM     21  H   UNL     1       0.139   3.267  19.001  0.00  0.00    +0.000 HD
BRANCH  20  22
ATOM     22  C   UNL     1       1.136   3.749  20.716  0.00  0.00    +0.000 C 
ATOM     23  C   UNL     1       1.732   2.759  21.720  0.00  0.00    +0.000 C 
ATOM     24  C   UNL     1       1.981   5.025  20.694  0.00  0.00    +0.000 C 
ENDBRANCH  20  22
ENDBRANCH  19  20
ENDBRANCH  16  19
ENDBRANCH  15  16
ENDBRANCH  14  15
ENDBRANCH   6  14
TORSDOF 11
ENDMDL
MODEL 8
REMARK VINA RESULT:      -6.4      2.064      4.691
REMARK  Name = 
REMARK  14 active torsions:
REMARK  status: ('A' for Active; 'I' for Inactive)
REMARK    1  A    between atoms: C_1  and  O_2
REMARK    2  A    between atoms: O_2  and  C_3
REMARK    3  A    between atoms: C_6  and  C_7
REMARK    4  A    between atoms: C_8  and  C_9
REMARK    5  A    between atoms: C_9  and  O_10
REMARK    6  A    between atoms: C_12  and  O_13
REMARK    7  A    between atoms: O_13  and  C_14
REMARK    8  A    between atoms: C_14  and  C_15
REMARK    9  A    between atoms: C_15  and  O_16
REMARK   10  A    between atoms: C_15  and  C_17
REMARK   11  A    between atoms: C_17  and  N_18
REMARK   12  A    between atoms: N_18  and  C_19
REMARK   13  A    between atoms: C_19  and  C_20
REMARK   14  A    between atoms: C_19  and  C_21
REMARK                            x       y       z     vdW  Elec       q    Type
REMARK                         _______ _______ _______ _____ _____    ______ ____
ROOT
ATOM      1  C   UNL     1       5.377   5.204  16.597  0.00  0.00    +0.000 A 
ATOM      2  C   UNL     1       5.170   6.499  16.107  0.00  0.00    +0.000 A 
ATOM      3  C   UNL     1       4.214   7.337  16.686  0.00  0.00    +0.000 A 
ATOM      4  C   UNL     1       3.401   6.877  17.722  0.00  0.00    +0.000 A 
ATOM      5  C   UNL     1       3.566   5.561  18.169  0.00  0.00    +0.000 A 
ATOM      6  C   UNL     1       4.551   4.722  17.625  0.00  0.00    +0.000 A 
ENDROOT
BRANCH   1   8
ATOM      7  C   UNL     1       6.057   3.967  14.698  0.00  0.00    +0.000 C 
ATOM      8  O   UNL     1       6.319   4.386  16.038  0.00  0.00    +0.000 OA
ENDBRANCH   1   8
BRANCH   4   9
ATOM      9  C   UNL     1       2.458   7.817  18.340  0.00  0.00    +0.000 C 
ATOM     10  C   UNL     1       2.036   8.962  17.779  0.00  0.00    +0.000 C 
BRANCH  10  11
ATOM     11  C   UNL     1       1.082   9.903  18.438  0.00  0.00    +0.000 C 
BRANCH  11  12
ATOM     12  O   UNL     1      -0.045  10.060  17.599  0.00  0.00    +0.000 OA
ATOM     13  H   UNL     1      -0.580   9.251  17.690  0.00  0.00    +0.000 HD
ENDBRANCH  11  12
ENDBRANCH  10  11
ENDBRANCH   4   9
BRANCH   6  14
ATOM     14  O   UNL     1       4.565   3.484  18.214  0.00  0.00    +0.000 OA
BRANCH  14  15
ATOM     15  C   UNL     1       5.019   3.391  19.569  0.00  0.00    +0.000 C 
BRANCH  15  16
ATOM     16  C   UNL     1       4.264   2.243  20.263  0.00  0.00    +0.000 C 
BRANCH  16  17
ATOM     17  O   UNL     1       5.169   1.552  21.140  0.00  0.00    +0.000 OA
ATOM     18  H   UNL     1       5.392   0.719  20.681  0.00  0.00    +0.000 HD
ENDBRANCH  16  17
BRANCH  16  19
ATOM     19  C   UNL     1       3.043   2.706  21.084  0.00  0.00    +0.000 C 
BRANCH  19  20
ATOM     20  N   UNL     1       1.801   2.096  20.607  0.00  0.00    +0.000 NA
ATOM     21  H   UNL     1       1.342   1.621  21.385  0.00  0.00    +0.000 HD
BRANCH  20  22
ATOM     22  C   UNL     1       0.859   3.043  20.002  0.00  0.00    +0.000 C 
ATOM     23  C   UNL     1       1.055   4.482  20.486  0.00  0.00    +0.000 C 
ATOM     24  C   UNL     1       1.067   2.981  18.487  0.00  0.00    +0.000 C 
ENDBRANCH  20  22
ENDBRANCH  19  20
ENDBRANCH  16  19
ENDBRANCH  15  16
ENDBRANCH  14  15
ENDBRANCH   6  14
TORSDOF 11
ENDMDL
MODEL 9
REMARK VINA RESULT:      -6.3      2.560      6.270
REMARK  Name = 
REMARK  14 active torsions:
REMARK  status: ('A' for Active; 'I' for Inactive)
REMARK    1  A    between atoms: C_1  and  O_2
REMARK    2  A    between atoms: O_2  and  C_3
REMARK    3  A    between atoms: C_6  and  C_7
REMARK    4  A    between atoms: C_8  and  C_9
REMARK    5  A    between atoms: C_9  and  O_10
REMARK    6  A    between atoms: C_12  and  O_13
REMARK    7  A    between atoms: O_13  and  C_14
REMARK    8  A    between atoms: C_14  and  C_15
REMARK    9  A    between atoms: C_15  and  O_16
REMARK   10  A    between atoms: C_15  and  C_17
REMARK   11  A    between atoms: C_17  and  N_18
REMARK   12  A    between atoms: N_18  and  C_19
REMARK   13  A    between atoms: C_19  and  C_20
REMARK   14  A    between atoms: C_19  and  C_21
REMARK                            x       y       z     vdW  Elec       q    Type
REMARK                         _______ _______ _______ _____ _____    ______ ____
ROOT
ATOM      1  C   UNL     1       3.384   3.633  17.920  0.00  0.00    +0.000 A 
ATOM      2  C   UNL     1       2.087   4.060  17.612  0.00  0.00    +0.000 A 
ATOM      3  C   UNL     1       1.693   5.378  17.854  0.00  0.00    +0.000 A 
ATOM      4  C   UNL     1       2.565   6.279  18.467  0.00  0.00    +0.000 A 
ATOM      5  C   UNL     1       3.840   5.833  18.831  0.00  0.00    +0.000 A 
ATOM      6  C   UNL     1       4.264   4.524  18.556  0.00  0.00    +0.000 A 
ENDROOT
BRANCH   1   8
ATOM      7  C   UNL     1       3.499   1.408  18.717  0.00  0.00    +0.000 C 
ATOM      8  O   UNL     1       3.775   2.346  17.675  0.00  0.00    +0.000 OA
ENDBRANCH   1   8
BRANCH   4   9
ATOM      9  C   UNL     1       2.126   7.670  18.637  0.00  0.00    +0.000 C 
ATOM     10  C   UNL     1       1.535   8.159  19.739  0.00  0.00    +0.000 C 
BRANCH  10  11
ATOM     11  C   UNL     1       1.092   9.578  19.878  0.00  0.00    +0.000 C 
BRANCH  11  12
ATOM     12  O   UNL     1      -0.081   9.605  20.667  0.00  0.00    +0.000 OA
ATOM     13  H   UNL     1      -0.525  10.453  20.484  0.00  0.00    +0.000 HD
ENDBRANCH  11  12
ENDBRANCH  10  11
ENDBRANCH   4   9
BRANCH   6  14
ATOM     14  O   UNL     1       5.551   4.294  18.969  0.00  0.00    +0.000 OA
BRANCH  14  15
ATOM     15  C   UNL     1       6.288   5.394  19.511  0.00  0.00    +0.000 C 
BRANCH  15  16
ATOM     16  C   UNL     1       7.637   5.492  18.776  0.00  0.00    +0.000 C 
BRANCH  16  17
ATOM     17  O   UNL     1       8.697   5.201  19.703  0.00  0.00    +0.000 OA
ATOM     18  H   UNL     1       9.367   5.897  19.560  0.00  0.00    +0.000 HD
ENDBRANCH  16  17
BRANCH  16  19
ATOM     19  C   UNL     1       7.763   4.536  17.573  0.00  0.00    +0.000 C 
BRANCH  19  20
ATOM     20  N   UNL     1       7.515   5.220  16.304  0.00  0.00    +0.000 NA
ATOM     21  H   UNL     1       8.303   5.058  15.676  0.00  0.00    +0.000 HD
BRANCH  20  22
ATOM     22  C   UNL     1       6.278   4.811  15.631  0.00  0.00    +0.000 C 
ATOM     23  C   UNL     1       5.292   5.965  15.427  0.00  0.00    +0.000 C 
ATOM     24  C   UNL     1       6.675   4.233  14.270  0.00  0.00    +0.000 C 
ENDBRANCH  20  22
ENDBRANCH  19  20
ENDBRANCH  16  19
ENDBRANCH  15  16
ENDBRANCH  14  15
ENDBRANCH   6  14
TORSDOF 11
ENDMDL
