MODEL 1
REMARK VINA RESULT:      -7.2      0.000      0.000
REMARK  Name = 
REMARK  7 active torsions:
REMARK  status: ('A' for Active; 'I' for Inactive)
REMARK    1  A    between atoms: C_1  and  C_2
REMARK    2  A    between atoms: C_2  and  S_3
REMARK    3  A    between atoms: S_3  and  N_6
REMARK    4  A    between atoms: N_9  and  C_10
REMARK    5  A    between atoms: C_10  and  C_11
REMARK    6  A    between atoms: C_16  and  O_17
REMARK    7  A    between atoms: O_17  and  C_18
REMARK                            x       y       z     vdW  Elec       q    Type
REMARK                         _______ _______ _______ _____ _____    ______ ____
ROOT
ATOM      1  N   UNL     1       6.514   4.287  16.163  0.00  0.00    +0.000 NA
ATOM      2  C   UNL     1       7.232   5.043  17.261  0.00  0.00    +0.000 C 
ATOM      3  C   UNL     1       6.362   6.165  17.894  0.00  0.00    +0.000 C 
ATOM      4  N   UNL     1       4.959   5.803  18.234  0.00  0.00    +0.000 NA
ATOM      5  C   UNL     1       4.350   5.095  17.100  0.00  0.00    +0.000 C 
ATOM      6  C   UNL     1       5.167   3.883  16.638  0.00  0.00    +0.000 C 
ENDROOT
BRANCH   1   7
ATOM      7  S   UNL     1       6.621   4.983  14.637  0.00  0.00    +0.000 S 
ATOM      8  O   UNL     1       8.006   5.318  14.406  0.00  0.00    +0.000 OA
ATOM      9  O   UNL     1       5.641   6.040  14.496  0.00  0.00    +0.000 OA
BRANCH   7  11
ATOM     10  C   UNL     1       6.851   3.840  12.125  0.00  0.00    +0.000 C 
ATOM     11  C   UNL     1       6.139   3.751  13.448  0.00  0.00    +0.000 C 
ENDBRANCH   7  11
ENDBRANCH   1   7
BRANCH   4  12
ATOM     12  C   UNL     1       4.883   5.080  19.510  0.00  0.00    +0.000 C 
BRANCH  12  13
ATOM     13  C   UNL     1       3.555   4.431  19.879  0.00  0.00    +0.000 A 
ATOM     14  C   UNL     1       2.526   5.331  20.259  0.00  0.00    +0.000 A 
ATOM     15  C   UNL     1       1.224   4.908  20.530  0.00  0.00    +0.000 A 
ATOM     16  C   UNL     1       0.911   3.562  20.445  0.00  0.00    +0.000 A 
ATOM     17  C   UNL     1       1.912   2.651  20.118  0.00  0.00    +0.000 A 
ATOM     18  C   UNL     1       3.230   3.062  19.826  0.00  0.00    +0.000 A 
BRANCH  18  19
ATOM     19  O   UNL     1       4.027   1.983  19.574  0.00  0.00    +0.000 OA
ATOM     20  C   UNL     1       3.720   1.137  18.483  0.00  0.00    +0.000 C 
ENDBRANCH  18  19
ENDBRANCH  12  13
ENDBRANCH   4  12
TORSDOF 5
ENDMDL
MODEL 2
REMARK VINA RESULT:      -6.9      1.302      2.163
REMARK  Name = 
REMARK  7 active torsions:
REMARK  status: ('A' for Active; 'I' for Inactive)
REMARK    1  A    between atoms: C_1  and  C_2
REMARK    2  A    between atoms: C_2  and  S_3
REMARK    3  A    between atoms: S_3  and  N_6
REMARK    4  A    between atoms: N_9  and  C_10
REMARK    5  A    between atoms: C_10  and  C_11
REMARK    6  A    between atoms: C_16  and  O_17
REMARK    7  A    between atoms: O_17  and  C_18
REMARK                            x       y       z     vdW  Elec       q    Type
REMARK                         _______ _______ _______ _____ _____    ______ ____
ROOT
ATOM      1  N   UNL     1       6.377   4.063  15.977  0.00  0.00    +0.000 NA
ATOM      2  C   UNL     1       7.243   4.551  17.119  0.00  0.00    +0.000 C 
ATOM      3  C   UNL     1       6.624   5.758  17.877  0.00  0.00    +0.000 C 
ATOM      4  N   UNL     1       5.180   5.653  18.222  0.00  0.00    +0.000 NA
ATOM      5  C   UNL     1       4.430   5.194  17.045  0.00  0.00    +0.000 C 
ATOM      6  C   UNL     1       4.981   3.893  16.450  0.00  0.00    +0.000 C 
ENDROOT
BRANCH   1   7
ATOM      7  S   UNL     1       6.609   4.866  14.519  0.00  0.00    +0.000 S 
ATOM      8  O   UNL     1       7.963   5.367  14.507  0.00  0.00    +0.000 OA
ATOM      9  O   UNL     1       5.539   5.815  14.292  0.00  0.00    +0.000 OA
BRANCH   7  11
ATOM     10  C   UNL     1       5.143   3.737  12.458  0.00  0.00    +0.000 C 
ATOM     11  C   UNL     1       6.444   3.669  13.213  0.00  0.00    +0.000 C 
ENDBRANCH   7  11
ENDBRANCH   1   7
BRANCH   4  12
ATOM     12  C   UNL     1       4.971   4.841  19.428  0.00  0.00    +0.000 C 
BRANCH  12  13
ATOM     13  C   UNL     1       3.542   4.443  19.776  0.00  0.00    +0.000 A 
ATOM     14  C   UNL     1       3.278   3.049  19.755  0.00  0.00    +0.000 A 
ATOM     15  C   UNL     1       2.050   2.514  20.145  0.00  0.00    +0.000 A 
ATOM     16  C   UNL     1       1.035   3.361  20.556  0.00  0.00    +0.000 A 
ATOM     17  C   UNL     1       1.252   4.737  20.544  0.00  0.00    +0.000 A 
ATOM     18  C   UNL     1       2.491   5.295  20.167  0.00  0.00    +0.000 A 
BRANCH  18  19
ATOM     19  O   UNL     1       2.437   6.658  20.203  0.00  0.00    +0.000 OA
ATOM     20  C   UNL     1       2.235   7.374  19.001  0.00  0.00    +0.000 C 
ENDBRANCH  18  19
ENDBRANCH  12  13
ENDBRANCH   4  12
TORSDOF 5
ENDMDL
MODEL 3
REMARK VINA RESULT:      -6.7      1.989      2.781
REMARK  Name = 
REMARK  7 active torsions:
REMARK  status: ('A' for Active; 'I' for Inactive)
REMARK    1  A    between atoms: C_1  and  C_2
REMARK    2  A    between atoms: C_2  and  S_3
REMARK    3  A    between atoms: S_3  and  N_6
REMARK    4  A    between atoms: N_9  and  C_10
REMARK    5  A    between atoms: C_10  and  C_11
REMARK    6  A    between atoms: C_16  and  O_17
REMARK    7  A    between atoms: O_17  and  C_18
REMARK                            x       y       z     vdW  Elec       q    Type
REMARK                         _______ _______ _______ _____ _____    ______ ____
ROOT
ATOM      1  N   UNL     1       5.851   4.451  17.366  0.00  0.00    +0.000 NA
ATOM      2  C   UNL     1       5.322   4.375  18.783  0.00  0.00    +0.000 C 
ATOM      3  C   UNL     1       4.674   5.705  19.261  0.00  0.00    +0.000 C 
ATOM      4  N   UNL     1       3.743   6.368  18.307  0.00  0.00    +0.000 NA
ATOM      5  C   UNL     1       4.358   6.408  16.974  0.00  0.00    +0.000 C 
ATOM      6  C   UNL     1       4.812   5.030  16.479  0.00  0.00    +0.000 C 
ENDROOT
BRANCH   1   7
ATOM      7  S   UNL     1       7.414   5.053  17.226  0.00  0.00    +0.000 S 
ATOM      8  O   UNL     1       7.574   5.546  15.879  0.00  0.00    +0.000 OA
ATOM      9  O   UNL     1       8.373   4.079  17.704  0.00  0.00    +0.000 OA
BRANCH   7  11
ATOM     10  C   UNL     1       7.696   7.771  17.679  0.00  0.00    +0.000 C 
ATOM     11  C   UNL     1       7.563   6.428  18.346  0.00  0.00    +0.000 C 
ENDBRANCH   7  11
ENDBRANCH   1   7
BRANCH   4  12
ATOM     12  C   UNL     1       2.410   5.753  18.341  0.00  0.00    +0.000 C 
BRANCH  12  13
ATOM     13  C   UNL     1       2.203   4.559  19.264  0.00  0.00    +0.000 A 
ATOM     14  C   UNL     1       1.969   4.879  20.626  0.00  0.00    +0.000 A 
ATOM     15  C   UNL     1       1.663   3.908  21.581  0.00  0.00    +0.000 A 
ATOM     16  C   UNL     1       1.596   2.577  21.206  0.00  0.00    +0.000 A 
ATOM     17  C   UNL     1       1.866   2.230  19.884  0.00  0.00    +0.000 A 
ATOM     18  C   UNL     1       2.162   3.198  18.903  0.00  0.00    +0.000 A 
BRANCH  18  19
ATOM     19  O   UNL     1       2.423   2.604  17.702  0.00  0.00    +0.000 OA
ATOM     20  C   UNL     1       3.456   1.642  17.616  0.00  0.00    +0.000 C 
ENDBRANCH  18  19
ENDBRANCH  12  13
ENDBRANCH   4  12
TORSDOF 5
ENDMDL
MODEL 4
REMARK VINA RESULT:      -6.6      2.257      3.450
REMARK  Name = 
REMARK  7 active torsions:
REMARK  status: ('A' for Active; 'I' for Inactive)
REMARK    1  A    between atoms: C_1  and  C_2
REMARK    2  A    between atoms: C_2  and  S_3
REMARK    3  A    between atoms: S_3  and  N_6
REMARK    4  A    between atoms: N_9  and  C_10
REMARK    5  A    between atoms: C_10  and  C_11
REMARK    6  A    between atoms: C_16  and  O_17
REMARK    7  A    between atoms: O_17  and  C_18
REMARK                            x       y       z     vdW  Elec       q    Type
REMARK                         _______ _______ _______ _____ _____    ______ ____
ROOT
ATOM      1  N   UNL     1       5.829   4.502  17.084  0.00  0.00    +0.000 NA
ATOM      2  C   UNL     1       5.207   4.272  18.445  0.00  0.00    +0.000 C 
ATOM      3  C   UNL     1       4.553   5.552  19.037  0.00  0.00    +0.000 C 
ATOM      4  N   UNL     1       3.698   6.347  18.114  0.00  0.00    +0.000 NA
ATOM      5  C   UNL     1       4.399   6.529  16.836  0.00  0.00    +0.000 C 
ATOM      6  C   UNL     1       4.860   5.208  16.209  0.00  0.00    +0.000 C 
ENDROOT
BRANCH   1   7
ATOM      7  S   UNL     1       7.408   5.077  17.115  0.00  0.00    +0.000 S 
ATOM      8  O   UNL     1       7.683   5.668  15.828  0.00  0.00    +0.000 OA
ATOM      9  O   UNL     1       8.309   4.048  17.589  0.00  0.00    +0.000 OA
BRANCH   7  11
ATOM     10  C   UNL     1       7.772   7.735  17.806  0.00  0.00    +0.000 C 
ATOM     11  C   UNL     1       7.490   6.358  18.347  0.00  0.00    +0.000 C 
ENDBRANCH   7  11
ENDBRANCH   1   7
BRANCH   4  12
ATOM     12  C   UNL     1       2.354   5.766  17.990  0.00  0.00    +0.000 C 
BRANCH  12  13
ATOM     13  C   UNL     1       1.928   4.740  19.032  0.00  0.00    +0.000 A 
ATOM     14  C   UNL     1       1.625   3.450  18.524  0.00  0.00    +0.000 A 
ATOM     15  C   UNL     1       1.315   2.372  19.355  0.00  0.00    +0.000 A 
ATOM     16  C   UNL     1       1.283   2.554  20.727  0.00  0.00    +0.000 A 
ATOM     17  C   UNL     1       1.531   3.820  21.250  0.00  0.00    +0.000 A 
ATOM     18  C   UNL     1       1.860   4.917  20.427  0.00  0.00    +0.000 A 
BRANCH  18  19
ATOM     19  O   UNL     1       2.020   6.049  21.173  0.00  0.00    +0.000 OA
ATOM     20  C   UNL     1       1.270   7.203  20.849  0.00  0.00    +0.000 C 
ENDBRANCH  18  19
ENDBRANCH  12  13
ENDBRANCH   4  12
TORSDOF 5
ENDMDL
MODEL 5
REMARK VINA RESULT:      -6.6      2.020      3.133
REMARK  Name = 
REMARK  7 active torsions:
REMARK  status: ('A' for Active; 'I' for Inactive)
REMARK    1  A    between atoms: C_1  and  C_2
REMARK    2  A    between atoms: C_2  and  S_3
REMARK    3  A    between atoms: S_3  and  N_6
REMARK    4  A    between atoms: N_9  and  C_10
REMARK    5  A    between atoms: C_10  and  C_11
REMARK    6  A    between atoms: C_16  and  O_17
REMARK    7  A    between atoms: O_17  and  C_18
REMARK                            x       y       z     vdW  Elec       q    Type
REMARK                         _______ _______ _______ _____ _____    ______ ____
ROOT
ATOM      1  N   UNL     1       6.406   5.082  17.731  0.00  0.00    +0.000 NA
ATOM      2  C   UNL     1       5.269   5.217  18.722  0.00  0.00    +0.000 C 
ATOM      3  C   UNL     1       3.870   5.216  18.043  0.00  0.00    +0.000 C 
ATOM      4  N   UNL     1       3.639   4.177  17.002  0.00  0.00    +0.000 NA
ATOM      5  C   UNL     1       4.786   4.143  16.086  0.00  0.00    +0.000 C 
ATOM      6  C   UNL     1       6.127   3.956  16.805  0.00  0.00    +0.000 C 
ENDROOT
BRANCH   1   7
ATOM      7  S   UNL     1       6.933   6.528  17.056  0.00  0.00    +0.000 S 
ATOM      8  O   UNL     1       5.773   7.363  16.853  0.00  0.00    +0.000 OA
ATOM      9  O   UNL     1       7.785   6.270  15.915  0.00  0.00    +0.000 OA
BRANCH   7  11
ATOM     10  C   UNL     1       8.258   8.779  17.977  0.00  0.00    +0.000 C 
ATOM     11  C   UNL     1       7.991   7.322  18.246  0.00  0.00    +0.000 C 
ENDBRANCH   7  11
ENDBRANCH   1   7
BRANCH   4  12
ATOM     12  C   UNL     1       3.304   2.879  17.602  0.00  0.00    +0.000 C 
BRANCH  12  13
ATOM     13  C   UNL     1       2.810   2.871  19.043  0.00  0.00    +0.000 A 
ATOM     14  C   UNL     1       1.456   3.256  19.222  0.00  0.00    +0.000 A 
ATOM     15  C   UNL     1       0.822   3.206  20.465  0.00  0.00    +0.000 A 
ATOM     16  C   UNL     1       1.530   2.783  21.577  0.00  0.00    +0.000 A 
ATOM     17  C   UNL     1       2.873   2.443  21.438  0.00  0.00    +0.000 A 
ATOM     18  C   UNL     1       3.526   2.473  20.188  0.00  0.00    +0.000 A 
BRANCH  18  19
ATOM     19  O   UNL     1       4.842   2.133  20.323  0.00  0.00    +0.000 OA
ATOM     20  C   UNL     1       5.209   1.156  21.276  0.00  0.00    +0.000 C 
ENDBRANCH  18  19
ENDBRANCH  12  13
ENDBRANCH   4  12
TORSDOF 5
ENDMDL
MODEL 6
REMARK VINA RESULT:      -6.6      2.118      3.324
REMARK  Name = 
REMARK  7 active torsions:
REMARK  status: ('A' for Active; 'I' for Inactive)
REMARK    1  A    between atoms: C_1  and  C_2
REMARK    2  A    between atoms: C_2  and  S_3
REMARK    3  A    between atoms: S_3  and  N_6
REMARK    4  A    between atoms: N_9  and  C_10
REMARK    5  A    between atoms: C_10  and  C_11
REMARK    6  A    between atoms: C_16  and  O_17
REMARK    7  A    between atoms: O_17  and  C_18
REMARK                            x       y       z     vdW  Elec       q    Type
REMARK                         _______ _______ _______ _____ _____    ______ ____
ROOT
ATOM      1  N   UNL     1       5.699   6.703  17.532  0.00  0.00    +0.000 NA
ATOM      2  C   UNL     1       5.092   6.254  16.219  0.00  0.00    +0.000 C 
ATOM      3  C   UNL     1       5.176   4.716  16.007  0.00  0.00    +0.000 C 
ATOM      4  N   UNL     1       4.793   3.866  17.167  0.00  0.00    +0.000 NA
ATOM      5  C   UNL     1       5.448   4.373  18.380  0.00  0.00    +0.000 C 
ATOM      6  C   UNL     1       5.175   5.860  18.635  0.00  0.00    +0.000 C 
ENDROOT
BRANCH   1   7
ATOM      7  S   UNL     1       7.356   6.981  17.488  0.00  0.00    +0.000 S 
ATOM      8  O   UNL     1       7.846   6.501  16.218  0.00  0.00    +0.000 OA
ATOM      9  O   UNL     1       7.984   6.469  18.688  0.00  0.00    +0.000 OA
BRANCH   7  11
ATOM     10  C   UNL     1       8.659   9.189  18.535  0.00  0.00    +0.000 C 
ATOM     11  C   UNL     1       7.608   8.741  17.555  0.00  0.00    +0.000 C 
ENDBRANCH   7  11
ENDBRANCH   1   7
BRANCH   4  12
ATOM     12  C   UNL     1       3.335   3.731  17.278  0.00  0.00    +0.000 C 
BRANCH  12  13
ATOM     13  C   UNL     1       2.746   3.523  18.667  0.00  0.00    +0.000 A 
ATOM     14  C   UNL     1       1.664   4.379  19.002  0.00  0.00    +0.000 A 
ATOM     15  C   UNL     1       0.951   4.252  20.195  0.00  0.00    +0.000 A 
ATOM     16  C   UNL     1       1.308   3.270  21.104  0.00  0.00    +0.000 A 
ATOM     17  C   UNL     1       2.395   2.446  20.821  0.00  0.00    +0.000 A 
ATOM     18  C   UNL     1       3.118   2.550  19.615  0.00  0.00    +0.000 A 
BRANCH  18  19
ATOM     19  O   UNL     1       4.153   1.660  19.595  0.00  0.00    +0.000 OA
ATOM     20  C   UNL     1       4.951   1.502  20.751  0.00  0.00    +0.000 C 
ENDBRANCH  18  19
ENDBRANCH  12  13
ENDBRANCH   4  12
TORSDOF 5
ENDMDL
MODEL 7
REMARK VINA RESULT:      -6.4      2.756      6.383
REMARK  Name = 
REMARK  7 active torsions:
REMARK  status: ('A' for Active; 'I' for Inactive)
REMARK    1  A    between atoms: C_1  and  C_2
REMARK    2  A    between atoms: C_2  and  S_3
REMARK    3  A    between atoms: S_3  and  N_6
REMARK    4  A    between atoms: N_9  and  C_10
REMARK    5  A    between atoms: C_10  and  C_11
REMARK    6  A    between atoms: C_16  and  O_17
REMARK    7  A    between atoms: O_17  and  C_18
REMARK                            x       y       z     vdW  Elec       q    Type
REMARK                         _______ _______ _______ _____ _____    ______ ____
ROOT
ATOM      1  N   UNL     1       2.306   3.611  18.274  0.00  0.00    +0.000 NA
ATOM      2  C   UNL     1       2.910   4.994  18.398  0.00  0.00    +0.000 C 
ATOM      3  C   UNL     1       4.113   5.044  19.382  0.00  0.00    +0.000 C 
ATOM      4  N   UNL     1       5.122   3.958  19.251  0.00  0.00    +0.000 NA
ATOM      5  C   UNL     1       4.435   2.663  19.158  0.00  0.00    +0.000 C 
ATOM      6  C   UNL     1       3.384   2.617  18.043  0.00  0.00    +0.000 C 
ENDROOT
BRANCH   1   7
ATOM      7  S   UNL     1       1.144   3.239  19.430  0.00  0.00    +0.000 S 
ATOM      8  O   UNL     1       0.166   2.380  18.807  0.00  0.00    +0.000 OA
ATOM      9  O   UNL     1       0.667   4.448  20.070  0.00  0.00    +0.000 OA
BRANCH   7  11
ATOM     10  C   UNL     1       2.162   3.093  22.002  0.00  0.00    +0.000 C 
ATOM     11  C   UNL     1       1.948   2.323  20.726  0.00  0.00    +0.000 C 
ENDBRANCH   7  11
ENDBRANCH   1   7
BRANCH   4  12
ATOM     12  C   UNL     1       6.061   4.225  18.153  0.00  0.00    +0.000 C 
BRANCH  12  13
ATOM     13  C   UNL     1       6.667   5.620  18.063  0.00  0.00    +0.000 A 
ATOM     14  C   UNL     1       7.684   5.901  19.011  0.00  0.00    +0.000 A 
ATOM     15  C   UNL     1       8.409   7.095  19.000  0.00  0.00    +0.000 A 
ATOM     16  C   UNL     1       8.127   8.056  18.044  0.00  0.00    +0.000 A 
ATOM     17  C   UNL     1       7.102   7.825  17.130  0.00  0.00    +0.000 A 
ATOM     18  C   UNL     1       6.370   6.620  17.117  0.00  0.00    +0.000 A 
BRANCH  18  19
ATOM     19  O   UNL     1       5.402   6.654  16.154  0.00  0.00    +0.000 OA
ATOM     20  C   UNL     1       5.390   5.658  15.152  0.00  0.00    +0.000 C 
ENDBRANCH  18  19
ENDBRANCH  12  13
ENDBRANCH   4  12
TORSDOF 5
ENDMDL
MODEL 8
REMARK VINA RESULT:      -6.3      1.766      2.018
REMARK  Name = 
REMARK  7 active torsions:
REMARK  status: ('A' for Active; 'I' for Inactive)
REMARK    1  A    between atoms: C_1  and  C_2
REMARK    2  A    between atoms: C_2  and  S_3
REMARK    3  A    between atoms: S_3  and  N_6
REMARK    4  A    between atoms: N_9  and  C_10
REMARK    5  A    between atoms: C_10  and  C_11
REMARK    6  A    between atoms: C_16  and  O_17
REMARK    7  A    between atoms: O_17  and  C_18
REMARK                            x       y       z     vdW  Elec       q    Type
REMARK                         _______ _______ _______ _____ _____    ______ ____
ROOT
ATOM      1  N   UNL     1       5.438   4.737  16.755  0.00  0.00    +0.000 NA
ATOM      2  C   UNL     1       5.171   4.196  18.144  0.00  0.00    +0.000 C 
ATOM      3  C   UNL     1       4.917   5.315  19.192  0.00  0.00    +0.000 C 
ATOM      4  N   UNL     1       3.990   6.406  18.785  0.00  0.00    +0.000 NA
ATOM      5  C   UNL     1       4.347   6.871  17.438  0.00  0.00    +0.000 C 
ATOM      6  C   UNL     1       4.402   5.740  16.405  0.00  0.00    +0.000 C 
ENDROOT
BRANCH   1   7
ATOM      7  S   UNL     1       7.041   5.140  16.448  0.00  0.00    +0.000 S 
ATOM      8  O   UNL     1       7.872   4.222  17.191  0.00  0.00    +0.000 OA
ATOM      9  O   UNL     1       7.252   6.557  16.656  0.00  0.00    +0.000 OA
BRANCH   7  11
ATOM     10  C   UNL     1       6.343   3.981  14.031  0.00  0.00    +0.000 C 
ATOM     11  C   UNL     1       7.338   4.882  14.713  0.00  0.00    +0.000 C 
ENDBRANCH   7  11
ENDBRANCH   1   7
BRANCH   4  12
ATOM     12  C   UNL     1       2.585   6.003  18.934  0.00  0.00    +0.000 C 
BRANCH  12  13
ATOM     13  C   UNL     1       2.298   4.687  19.646  0.00  0.00    +0.000 A 
ATOM     14  C   UNL     1       2.414   4.725  21.060  0.00  0.00    +0.000 A 
ATOM     15  C   UNL     1       2.088   3.634  21.867  0.00  0.00    +0.000 A 
ATOM     16  C   UNL     1       1.648   2.459  21.283  0.00  0.00    +0.000 A 
ATOM     17  C   UNL     1       1.568   2.379  19.895  0.00  0.00    +0.000 A 
ATOM     18  C   UNL     1       1.878   3.475  19.064  0.00  0.00    +0.000 A 
BRANCH  18  19
ATOM     19  O   UNL     1       1.757   3.133  17.748  0.00  0.00    +0.000 OA
ATOM     20  C   UNL     1       2.597   2.130  17.214  0.00  0.00    +0.000 C 
ENDBRANCH  18  19
ENDBRANCH  12  13
ENDBRANCH   4  12
TORSDOF 5
ENDMDL
MODEL 9
REMARK VINA RESULT:      -6.2      2.365      3.775
REMARK  Name = 
REMARK  7 active torsions:
REMARK  status: ('A' for Active; 'I' for Inactive)
REMARK    1  A    between atoms: C_1  and  C_2
REMARK    2  A    between atoms: C_2  and  S_3
REMARK    3  A    between atoms: S_3  and  N_6
REMARK    4  A    between atoms: N_9  and  C_10
REMARK    5  A    between atoms: C_10  and  C_11
REMARK    6  A    between atoms: C_16  and  O_17
REMARK    7  A    between atoms: O_17  and  C_18
REMARK                            x       y       z     vdW  Elec       q    Type
REMARK                         _______ _______ _______ _____ _____    ______ ____
ROOT
ATOM      1  N   UNL     1       5.814   6.379  17.792  0.00  0.00    +0.000 NA
ATOM      2  C   UNL     1       5.029   6.337  16.497  0.00  0.00    +0.000 C 
ATOM      3  C   UNL     1       4.662   4.892  16.057  0.00  0.00    +0.000 C 
ATOM      4  N   UNL     1       4.121   3.995  17.114  0.00  0.00    +0.000 NA
ATOM      5  C   UNL     1       4.962   4.095  18.314  0.00  0.00    +0.000 C 
ATOM      6  C   UNL     1       5.137   5.535  18.809  0.00  0.00    +0.000 C 
ENDROOT
BRANCH   1   7
ATOM      7  S   UNL     1       7.476   6.201  17.619  0.00  0.00    +0.000 S 
ATOM      8  O   UNL     1       7.792   6.383  16.222  0.00  0.00    +0.000 OA
ATOM      9  O   UNL     1       7.920   4.980  18.256  0.00  0.00    +0.000 OA
BRANCH   7  11
ATOM     10  C   UNL     1       8.105   8.880  17.940  0.00  0.00    +0.000 C 
ATOM     11  C   UNL     1       8.255   7.508  18.542  0.00  0.00    +0.000 C 
ENDBRANCH   7  11
ENDBRANCH   1   7
BRANCH   4  12
ATOM     12  C   UNL     1       2.694   4.242  17.353  0.00  0.00    +0.000 C 
BRANCH  12  13
ATOM     13  C   UNL     1       2.139   3.911  18.733  0.00  0.00    +0.000 A 
ATOM     14  C   UNL     1       1.764   2.556  18.926  0.00  0.00    +0.000 A 
ATOM     15  C   UNL     1       1.333   2.068  20.161  0.00  0.00    +0.000 A 
ATOM     16  C   UNL     1       1.246   2.927  21.243  0.00  0.00    +0.000 A 
ATOM     17  C   UNL     1       1.563   4.272  21.070  0.00  0.00    +0.000 A 
ATOM     18  C   UNL     1       2.015   4.780  19.834  0.00  0.00    +0.000 A 
BRANCH  18  19
ATOM     19  O   UNL     1       2.224   6.127  19.913  0.00  0.00    +0.000 OA
ATOM     20  C   UNL     1       1.408   6.903  20.767  0.00  0.00    +0.000 C 
ENDBRANCH  18  19
ENDBRANCH  12  13
ENDBRANCH   4  12
TORSDOF 5
ENDMDL
