MODEL 1
REMARK VINA RESULT:      -7.4      0.000      0.000
REMARK  Name = 
REMARK  20 active torsions:
REMARK  status: ('A' for Active; 'I' for Inactive)
REMARK    1  A    between atoms: C_2  and  C_3
REMARK    2  A    between atoms: C_2  and  C_4
REMARK    3  A    between atoms: C_4  and  C_5
REMARK    4  A    between atoms: C_5  and  C_6
REMARK    5  A    between atoms: C_6  and  C_7
REMARK    6  A    between atoms: C_7  and  C_8
REMARK    7  A    between atoms: C_7  and  C_9
REMARK    8  A    between atoms: C_9  and  C_10
REMARK    9  A    between atoms: C_10  and  C_11
REMARK   10  A    between atoms: C_11  and  C_12
REMARK   11  A    between atoms: C_12  and  C_13
REMARK   12  A    between atoms: C_12  and  C_14
REMARK   13  A    between atoms: C_14  and  C_15
REMARK   14  A    between atoms: C_15  and  C_16
REMARK   15  A    between atoms: C_16  and  C_17
REMARK   16  A    between atoms: C_17  and  C_18
REMARK   17  A    between atoms: C_22  and  C_23
REMARK   18  A    between atoms: C_24  and  O_25
REMARK   19  A    between atoms: C_26  and  C_27
REMARK   20  A    between atoms: C_28  and  C_29
REMARK                            x       y       z     vdW  Elec       q    Type
REMARK                         _______ _______ _______ _____ _____    ______ ____
ROOT
ATOM      1  C   UNL     1       2.086   8.357  17.865  0.00  0.00    +0.000 C 
ENDROOT
BRANCH   1   2
ATOM      2  C   UNL     1       1.261   9.552  18.392  0.00  0.00    +0.000 C 
ATOM      3  C   UNL     1       2.004  10.831  17.948  0.00  0.00    +0.000 C 
ATOM      4  C   UNL     1       1.105   9.460  19.912  0.00  0.00    +0.000 C 
ATOM      5  C   UNL     1       0.302  10.634  20.433  0.00  0.00    +0.000 C 
ATOM      6  C   UNL     1      -0.897  10.923  19.564  0.00  0.00    +0.000 A 
ATOM      7  C   UNL     1      -1.901  11.817  19.994  0.00  0.00    +0.000 A 
ATOM      8  C   UNL     1      -1.790  12.546  21.308  0.00  0.00    +0.000 C 
ATOM      9  C   UNL     1      -3.016  12.026  19.159  0.00  0.00    +0.000 A 
ATOM     10  C   UNL     1      -3.156  11.385  17.914  0.00  0.00    +0.000 A 
ATOM     11  C   UNL     1      -4.372  11.636  17.059  0.00  0.00    +0.000 C 
ATOM     12  C   UNL     1      -2.135  10.515  17.479  0.00  0.00    +0.000 A 
ATOM     13  C   UNL     1      -2.208   9.783  16.159  0.00  0.00    +0.000 C 
ATOM     14  C   UNL     1      -1.005  10.317  18.296  0.00  0.00    +0.000 A 
ATOM     15  O   UNL     1      -0.029   9.500  17.768  0.00  0.00    +0.000 OA
BRANCH   9  16
ATOM     16  O   UNL     1      -4.029  12.875  19.534  0.00  0.00    +0.000 OA
ATOM     17  H   UNL     1      -4.531  13.161  18.759  0.00  0.00    +0.000 HD
ENDBRANCH   9  16
ENDBRANCH   1   2
BRANCH   1  18
ATOM     18  C   UNL     1       2.441   7.283  18.901  0.00  0.00    +0.000 C 
BRANCH  18  19
ATOM     19  C   UNL     1       1.892   5.901  18.519  0.00  0.00    +0.000 C 
BRANCH  19  20
ATOM     20  C   UNL     1       1.373   5.062  19.706  0.00  0.00    +0.000 C 
ATOM     21  C   UNL     1       2.384   5.128  20.859  0.00  0.00    +0.000 C 
BRANCH  20  22
ATOM     22  C   UNL     1       1.054   3.613  19.278  0.00  0.00    +0.000 C 
BRANCH  22  23
ATOM     23  C   UNL     1       1.705   3.257  17.948  0.00  0.00    +0.000 C 
BRANCH  23  24
ATOM     24  C   UNL     1       2.577   2.004  18.024  0.00  0.00    +0.000 C 
BRANCH  24  25
ATOM     25  C   UNL     1       4.055   2.354  18.298  0.00  0.00    +0.000 C 
ATOM     26  C   UNL     1       4.408   2.190  19.785  0.00  0.00    +0.000 C 
BRANCH  25  27
ATOM     27  C   UNL     1       4.354   3.783  17.795  0.00  0.00    +0.000 C 
BRANCH  27  28
ATOM     28  C   UNL     1       5.125   3.775  16.474  0.00  0.00    +0.000 C 
BRANCH  28  29
ATOM     29  C   UNL     1       6.434   4.558  16.551  0.00  0.00    +0.000 C 
BRANCH  29  31
ATOM     30  C   UNL     1       5.092   6.602  16.063  0.00  0.00    +0.000 C 
ATOM     31  C   UNL     1       6.182   6.052  16.620  0.00  0.00    +0.000 C 
ATOM     32  C   UNL     1       7.197   6.888  17.352  0.00  0.00    +0.000 C 
ENDBRANCH  29  31
ENDBRANCH  28  29
ENDBRANCH  27  28
ENDBRANCH  25  27
ENDBRANCH  24  25
ENDBRANCH  23  24
ENDBRANCH  22  23
ENDBRANCH  20  22
ENDBRANCH  19  20
ENDBRANCH  18  19
ENDBRANCH   1  18
TORSDOF 13
ENDMDL
MODEL 2
REMARK VINA RESULT:      -7.3      1.088      1.468
REMARK  Name = 
REMARK  20 active torsions:
REMARK  status: ('A' for Active; 'I' for Inactive)
REMARK    1  A    between atoms: C_2  and  C_3
REMARK    2  A    between atoms: C_2  and  C_4
REMARK    3  A    between atoms: C_4  and  C_5
REMARK    4  A    between atoms: C_5  and  C_6
REMARK    5  A    between atoms: C_6  and  C_7
REMARK    6  A    between atoms: C_7  and  C_8
REMARK    7  A    between atoms: C_7  and  C_9
REMARK    8  A    between atoms: C_9  and  C_10
REMARK    9  A    between atoms: C_10  and  C_11
REMARK   10  A    between atoms: C_11  and  C_12
REMARK   11  A    between atoms: C_12  and  C_13
REMARK   12  A    between atoms: C_12  and  C_14
REMARK   13  A    between atoms: C_14  and  C_15
REMARK   14  A    between atoms: C_15  and  C_16
REMARK   15  A    between atoms: C_16  and  C_17
REMARK   16  A    between atoms: C_17  and  C_18
REMARK   17  A    between atoms: C_22  and  C_23
REMARK   18  A    between atoms: C_24  and  O_25
REMARK   19  A    between atoms: C_26  and  C_27
REMARK   20  A    between atoms: C_28  and  C_29
REMARK                            x       y       z     vdW  Elec       q    Type
REMARK                         _______ _______ _______ _____ _____    ______ ____
ROOT
ATOM      1  C   UNL     1       1.477   8.991  17.678  0.00  0.00    +0.000 C 
ENDROOT
BRANCH   1   2
ATOM      2  C   UNL     1       0.909  10.035  18.665  0.00  0.00    +0.000 C 
ATOM      3  C   UNL     1       1.697  11.343  18.425  0.00  0.00    +0.000 C 
ATOM      4  C   UNL     1       1.035   9.529  20.104  0.00  0.00    +0.000 C 
ATOM      5  C   UNL     1       0.485  10.554  21.075  0.00  0.00    +0.000 C 
ATOM      6  C   UNL     1      -0.816  11.144  20.588  0.00  0.00    +0.000 A 
ATOM      7  C   UNL     1      -1.611  11.939  21.442  0.00  0.00    +0.000 A 
ATOM      8  C   UNL     1      -1.171  12.260  22.847  0.00  0.00    +0.000 C 
ATOM      9  C   UNL     1      -2.833  12.438  20.950  0.00  0.00    +0.000 A 
ATOM     10  C   UNL     1      -3.278  12.183  19.639  0.00  0.00    +0.000 A 
ATOM     11  C   UNL     1      -4.596  12.734  19.161  0.00  0.00    +0.000 C 
ATOM     12  C   UNL     1      -2.464  11.412  18.783  0.00  0.00    +0.000 A 
ATOM     13  C   UNL     1      -2.869  11.086  17.365  0.00  0.00    +0.000 C 
ATOM     14  C   UNL     1      -1.231  10.927  19.259  0.00  0.00    +0.000 A 
ATOM     15  O   UNL     1      -0.472  10.236  18.340  0.00  0.00    +0.000 OA
BRANCH   9  16
ATOM     16  O   UNL     1      -3.652  13.205  21.743  0.00  0.00    +0.000 OA
ATOM     17  H   UNL     1      -4.514  12.779  21.846  0.00  0.00    +0.000 HD
ENDBRANCH   9  16
ENDBRANCH   1   2
BRANCH   1  18
ATOM     18  C   UNL     1       2.635   8.135  18.207  0.00  0.00    +0.000 C 
BRANCH  18  19
ATOM     19  C   UNL     1       2.254   6.653  18.334  0.00  0.00    +0.000 C 
BRANCH  19  20
ATOM     20  C   UNL     1       2.715   5.978  19.643  0.00  0.00    +0.000 C 
ATOM     21  C   UNL     1       4.190   5.575  19.518  0.00  0.00    +0.000 C 
BRANCH  20  22
ATOM     22  C   UNL     1       1.803   4.789  20.018  0.00  0.00    +0.000 C 
BRANCH  22  23
ATOM     23  C   UNL     1       1.249   4.087  18.785  0.00  0.00    +0.000 C 
BRANCH  23  24
ATOM     24  C   UNL     1       1.420   2.569  18.832  0.00  0.00    +0.000 C 
BRANCH  24  25
ATOM     25  C   UNL     1       2.499   2.086  17.840  0.00  0.00    +0.000 C 
ATOM     26  C   UNL     1       3.680   1.423  18.567  0.00  0.00    +0.000 C 
BRANCH  25  27
ATOM     27  C   UNL     1       2.961   3.265  16.957  0.00  0.00    +0.000 C 
BRANCH  27  28
ATOM     28  C   UNL     1       4.479   3.452  16.997  0.00  0.00    +0.000 C 
BRANCH  28  29
ATOM     29  C   UNL     1       5.022   4.127  15.740  0.00  0.00    +0.000 C 
BRANCH  29  31
ATOM     30  C   UNL     1       5.047   6.613  15.923  0.00  0.00    +0.000 C 
ATOM     31  C   UNL     1       5.694   5.447  16.068  0.00  0.00    +0.000 C 
ATOM     32  C   UNL     1       7.109   5.391  16.579  0.00  0.00    +0.000 C 
ENDBRANCH  29  31
ENDBRANCH  28  29
ENDBRANCH  27  28
ENDBRANCH  25  27
ENDBRANCH  24  25
ENDBRANCH  23  24
ENDBRANCH  22  23
ENDBRANCH  20  22
ENDBRANCH  19  20
ENDBRANCH  18  19
ENDBRANCH   1  18
TORSDOF 13
ENDMDL
MODEL 3
REMARK VINA RESULT:      -7.2      2.416      3.882
REMARK  Name = 
REMARK  20 active torsions:
REMARK  status: ('A' for Active; 'I' for Inactive)
REMARK    1  A    between atoms: C_2  and  C_3
REMARK    2  A    between atoms: C_2  and  C_4
REMARK    3  A    between atoms: C_4  and  C_5
REMARK    4  A    between atoms: C_5  and  C_6
REMARK    5  A    between atoms: C_6  and  C_7
REMARK    6  A    between atoms: C_7  and  C_8
REMARK    7  A    between atoms: C_7  and  C_9
REMARK    8  A    between atoms: C_9  and  C_10
REMARK    9  A    between atoms: C_10  and  C_11
REMARK   10  A    between atoms: C_11  and  C_12
REMARK   11  A    between atoms: C_12  and  C_13
REMARK   12  A    between atoms: C_12  and  C_14
REMARK   13  A    between atoms: C_14  and  C_15
REMARK   14  A    between atoms: C_15  and  C_16
REMARK   15  A    between atoms: C_16  and  C_17
REMARK   16  A    between atoms: C_17  and  C_18
REMARK   17  A    between atoms: C_22  and  C_23
REMARK   18  A    between atoms: C_24  and  O_25
REMARK   19  A    between atoms: C_26  and  C_27
REMARK   20  A    between atoms: C_28  and  C_29
REMARK                            x       y       z     vdW  Elec       q    Type
REMARK                         _______ _______ _______ _____ _____    ______ ____
ROOT
ATOM      1  C   UNL     1       1.545   9.033  17.833  0.00  0.00    +0.000 C 
ENDROOT
BRANCH   1   2
ATOM      2  C   UNL     1       0.808  10.074  18.705  0.00  0.00    +0.000 C 
ATOM      3  C   UNL     1       1.048   9.666  20.176  0.00  0.00    +0.000 C 
ATOM      4  C   UNL     1      -0.678  10.115  18.341  0.00  0.00    +0.000 C 
ATOM      5  C   UNL     1      -1.404  11.131  19.199  0.00  0.00    +0.000 C 
ATOM      6  C   UNL     1      -0.620  12.413  19.334  0.00  0.00    +0.000 A 
ATOM      7  C   UNL     1      -1.214  13.566  19.891  0.00  0.00    +0.000 A 
ATOM      8  C   UNL     1      -2.630  13.545  20.409  0.00  0.00    +0.000 C 
ATOM      9  C   UNL     1      -0.450  14.747  19.964  0.00  0.00    +0.000 A 
ATOM     10  C   UNL     1       0.883  14.811  19.513  0.00  0.00    +0.000 A 
ATOM     11  C   UNL     1       1.658  16.099  19.607  0.00  0.00    +0.000 C 
ATOM     12  C   UNL     1       1.478  13.647  18.984  0.00  0.00    +0.000 A 
ATOM     13  C   UNL     1       2.899  13.630  18.473  0.00  0.00    +0.000 C 
ATOM     14  C   UNL     1       0.729  12.456  18.928  0.00  0.00    +0.000 A 
ATOM     15  O   UNL     1       1.405  11.353  18.454  0.00  0.00    +0.000 OA
BRANCH   9  16
ATOM     16  O   UNL     1      -0.982  15.901  20.485  0.00  0.00    +0.000 OA
ATOM     17  H   UNL     1      -1.944  15.825  20.554  0.00  0.00    +0.000 HD
ENDBRANCH   9  16
ENDBRANCH   1   2
BRANCH   1  18
ATOM     18  C   UNL     1       2.297   7.936  18.597  0.00  0.00    +0.000 C 
BRANCH  18  19
ATOM     19  C   UNL     1       3.378   7.264  17.738  0.00  0.00    +0.000 C 
BRANCH  19  20
ATOM     20  C   UNL     1       3.537   5.747  17.971  0.00  0.00    +0.000 C 
ATOM     21  C   UNL     1       2.165   5.067  17.863  0.00  0.00    +0.000 C 
BRANCH  20  22
ATOM     22  C   UNL     1       4.243   5.451  19.313  0.00  0.00    +0.000 C 
BRANCH  22  23
ATOM     23  C   UNL     1       5.529   4.659  19.115  0.00  0.00    +0.000 C 
BRANCH  23  24
ATOM     24  C   UNL     1       6.788   5.500  19.320  0.00  0.00    +0.000 C 
BRANCH  24  25
ATOM     25  C   UNL     1       7.547   5.723  17.996  0.00  0.00    +0.000 C 
ATOM     26  C   UNL     1       7.255   7.111  17.404  0.00  0.00    +0.000 C 
BRANCH  25  27
ATOM     27  C   UNL     1       7.202   4.594  17.001  0.00  0.00    +0.000 C 
BRANCH  27  28
ATOM     28  C   UNL     1       6.786   5.140  15.634  0.00  0.00    +0.000 C 
BRANCH  28  29
ATOM     29  C   UNL     1       5.985   4.130  14.815  0.00  0.00    +0.000 C 
BRANCH  29  31
ATOM     30  C   UNL     1       5.838   3.323  12.461  0.00  0.00    +0.000 C 
ATOM     31  C   UNL     1       6.443   4.103  13.369  0.00  0.00    +0.000 C 
ATOM     32  C   UNL     1       7.592   5.001  12.994  0.00  0.00    +0.000 C 
ENDBRANCH  29  31
ENDBRANCH  28  29
ENDBRANCH  27  28
ENDBRANCH  25  27
ENDBRANCH  24  25
ENDBRANCH  23  24
ENDBRANCH  22  23
ENDBRANCH  20  22
ENDBRANCH  19  20
ENDBRANCH  18  19
ENDBRANCH   1  18
TORSDOF 13
ENDMDL
MODEL 4
REMARK VINA RESULT:      -7.2      1.787      4.039
REMARK  Name = 
REMARK  20 active torsions:
REMARK  status: ('A' for Active; 'I' for Inactive)
REMARK    1  A    between atoms: C_2  and  C_3
REMARK    2  A    between atoms: C_2  and  C_4
REMARK    3  A    between atoms: C_4  and  C_5
REMARK    4  A    between atoms: C_5  and  C_6
REMARK    5  A    between atoms: C_6  and  C_7
REMARK    6  A    between atoms: C_7  and  C_8
REMARK    7  A    between atoms: C_7  and  C_9
REMARK    8  A    between atoms: C_9  and  C_10
REMARK    9  A    between atoms: C_10  and  C_11
REMARK   10  A    between atoms: C_11  and  C_12
REMARK   11  A    between atoms: C_12  and  C_13
REMARK   12  A    between atoms: C_12  and  C_14
REMARK   13  A    between atoms: C_14  and  C_15
REMARK   14  A    between atoms: C_15  and  C_16
REMARK   15  A    between atoms: C_16  and  C_17
REMARK   16  A    between atoms: C_17  and  C_18
REMARK   17  A    between atoms: C_22  and  C_23
REMARK   18  A    between atoms: C_24  and  O_25
REMARK   19  A    between atoms: C_26  and  C_27
REMARK   20  A    between atoms: C_28  and  C_29
REMARK                            x       y       z     vdW  Elec       q    Type
REMARK                         _______ _______ _______ _____ _____    ______ ____
ROOT
ATOM      1  C   UNL     1       2.084   8.933  17.710  0.00  0.00    +0.000 C 
ENDROOT
BRANCH   1   2
ATOM      2  C   UNL     1       1.038   9.753  18.500  0.00  0.00    +0.000 C 
ATOM      3  C   UNL     1       1.084   9.238  19.956  0.00  0.00    +0.000 C 
ATOM      4  C   UNL     1      -0.346   9.599  17.865  0.00  0.00    +0.000 C 
ATOM      5  C   UNL     1      -1.374  10.397  18.642  0.00  0.00    +0.000 C 
ATOM      6  C   UNL     1      -0.857  11.764  19.015  0.00  0.00    +0.000 A 
ATOM      7  C   UNL     1      -1.728  12.748  19.532  0.00  0.00    +0.000 A 
ATOM      8  C   UNL     1      -3.187  12.455  19.770  0.00  0.00    +0.000 C 
ATOM      9  C   UNL     1      -1.202  14.019  19.833  0.00  0.00    +0.000 A 
ATOM     10  C   UNL     1       0.157  14.335  19.648  0.00  0.00    +0.000 A 
ATOM     11  C   UNL     1       0.672  15.712  19.979  0.00  0.00    +0.000 C 
ATOM     12  C   UNL     1       1.026  13.339  19.158  0.00  0.00    +0.000 A 
ATOM     13  C   UNL     1       2.497  13.595  18.925  0.00  0.00    +0.000 C 
ATOM     14  C   UNL     1       0.514  12.057  18.876  0.00  0.00    +0.000 A 
ATOM     15  O   UNL     1       1.442  11.127  18.459  0.00  0.00    +0.000 OA
BRANCH   9  16
ATOM     16  O   UNL     1      -2.007  15.018  20.326  0.00  0.00    +0.000 OA
ATOM     17  H   UNL     1      -1.581  15.452  21.077  0.00  0.00    +0.000 HD
ENDBRANCH   9  16
ENDBRANCH   1   2
BRANCH   1  18
ATOM     18  C   UNL     1       2.541   7.625  18.368  0.00  0.00    +0.000 C 
BRANCH  18  19
ATOM     19  C   UNL     1       3.475   6.812  17.461  0.00  0.00    +0.000 C 
BRANCH  19  20
ATOM     20  C   UNL     1       4.888   6.575  18.036  0.00  0.00    +0.000 C 
ATOM     21  C   UNL     1       5.938   7.053  17.025  0.00  0.00    +0.000 C 
BRANCH  20  22
ATOM     22  C   UNL     1       5.090   5.101  18.451  0.00  0.00    +0.000 C 
BRANCH  22  23
ATOM     23  C   UNL     1       5.406   4.213  17.254  0.00  0.00    +0.000 C 
BRANCH  23  24
ATOM     24  C   UNL     1       4.237   3.315  16.849  0.00  0.00    +0.000 C 
BRANCH  24  25
ATOM     25  C   UNL     1       3.396   2.888  18.070  0.00  0.00    +0.000 C 
ATOM     26  C   UNL     1       3.538   1.385  18.355  0.00  0.00    +0.000 C 
BRANCH  25  27
ATOM     27  C   UNL     1       1.922   3.292  17.854  0.00  0.00    +0.000 C 
BRANCH  27  28
ATOM     28  C   UNL     1       0.976   2.530  18.783  0.00  0.00    +0.000 C 
BRANCH  28  29
ATOM     29  C   UNL     1       0.479   3.384  19.948  0.00  0.00    +0.000 C 
BRANCH  29  31
ATOM     30  C   UNL     1       1.995   5.153  20.835  0.00  0.00    +0.000 C 
ATOM     31  C   UNL     1       1.630   3.862  20.813  0.00  0.00    +0.000 C 
ATOM     32  C   UNL     1       2.332   2.832  21.657  0.00  0.00    +0.000 C 
ENDBRANCH  29  31
ENDBRANCH  28  29
ENDBRANCH  27  28
ENDBRANCH  25  27
ENDBRANCH  24  25
ENDBRANCH  23  24
ENDBRANCH  22  23
ENDBRANCH  20  22
ENDBRANCH  19  20
ENDBRANCH  18  19
ENDBRANCH   1  18
TORSDOF 13
ENDMDL
MODEL 5
REMARK VINA RESULT:      -7.0      2.002      2.869
REMARK  Name = 
REMARK  20 active torsions:
REMARK  status: ('A' for Active; 'I' for Inactive)
REMARK    1  A    between atoms: C_2  and  C_3
REMARK    2  A    between atoms: C_2  and  C_4
REMARK    3  A    between atoms: C_4  and  C_5
REMARK    4  A    between atoms: C_5  and  C_6
REMARK    5  A    between atoms: C_6  and  C_7
REMARK    6  A    between atoms: C_7  and  C_8
REMARK    7  A    between atoms: C_7  and  C_9
REMARK    8  A    between atoms: C_9  and  C_10
REMARK    9  A    between atoms: C_10  and  C_11
REMARK   10  A    between atoms: C_11  and  C_12
REMARK   11  A    between atoms: C_12  and  C_13
REMARK   12  A    between atoms: C_12  and  C_14
REMARK   13  A    between atoms: C_14  and  C_15
REMARK   14  A    between atoms: C_15  and  C_16
REMARK   15  A    between atoms: C_16  and  C_17
REMARK   16  A    between atoms: C_17  and  C_18
REMARK   17  A    between atoms: C_22  and  C_23
REMARK   18  A    between atoms: C_24  and  O_25
REMARK   19  A    between atoms: C_26  and  C_27
REMARK   20  A    between atoms: C_28  and  C_29
REMARK                            x       y       z     vdW  Elec       q    Type
REMARK                         _______ _______ _______ _____ _____    ______ ____
ROOT
ATOM      1  C   UNL     1       2.655   7.691  18.659  0.00  0.00    +0.000 C 
ENDROOT
BRANCH   1   2
ATOM      2  C   UNL     1       1.733   8.931  18.692  0.00  0.00    +0.000 C 
ATOM      3  C   UNL     1       0.557   8.630  17.737  0.00  0.00    +0.000 C 
ATOM      4  C   UNL     1       2.514  10.183  18.289  0.00  0.00    +0.000 C 
ATOM      5  C   UNL     1       1.611  11.400  18.314  0.00  0.00    +0.000 C 
ATOM      6  C   UNL     1       0.729  11.417  19.538  0.00  0.00    +0.000 A 
ATOM      7  C   UNL     1      -0.015  12.569  19.875  0.00  0.00    +0.000 A 
ATOM      8  C   UNL     1       0.012  13.800  19.005  0.00  0.00    +0.000 C 
ATOM      9  C   UNL     1      -0.797  12.544  21.046  0.00  0.00    +0.000 A 
ATOM     10  C   UNL     1      -0.871  11.412  21.879  0.00  0.00    +0.000 A 
ATOM     11  C   UNL     1      -1.717  11.437  23.126  0.00  0.00    +0.000 C 
ATOM     12  C   UNL     1      -0.148  10.256  21.520  0.00  0.00    +0.000 A 
ATOM     13  C   UNL     1      -0.167   9.000  22.360  0.00  0.00    +0.000 C 
ATOM     14  C   UNL     1       0.619  10.263  20.339  0.00  0.00    +0.000 A 
ATOM     15  O   UNL     1       1.244   9.074  20.032  0.00  0.00    +0.000 OA
BRANCH   9  16
ATOM     16  O   UNL     1      -1.530  13.642  21.428  0.00  0.00    +0.000 OA
ATOM     17  H   UNL     1      -2.166  13.876  20.739  0.00  0.00    +0.000 HD
ENDBRANCH   9  16
ENDBRANCH   1   2
BRANCH   1  18
ATOM     18  C   UNL     1       1.955   6.335  18.810  0.00  0.00    +0.000 C 
BRANCH  18  19
ATOM     19  C   UNL     1       1.962   5.834  20.261  0.00  0.00    +0.000 C 
BRANCH  19  20
ATOM     20  C   UNL     1       1.322   4.445  20.468  0.00  0.00    +0.000 C 
ATOM     21  C   UNL     1       2.099   3.679  21.546  0.00  0.00    +0.000 C 
BRANCH  20  22
ATOM     22  C   UNL     1       1.223   3.664  19.139  0.00  0.00    +0.000 C 
BRANCH  22  23
ATOM     23  C   UNL     1       1.862   2.285  19.241  0.00  0.00    +0.000 C 
BRANCH  23  24
ATOM     24  C   UNL     1       3.074   2.117  18.325  0.00  0.00    +0.000 C 
BRANCH  24  25
ATOM     25  C   UNL     1       3.772   3.466  18.050  0.00  0.00    +0.000 C 
ATOM     26  C   UNL     1       4.203   3.590  16.580  0.00  0.00    +0.000 C 
BRANCH  25  27
ATOM     27  C   UNL     1       4.967   3.639  19.012  0.00  0.00    +0.000 C 
BRANCH  27  28
ATOM     28  C   UNL     1       5.390   5.104  19.143  0.00  0.00    +0.000 C 
BRANCH  28  29
ATOM     29  C   UNL     1       6.769   5.375  18.546  0.00  0.00    +0.000 C 
BRANCH  29  31
ATOM     30  C   UNL     1       7.734   7.547  17.792  0.00  0.00    +0.000 C 
ATOM     31  C   UNL     1       6.764   6.626  17.688  0.00  0.00    +0.000 C 
ATOM     32  C   UNL     1       5.634   6.782  16.705  0.00  0.00    +0.000 C 
ENDBRANCH  29  31
ENDBRANCH  28  29
ENDBRANCH  27  28
ENDBRANCH  25  27
ENDBRANCH  24  25
ENDBRANCH  23  24
ENDBRANCH  22  23
ENDBRANCH  20  22
ENDBRANCH  19  20
ENDBRANCH  18  19
ENDBRANCH   1  18
TORSDOF 13
ENDMDL
MODEL 6
REMARK VINA RESULT:      -7.0      1.217      2.441
REMARK  Name = 
REMARK  20 active torsions:
REMARK  status: ('A' for Active; 'I' for Inactive)
REMARK    1  A    between atoms: C_2  and  C_3
REMARK    2  A    between atoms: C_2  and  C_4
REMARK    3  A    between atoms: C_4  and  C_5
REMARK    4  A    between atoms: C_5  and  C_6
REMARK    5  A    between atoms: C_6  and  C_7
REMARK    6  A    between atoms: C_7  and  C_8
REMARK    7  A    between atoms: C_7  and  C_9
REMARK    8  A    between atoms: C_9  and  C_10
REMARK    9  A    between atoms: C_10  and  C_11
REMARK   10  A    between atoms: C_11  and  C_12
REMARK   11  A    between atoms: C_12  and  C_13
REMARK   12  A    between atoms: C_12  and  C_14
REMARK   13  A    between atoms: C_14  and  C_15
REMARK   14  A    between atoms: C_15  and  C_16
REMARK   15  A    between atoms: C_16  and  C_17
REMARK   16  A    between atoms: C_17  and  C_18
REMARK   17  A    between atoms: C_22  and  C_23
REMARK   18  A    between atoms: C_24  and  O_25
REMARK   19  A    between atoms: C_26  and  C_27
REMARK   20  A    between atoms: C_28  and  C_29
REMARK                            x       y       z     vdW  Elec       q    Type
REMARK                         _______ _______ _______ _____ _____    ______ ____
ROOT
ATOM      1  C   UNL     1       2.133   8.561  17.744  0.00  0.00    +0.000 C 
ENDROOT
BRANCH   1   2
ATOM      2  C   UNL     1       1.290   9.711  18.340  0.00  0.00    +0.000 C 
ATOM      3  C   UNL     1       1.997  11.027  17.944  0.00  0.00    +0.000 C 
ATOM      4  C   UNL     1       1.161   9.545  19.856  0.00  0.00    +0.000 C 
ATOM      5  C   UNL     1       0.340  10.675  20.443  0.00  0.00    +0.000 C 
ATOM      6  C   UNL     1      -0.879  10.975  19.606  0.00  0.00    +0.000 A 
ATOM      7  C   UNL     1      -1.896  11.825  20.093  0.00  0.00    +0.000 A 
ATOM      8  C   UNL     1      -1.780  12.494  21.438  0.00  0.00    +0.000 C 
ATOM      9  C   UNL     1      -3.029  12.046  19.286  0.00  0.00    +0.000 A 
ATOM     10  C   UNL     1      -3.175  11.461  18.014  0.00  0.00    +0.000 A 
ATOM     11  C   UNL     1      -4.409  11.723  17.191  0.00  0.00    +0.000 C 
ATOM     12  C   UNL     1      -2.142  10.636  17.524  0.00  0.00    +0.000 A 
ATOM     13  C   UNL     1      -2.219   9.965  16.172  0.00  0.00    +0.000 C 
ATOM     14  C   UNL     1      -0.994  10.427  18.313  0.00  0.00    +0.000 A 
ATOM     15  O   UNL     1      -0.008   9.658  17.733  0.00  0.00    +0.000 OA
BRANCH   9  16
ATOM     16  O   UNL     1      -4.055  12.854  19.716  0.00  0.00    +0.000 OA
ATOM     17  H   UNL     1      -4.839  12.722  19.165  0.00  0.00    +0.000 HD
ENDBRANCH   9  16
ENDBRANCH   1   2
BRANCH   1  18
ATOM     18  C   UNL     1       2.377   7.365  18.672  0.00  0.00    +0.000 C 
BRANCH  18  19
ATOM     19  C   UNL     1       2.306   6.025  17.926  0.00  0.00    +0.000 C 
BRANCH  19  20
ATOM     20  C   UNL     1       3.255   4.934  18.465  0.00  0.00    +0.000 C 
ATOM     21  C   UNL     1       2.432   3.735  18.953  0.00  0.00    +0.000 C 
BRANCH  20  22
ATOM     22  C   UNL     1       4.196   5.492  19.557  0.00  0.00    +0.000 C 
BRANCH  22  23
ATOM     23  C   UNL     1       5.546   4.786  19.558  0.00  0.00    +0.000 C 
BRANCH  23  24
ATOM     24  C   UNL     1       6.112   4.574  18.154  0.00  0.00    +0.000 C 
BRANCH  24  25
ATOM     25  C   UNL     1       7.002   5.755  17.714  0.00  0.00    +0.000 C 
ATOM     26  C   UNL     1       7.844   6.294  18.880  0.00  0.00    +0.000 C 
BRANCH  25  27
ATOM     27  C   UNL     1       6.127   6.860  17.083  0.00  0.00    +0.000 C 
BRANCH  27  28
ATOM     28  C   UNL     1       5.398   6.370  15.831  0.00  0.00    +0.000 C 
BRANCH  28  29
ATOM     29  C   UNL     1       6.316   5.614  14.873  0.00  0.00    +0.000 C 
BRANCH  29  31
ATOM     30  C   UNL     1       4.860   3.631  15.280  0.00  0.00    +0.000 C 
ATOM     31  C   UNL     1       5.721   4.276  14.478  0.00  0.00    +0.000 C 
ATOM     32  C   UNL     1       6.124   3.711  13.142  0.00  0.00    +0.000 C 
ENDBRANCH  29  31
ENDBRANCH  28  29
ENDBRANCH  27  28
ENDBRANCH  25  27
ENDBRANCH  24  25
ENDBRANCH  23  24
ENDBRANCH  22  23
ENDBRANCH  20  22
ENDBRANCH  19  20
ENDBRANCH  18  19
ENDBRANCH   1  18
TORSDOF 13
ENDMDL
MODEL 7
REMARK VINA RESULT:      -6.8      2.016      3.041
REMARK  Name = 
REMARK  20 active torsions:
REMARK  status: ('A' for Active; 'I' for Inactive)
REMARK    1  A    between atoms: C_2  and  C_3
REMARK    2  A    between atoms: C_2  and  C_4
REMARK    3  A    between atoms: C_4  and  C_5
REMARK    4  A    between atoms: C_5  and  C_6
REMARK    5  A    between atoms: C_6  and  C_7
REMARK    6  A    between atoms: C_7  and  C_8
REMARK    7  A    between atoms: C_7  and  C_9
REMARK    8  A    between atoms: C_9  and  C_10
REMARK    9  A    between atoms: C_10  and  C_11
REMARK   10  A    between atoms: C_11  and  C_12
REMARK   11  A    between atoms: C_12  and  C_13
REMARK   12  A    between atoms: C_12  and  C_14
REMARK   13  A    between atoms: C_14  and  C_15
REMARK   14  A    between atoms: C_15  and  C_16
REMARK   15  A    between atoms: C_16  and  C_17
REMARK   16  A    between atoms: C_17  and  C_18
REMARK   17  A    between atoms: C_22  and  C_23
REMARK   18  A    between atoms: C_24  and  O_25
REMARK   19  A    between atoms: C_26  and  C_27
REMARK   20  A    between atoms: C_28  and  C_29
REMARK                            x       y       z     vdW  Elec       q    Type
REMARK                         _______ _______ _______ _____ _____    ______ ____
ROOT
ATOM      1  C   UNL     1       2.082   9.748  18.802  0.00  0.00    +0.000 C 
ENDROOT
BRANCH   1   2
ATOM      2  C   UNL     1       0.970  10.779  19.102  0.00  0.00    +0.000 C 
ATOM      3  C   UNL     1       1.463  12.133  18.543  0.00  0.00    +0.000 C 
ATOM      4  C   UNL     1       0.687  10.832  20.605  0.00  0.00    +0.000 C 
ATOM      5  C   UNL     1      -0.398  11.847  20.902  0.00  0.00    +0.000 C 
ATOM      6  C   UNL     1      -1.537  11.754  19.918  0.00  0.00    +0.000 A 
ATOM      7  C   UNL     1      -2.748  12.442  20.149  0.00  0.00    +0.000 A 
ATOM      8  C   UNL     1      -2.929  13.325  21.357  0.00  0.00    +0.000 C 
ATOM      9  C   UNL     1      -3.793  12.295  19.216  0.00  0.00    +0.000 A 
ATOM     10  C   UNL     1      -3.666  11.499  18.061  0.00  0.00    +0.000 A 
ATOM     11  C   UNL     1      -4.815  11.368  17.095  0.00  0.00    +0.000 C 
ATOM     12  C   UNL     1      -2.444  10.838  17.823  0.00  0.00    +0.000 A 
ATOM     13  C   UNL     1      -2.224   9.960  16.613  0.00  0.00    +0.000 C 
ATOM     14  C   UNL     1      -1.385  10.997  18.739  0.00  0.00    +0.000 A 
ATOM     15  O   UNL     1      -0.208  10.365  18.399  0.00  0.00    +0.000 OA
BRANCH   9  16
ATOM     16  O   UNL     1      -4.997  12.932  19.398  0.00  0.00    +0.000 OA
ATOM     17  H   UNL     1      -4.894  13.885  19.272  0.00  0.00    +0.000 HD
ENDBRANCH   9  16
ENDBRANCH   1   2
BRANCH   1  18
ATOM     18  C   UNL     1       1.752   8.292  19.154  0.00  0.00    +0.000 C 
BRANCH  18  19
ATOM     19  C   UNL     1       2.092   7.325  18.010  0.00  0.00    +0.000 C 
BRANCH  19  20
ATOM     20  C   UNL     1       2.367   5.873  18.453  0.00  0.00    +0.000 C 
ATOM     21  C   UNL     1       2.807   5.861  19.923  0.00  0.00    +0.000 C 
BRANCH  20  22
ATOM     22  C   UNL     1       3.388   5.181  17.523  0.00  0.00    +0.000 C 
BRANCH  22  23
ATOM     23  C   UNL     1       4.303   6.187  16.837  0.00  0.00    +0.000 C 
BRANCH  23  24
ATOM     24  C   UNL     1       5.772   6.024  17.228  0.00  0.00    +0.000 C 
BRANCH  24  25
ATOM     25  C   UNL     1       6.401   4.774  16.576  0.00  0.00    +0.000 C 
ATOM     26  C   UNL     1       7.744   4.412  17.228  0.00  0.00    +0.000 C 
BRANCH  25  27
ATOM     27  C   UNL     1       6.546   4.998  15.055  0.00  0.00    +0.000 C 
BRANCH  27  28
ATOM     28  C   UNL     1       6.184   3.746  14.254  0.00  0.00    +0.000 C 
BRANCH  28  29
ATOM     29  C   UNL     1       6.470   3.899  12.762  0.00  0.00    +0.000 C 
BRANCH  29  31
ATOM     30  C   UNL     1       6.058   1.741  11.583  0.00  0.00    +0.000 C 
ATOM     31  C   UNL     1       5.615   2.957  11.936  0.00  0.00    +0.000 C 
ATOM     32  C   UNL     1       4.243   3.437  11.544  0.00  0.00    +0.000 C 
ENDBRANCH  29  31
ENDBRANCH  28  29
ENDBRANCH  27  28
ENDBRANCH  25  27
ENDBRANCH  24  25
ENDBRANCH  23  24
ENDBRANCH  22  23
ENDBRANCH  20  22
ENDBRANCH  19  20
ENDBRANCH  18  19
ENDBRANCH   1  18
TORSDOF 13
ENDMDL
MODEL 8
REMARK VINA RESULT:      -6.7      2.032      4.127
REMARK  Name = 
REMARK  20 active torsions:
REMARK  status: ('A' for Active; 'I' for Inactive)
REMARK    1  A    between atoms: C_2  and  C_3
REMARK    2  A    between atoms: C_2  and  C_4
REMARK    3  A    between atoms: C_4  and  C_5
REMARK    4  A    between atoms: C_5  and  C_6
REMARK    5  A    between atoms: C_6  and  C_7
REMARK    6  A    between atoms: C_7  and  C_8
REMARK    7  A    between atoms: C_7  and  C_9
REMARK    8  A    between atoms: C_9  and  C_10
REMARK    9  A    between atoms: C_10  and  C_11
REMARK   10  A    between atoms: C_11  and  C_12
REMARK   11  A    between atoms: C_12  and  C_13
REMARK   12  A    between atoms: C_12  and  C_14
REMARK   13  A    between atoms: C_14  and  C_15
REMARK   14  A    between atoms: C_15  and  C_16
REMARK   15  A    between atoms: C_16  and  C_17
REMARK   16  A    between atoms: C_17  and  C_18
REMARK   17  A    between atoms: C_22  and  C_23
REMARK   18  A    between atoms: C_24  and  O_25
REMARK   19  A    between atoms: C_26  and  C_27
REMARK   20  A    between atoms: C_28  and  C_29
REMARK                            x       y       z     vdW  Elec       q    Type
REMARK                         _______ _______ _______ _____ _____    ______ ____
ROOT
ATOM      1  C   UNL     1       1.648   8.546  19.332  0.00  0.00    +0.000 C 
ENDROOT
BRANCH   1   2
ATOM      2  C   UNL     1       0.882   9.805  19.794  0.00  0.00    +0.000 C 
ATOM      3  C   UNL     1       1.141   9.947  21.311  0.00  0.00    +0.000 C 
ATOM      4  C   UNL     1      -0.606   9.673  19.461  0.00  0.00    +0.000 C 
ATOM      5  C   UNL     1      -1.362  10.904  19.919  0.00  0.00    +0.000 C 
ATOM      6  C   UNL     1      -0.619  12.174  19.584  0.00  0.00    +0.000 A 
ATOM      7  C   UNL     1      -1.247  13.432  19.710  0.00  0.00    +0.000 A 
ATOM      8  C   UNL     1      -2.659  13.553  20.224  0.00  0.00    +0.000 C 
ATOM      9  C   UNL     1      -0.521  14.584  19.353  0.00  0.00    +0.000 A 
ATOM     10  C   UNL     1       0.807  14.524  18.888  0.00  0.00    +0.000 A 
ATOM     11  C   UNL     1       1.540  15.785  18.511  0.00  0.00    +0.000 C 
ATOM     12  C   UNL     1       1.437  13.267  18.792  0.00  0.00    +0.000 A 
ATOM     13  C   UNL     1       2.856  13.112  18.298  0.00  0.00    +0.000 C 
ATOM     14  C   UNL     1       0.727  12.110  19.169  0.00  0.00    +0.000 A 
ATOM     15  O   UNL     1       1.436  10.931  19.101  0.00  0.00    +0.000 OA
BRANCH   9  16
ATOM     16  O   UNL     1      -1.088  15.832  19.443  0.00  0.00    +0.000 OA
ATOM     17  H   UNL     1      -0.408  16.498  19.615  0.00  0.00    +0.000 HD
ENDBRANCH   9  16
ENDBRANCH   1   2
BRANCH   1  18
ATOM     18  C   UNL     1       2.417   8.680  18.012  0.00  0.00    +0.000 C 
BRANCH  18  19
ATOM     19  C   UNL     1       2.838   7.319  17.441  0.00  0.00    +0.000 C 
BRANCH  19  20
ATOM     20  C   UNL     1       4.352   7.031  17.508  0.00  0.00    +0.000 C 
ATOM     21  C   UNL     1       4.909   6.886  16.086  0.00  0.00    +0.000 C 
BRANCH  20  22
ATOM     22  C   UNL     1       4.656   5.801  18.393  0.00  0.00    +0.000 C 
BRANCH  22  23
ATOM     23  C   UNL     1       5.499   4.767  17.658  0.00  0.00    +0.000 C 
BRANCH  23  24
ATOM     24  C   UNL     1       4.659   3.707  16.945  0.00  0.00    +0.000 C 
BRANCH  24  25
ATOM     25  C   UNL     1       3.580   3.114  17.875  0.00  0.00    +0.000 C 
ATOM     26  C   UNL     1       3.862   1.639  18.201  0.00  0.00    +0.000 C 
BRANCH  25  27
ATOM     27  C   UNL     1       2.185   3.302  17.240  0.00  0.00    +0.000 C 
BRANCH  27  28
ATOM     28  C   UNL     1       1.250   4.112  18.140  0.00  0.00    +0.000 C 
BRANCH  28  29
ATOM     29  C   UNL     1       0.838   3.351  19.398  0.00  0.00    +0.000 C 
BRANCH  29  31
ATOM     30  C   UNL     1       1.752   5.241  20.742  0.00  0.00    +0.000 C 
ATOM     31  C   UNL     1       1.499   3.928  20.635  0.00  0.00    +0.000 C 
ATOM     32  C   UNL     1       1.844   2.968  21.743  0.00  0.00    +0.000 C 
ENDBRANCH  29  31
ENDBRANCH  28  29
ENDBRANCH  27  28
ENDBRANCH  25  27
ENDBRANCH  24  25
ENDBRANCH  23  24
ENDBRANCH  22  23
ENDBRANCH  20  22
ENDBRANCH  19  20
ENDBRANCH  18  19
ENDBRANCH   1  18
TORSDOF 13
ENDMDL
MODEL 9
REMARK VINA RESULT:      -6.7      1.026      3.431
REMARK  Name = 
REMARK  20 active torsions:
REMARK  status: ('A' for Active; 'I' for Inactive)
REMARK    1  A    between atoms: C_2  and  C_3
REMARK    2  A    between atoms: C_2  and  C_4
REMARK    3  A    between atoms: C_4  and  C_5
REMARK    4  A    between atoms: C_5  and  C_6
REMARK    5  A    between atoms: C_6  and  C_7
REMARK    6  A    between atoms: C_7  and  C_8
REMARK    7  A    between atoms: C_7  and  C_9
REMARK    8  A    between atoms: C_9  and  C_10
REMARK    9  A    between atoms: C_10  and  C_11
REMARK   10  A    between atoms: C_11  and  C_12
REMARK   11  A    between atoms: C_12  and  C_13
REMARK   12  A    between atoms: C_12  and  C_14
REMARK   13  A    between atoms: C_14  and  C_15
REMARK   14  A    between atoms: C_15  and  C_16
REMARK   15  A    between atoms: C_16  and  C_17
REMARK   16  A    between atoms: C_17  and  C_18
REMARK   17  A    between atoms: C_22  and  C_23
REMARK   18  A    between atoms: C_24  and  O_25
REMARK   19  A    between atoms: C_26  and  C_27
REMARK   20  A    between atoms: C_28  and  C_29
REMARK                            x       y       z     vdW  Elec       q    Type
REMARK                         _______ _______ _______ _____ _____    ______ ____
ROOT
ATOM      1  C   UNL     1       2.032   7.746  17.906  0.00  0.00    +0.000 C 
ENDROOT
BRANCH   1   2
ATOM      2  C   UNL     1       1.390   9.052  18.427  0.00  0.00    +0.000 C 
ATOM      3  C   UNL     1       2.235  10.215  17.859  0.00  0.00    +0.000 C 
ATOM      4  C   UNL     1       1.346   9.048  19.957  0.00  0.00    +0.000 C 
ATOM      5  C   UNL     1       0.723  10.330  20.470  0.00  0.00    +0.000 C 
ATOM      6  C   UNL     1      -0.501  10.715  19.676  0.00  0.00    +0.000 A 
ATOM      7  C   UNL     1      -1.361  11.739  20.129  0.00  0.00    +0.000 A 
ATOM      8  C   UNL     1      -1.066  12.509  21.391  0.00  0.00    +0.000 C 
ATOM      9  C   UNL     1      -2.509  12.037  19.369  0.00  0.00    +0.000 A 
ATOM     10  C   UNL     1      -2.817  11.360  18.173  0.00  0.00    +0.000 A 
ATOM     11  C   UNL     1      -4.061  11.711  17.398  0.00  0.00    +0.000 C 
ATOM     12  C   UNL     1      -1.938  10.359  17.713  0.00  0.00    +0.000 A 
ATOM     13  C   UNL     1      -2.196   9.580  16.444  0.00  0.00    +0.000 C 
ATOM     14  C   UNL     1      -0.776  10.069  18.454  0.00  0.00    +0.000 A 
ATOM     15  O   UNL     1       0.058   9.121  17.903  0.00  0.00    +0.000 OA
BRANCH   9  16
ATOM     16  O   UNL     1      -3.387  13.014  19.770  0.00  0.00    +0.000 OA
ATOM     17  H   UNL     1      -3.649  13.560  19.016  0.00  0.00    +0.000 HD
ENDBRANCH   9  16
ENDBRANCH   1   2
BRANCH   1  18
ATOM     18  C   UNL     1       3.401   7.899  17.231  0.00  0.00    +0.000 C 
BRANCH  18  19
ATOM     19  C   UNL     1       4.549   7.404  18.121  0.00  0.00    +0.000 C 
BRANCH  19  20
ATOM     20  C   UNL     1       5.619   6.567  17.388  0.00  0.00    +0.000 C 
ATOM     21  C   UNL     1       6.962   7.308  17.428  0.00  0.00    +0.000 C 
BRANCH  20  22
ATOM     22  C   UNL     1       5.177   6.217  15.950  0.00  0.00    +0.000 C 
BRANCH  22  23
ATOM     23  C   UNL     1       4.854   4.736  15.801  0.00  0.00    +0.000 C 
BRANCH  23  24
ATOM     24  C   UNL     1       5.179   3.922  17.053  0.00  0.00    +0.000 C 
BRANCH  24  25
ATOM     25  C   UNL     1       3.975   3.073  17.510  0.00  0.00    +0.000 C 
ATOM     26  C   UNL     1       2.655   3.608  16.933  0.00  0.00    +0.000 C 
BRANCH  25  27
ATOM     27  C   UNL     1       3.938   3.007  19.052  0.00  0.00    +0.000 C 
BRANCH  27  28
ATOM     28  C   UNL     1       3.883   4.399  19.684  0.00  0.00    +0.000 C 
BRANCH  28  29
ATOM     29  C   UNL     1       2.474   4.789  20.128  0.00  0.00    +0.000 C 
BRANCH  29  31
ATOM     30  C   UNL     1       2.076   3.092  21.910  0.00  0.00    +0.000 C 
ATOM     31  C   UNL     1       1.733   3.605  20.719  0.00  0.00    +0.000 C 
ATOM     32  C   UNL     1       0.586   3.043  19.922  0.00  0.00    +0.000 C 
ENDBRANCH  29  31
ENDBRANCH  28  29
ENDBRANCH  27  28
ENDBRANCH  25  27
ENDBRANCH  24  25
ENDBRANCH  23  24
ENDBRANCH  22  23
ENDBRANCH  20  22
ENDBRANCH  19  20
ENDBRANCH  18  19
ENDBRANCH   1  18
TORSDOF 13
ENDMDL
