MODEL 1
REMARK VINA RESULT:      -6.1      0.000      0.000
REMARK  Name = 
REMARK  5 active torsions:
REMARK  status: ('A' for Active; 'I' for Inactive)
REMARK    1  A    between atoms: C_2  and  C_3
REMARK    2  A    between atoms: C_3  and  N_4
REMARK    3  A    between atoms: N_9  and  C_10
REMARK    4  A    between atoms: C_10  and  C_11
REMARK    5  A    between atoms: C_11  and  C_12
REMARK                            x       y       z     vdW  Elec       q    Type
REMARK                         _______ _______ _______ _____ _____    ______ ____
ROOT
ATOM      1  O   UNL     1       7.185   5.437  20.106  0.00  0.00    +0.000 OA
ATOM      2  C   UNL     1       6.722   5.491  18.967  0.00  0.00    +0.000 C 
ATOM      3  N   UNL     1       5.539   4.875  18.610  0.00  0.00    +0.000 N 
ATOM      4  H   UNL     1       5.124   5.123  17.718  0.00  0.00    +0.000 HD
ENDROOT
BRANCH   2   5
ATOM      5  C   UNL     1       7.430   6.213  17.844  0.00  0.00    +0.000 C 
BRANCH   5   6
ATOM      6  N   UNL     1       7.023   5.696  16.556  0.00  0.00    +0.000 N 
ATOM      7  N   UNL     1       5.938   6.198  15.914  0.00  0.00    +0.000 NA
ATOM      8  C   UNL     1       5.874   5.393  14.845  0.00  0.00    +0.000 A 
ATOM      9  C   UNL     1       6.855   4.400  14.935  0.00  0.00    +0.000 A 
ATOM     10  N   UNL     1       7.566   4.565  16.054  0.00  0.00    +0.000 NA
ENDBRANCH   5   6
ENDBRANCH   2   5
BRANCH   3  11
ATOM     11  C   UNL     1       4.699   4.199  19.578  0.00  0.00    +0.000 C 
BRANCH  11  12
ATOM     12  C   UNL     1       4.481   2.716  19.259  0.00  0.00    +0.000 C 
BRANCH  12  13
ATOM     13  C   UNL     1       3.050   2.406  18.814  0.00  0.00    +0.000 C 
ATOM     14  C   UNL     1       2.000   2.593  19.888  0.00  0.00    +0.000 C 
ATOM     15  C   UNL     1       0.732   2.664  19.070  0.00  0.00    +0.000 C 
ATOM     16  O   UNL     1       1.086   3.264  17.814  0.00  0.00    +0.000 OA
ATOM     17  C   UNL     1       2.518   3.321  17.723  0.00  0.00    +0.000 C 
ENDBRANCH  12  13
ENDBRANCH  11  12
ENDBRANCH   3  11
TORSDOF 5
ENDMDL
MODEL 2
REMARK VINA RESULT:      -6.1      0.940      1.091
REMARK  Name = 
REMARK  5 active torsions:
REMARK  status: ('A' for Active; 'I' for Inactive)
REMARK    1  A    between atoms: C_2  and  C_3
REMARK    2  A    between atoms: C_3  and  N_4
REMARK    3  A    between atoms: N_9  and  C_10
REMARK    4  A    between atoms: C_10  and  C_11
REMARK    5  A    between atoms: C_11  and  C_12
REMARK                            x       y       z     vdW  Elec       q    Type
REMARK                         _______ _______ _______ _____ _____    ______ ____
ROOT
ATOM      1  O   UNL     1       7.288   5.462  20.025  0.00  0.00    +0.000 OA
ATOM      2  C   UNL     1       6.764   5.577  18.917  0.00  0.00    +0.000 C 
ATOM      3  N   UNL     1       5.517   5.064  18.622  0.00  0.00    +0.000 N 
ATOM      4  H   UNL     1       5.071   5.363  17.761  0.00  0.00    +0.000 HD
ENDROOT
BRANCH   2   5
ATOM      5  C   UNL     1       7.459   6.265  17.766  0.00  0.00    +0.000 C 
BRANCH   5   6
ATOM      6  N   UNL     1       6.984   5.762  16.495  0.00  0.00    +0.000 N 
ATOM      7  N   UNL     1       5.853   6.254  15.929  0.00  0.00    +0.000 NA
ATOM      8  C   UNL     1       5.738   5.466  14.853  0.00  0.00    +0.000 A 
ATOM      9  C   UNL     1       6.740   4.489  14.865  0.00  0.00    +0.000 A 
ATOM     10  N   UNL     1       7.515   4.649  15.942  0.00  0.00    +0.000 NA
ENDBRANCH   5   6
ENDBRANCH   2   5
BRANCH   3  11
ATOM     11  C   UNL     1       4.684   4.435  19.628  0.00  0.00    +0.000 C 
BRANCH  11  12
ATOM     12  C   UNL     1       4.275   3.003  19.266  0.00  0.00    +0.000 C 
BRANCH  12  13
ATOM     13  C   UNL     1       2.887   2.628  19.793  0.00  0.00    +0.000 C 
ATOM     14  C   UNL     1       2.727   2.750  21.292  0.00  0.00    +0.000 C 
ATOM     15  C   UNL     1       1.224   2.769  21.441  0.00  0.00    +0.000 C 
ATOM     16  O   UNL     1       0.702   3.401  20.263  0.00  0.00    +0.000 OA
ATOM     17  C   UNL     1       1.765   3.530  19.305  0.00  0.00    +0.000 C 
ENDBRANCH  12  13
ENDBRANCH  11  12
ENDBRANCH   3  11
TORSDOF 5
ENDMDL
MODEL 3
REMARK VINA RESULT:      -6.0      2.175      3.118
REMARK  Name = 
REMARK  5 active torsions:
REMARK  status: ('A' for Active; 'I' for Inactive)
REMARK    1  A    between atoms: C_2  and  C_3
REMARK    2  A    between atoms: C_3  and  N_4
REMARK    3  A    between atoms: N_9  and  C_10
REMARK    4  A    between atoms: C_10  and  C_11
REMARK    5  A    between atoms: C_11  and  C_12
REMARK                            x       y       z     vdW  Elec       q    Type
REMARK                         _______ _______ _______ _____ _____    ______ ____
ROOT
ATOM      1  O   UNL     1       4.862   4.257  15.112  0.00  0.00    +0.000 OA
ATOM      2  C   UNL     1       5.584   4.055  16.088  0.00  0.00    +0.000 C 
ATOM      3  N   UNL     1       5.099   3.597  17.297  0.00  0.00    +0.000 N 
ATOM      4  H   UNL     1       5.768   3.270  17.985  0.00  0.00    +0.000 HD
ENDROOT
BRANCH   2   5
ATOM      5  C   UNL     1       7.070   4.325  16.059  0.00  0.00    +0.000 C 
BRANCH   5   6
ATOM      6  N   UNL     1       7.449   5.263  17.093  0.00  0.00    +0.000 N 
ATOM      7  N   UNL     1       7.593   4.861  18.381  0.00  0.00    +0.000 NA
ATOM      8  C   UNL     1       7.845   6.026  18.990  0.00  0.00    +0.000 A 
ATOM      9  C   UNL     1       7.756   7.076  18.070  0.00  0.00    +0.000 A 
ATOM     10  N   UNL     1       7.457   6.594  16.860  0.00  0.00    +0.000 NA
ENDBRANCH   5   6
ENDBRANCH   2   5
BRANCH   3  11
ATOM     11  C   UNL     1       3.710   3.222  17.478  0.00  0.00    +0.000 C 
BRANCH  11  12
ATOM     12  C   UNL     1       2.864   4.327  18.121  0.00  0.00    +0.000 C 
BRANCH  12  13
ATOM     13  C   UNL     1       2.581   4.075  19.603  0.00  0.00    +0.000 C 
ATOM     14  C   UNL     1       1.172   3.614  19.907  0.00  0.00    +0.000 C 
ATOM     15  C   UNL     1       1.330   3.035  21.293  0.00  0.00    +0.000 C 
ATOM     16  O   UNL     1       2.660   2.501  21.367  0.00  0.00    +0.000 OA
ATOM     17  C   UNL     1       3.396   2.947  20.216  0.00  0.00    +0.000 C 
ENDBRANCH  12  13
ENDBRANCH  11  12
ENDBRANCH   3  11
TORSDOF 5
ENDMDL
MODEL 4
REMARK VINA RESULT:      -6.0      1.818      2.251
REMARK  Name = 
REMARK  5 active torsions:
REMARK  status: ('A' for Active; 'I' for Inactive)
REMARK    1  A    between atoms: C_2  and  C_3
REMARK    2  A    between atoms: C_3  and  N_4
REMARK    3  A    between atoms: N_9  and  C_10
REMARK    4  A    between atoms: C_10  and  C_11
REMARK    5  A    between atoms: C_11  and  C_12
REMARK                            x       y       z     vdW  Elec       q    Type
REMARK                         _______ _______ _______ _____ _____    ______ ____
ROOT
ATOM      1  O   UNL     1       5.143   4.939  19.687  0.00  0.00    +0.000 OA
ATOM      2  C   UNL     1       5.340   5.051  18.477  0.00  0.00    +0.000 C 
ATOM      3  N   UNL     1       4.355   5.437  17.590  0.00  0.00    +0.000 N 
ATOM      4  H   UNL     1       4.635   5.695  16.651  0.00  0.00    +0.000 HD
ENDROOT
BRANCH   2   5
ATOM      5  C   UNL     1       6.678   4.740  17.848  0.00  0.00    +0.000 C 
BRANCH   5   6
ATOM      6  N   UNL     1       6.569   4.657  16.408  0.00  0.00    +0.000 N 
ATOM      7  N   UNL     1       5.951   3.605  15.815  0.00  0.00    +0.000 NA
ATOM      8  C   UNL     1       6.159   3.878  14.520  0.00  0.00    +0.000 A 
ATOM      9  C   UNL     1       6.959   5.019  14.395  0.00  0.00    +0.000 A 
ATOM     10  N   UNL     1       7.262   5.496  15.606  0.00  0.00    +0.000 NA
ENDBRANCH   5   6
ENDBRANCH   2   5
BRANCH   3  11
ATOM     11  C   UNL     1       3.035   5.839  18.033  0.00  0.00    +0.000 C 
BRANCH  11  12
ATOM     12  C   UNL     1       1.977   4.745  17.853  0.00  0.00    +0.000 C 
BRANCH  12  13
ATOM     13  C   UNL     1       1.565   4.091  19.174  0.00  0.00    +0.000 C 
ATOM     14  C   UNL     1       2.320   2.824  19.514  0.00  0.00    +0.000 C 
ATOM     15  C   UNL     1       2.043   2.688  20.993  0.00  0.00    +0.000 C 
ATOM     16  O   UNL     1       1.916   4.021  21.512  0.00  0.00    +0.000 OA
ATOM     17  C   UNL     1       1.842   4.936  20.407  0.00  0.00    +0.000 C 
ENDBRANCH  12  13
ENDBRANCH  11  12
ENDBRANCH   3  11
TORSDOF 5
ENDMDL
MODEL 5
REMARK VINA RESULT:      -6.0      1.492      1.965
REMARK  Name = 
REMARK  5 active torsions:
REMARK  status: ('A' for Active; 'I' for Inactive)
REMARK    1  A    between atoms: C_2  and  C_3
REMARK    2  A    between atoms: C_3  and  N_4
REMARK    3  A    between atoms: N_9  and  C_10
REMARK    4  A    between atoms: C_10  and  C_11
REMARK    5  A    between atoms: C_11  and  C_12
REMARK                            x       y       z     vdW  Elec       q    Type
REMARK                         _______ _______ _______ _____ _____    ______ ____
ROOT
ATOM      1  O   UNL     1       5.223   3.438  19.897  0.00  0.00    +0.000 OA
ATOM      2  C   UNL     1       5.249   3.852  18.739  0.00  0.00    +0.000 C 
ATOM      3  N   UNL     1       4.555   3.245  17.711  0.00  0.00    +0.000 N 
ATOM      4  H   UNL     1       4.464   3.748  16.835  0.00  0.00    +0.000 HD
ENDROOT
BRANCH   2   5
ATOM      5  C   UNL     1       6.073   5.050  18.330  0.00  0.00    +0.000 C 
BRANCH   5   6
ATOM      6  N   UNL     1       6.239   5.103  16.894  0.00  0.00    +0.000 N 
ATOM      7  N   UNL     1       5.243   5.555  16.093  0.00  0.00    +0.000 NA
ATOM      8  C   UNL     1       5.770   5.346  14.879  0.00  0.00    +0.000 A 
ATOM      9  C   UNL     1       7.007   4.703  15.000  0.00  0.00    +0.000 A 
ATOM     10  N   UNL     1       7.291   4.505  16.291  0.00  0.00    +0.000 NA
ENDBRANCH   5   6
ENDBRANCH   2   5
BRANCH   3  11
ATOM     11  C   UNL     1       3.660   2.127  17.940  0.00  0.00    +0.000 C 
BRANCH  11  12
ATOM     12  C   UNL     1       2.189   2.467  17.681  0.00  0.00    +0.000 C 
BRANCH  12  13
ATOM     13  C   UNL     1       1.433   2.857  18.954  0.00  0.00    +0.000 C 
ATOM     14  C   UNL     1       1.942   2.196  20.217  0.00  0.00    +0.000 C 
ATOM     15  C   UNL     1       1.347   3.080  21.287  0.00  0.00    +0.000 C 
ATOM     16  O   UNL     1       1.276   4.404  20.736  0.00  0.00    +0.000 OA
ATOM     17  C   UNL     1       1.545   4.326  19.327  0.00  0.00    +0.000 C 
ENDBRANCH  12  13
ENDBRANCH  11  12
ENDBRANCH   3  11
TORSDOF 5
ENDMDL
MODEL 6
REMARK VINA RESULT:      -6.0      1.216      1.614
REMARK  Name = 
REMARK  5 active torsions:
REMARK  status: ('A' for Active; 'I' for Inactive)
REMARK    1  A    between atoms: C_2  and  C_3
REMARK    2  A    between atoms: C_3  and  N_4
REMARK    3  A    between atoms: N_9  and  C_10
REMARK    4  A    between atoms: C_10  and  C_11
REMARK    5  A    between atoms: C_11  and  C_12
REMARK                            x       y       z     vdW  Elec       q    Type
REMARK                         _______ _______ _______ _____ _____    ______ ____
ROOT
ATOM      1  O   UNL     1       6.874   5.152  19.807  0.00  0.00    +0.000 OA
ATOM      2  C   UNL     1       6.373   5.669  18.809  0.00  0.00    +0.000 C 
ATOM      3  N   UNL     1       5.009   5.735  18.605  0.00  0.00    +0.000 N 
ATOM      4  H   UNL     1       4.666   6.341  17.868  0.00  0.00    +0.000 HD
ENDROOT
BRANCH   2   5
ATOM      5  C   UNL     1       7.212   6.251  17.697  0.00  0.00    +0.000 C 
BRANCH   5   6
ATOM      6  N   UNL     1       6.844   5.687  16.417  0.00  0.00    +0.000 N 
ATOM      7  N   UNL     1       5.769   6.153  15.733  0.00  0.00    +0.000 NA
ATOM      8  C   UNL     1       5.741   5.313  14.690  0.00  0.00    +0.000 A 
ATOM      9  C   UNL     1       6.732   4.336  14.836  0.00  0.00    +0.000 A 
ATOM     10  N   UNL     1       7.413   4.547  15.966  0.00  0.00    +0.000 NA
ENDBRANCH   5   6
ENDBRANCH   2   5
BRANCH   3  11
ATOM     11  C   UNL     1       4.057   5.286  19.603  0.00  0.00    +0.000 C 
BRANCH  11  12
ATOM     12  C   UNL     1       2.615   5.700  19.293  0.00  0.00    +0.000 C 
BRANCH  12  13
ATOM     13  C   UNL     1       1.621   4.544  19.428  0.00  0.00    +0.000 C 
ATOM     14  C   UNL     1       1.542   3.635  18.221  0.00  0.00    +0.000 C 
ATOM     15  C   UNL     1       0.876   2.409  18.802  0.00  0.00    +0.000 C 
ATOM     16  O   UNL     1       1.298   2.322  20.172  0.00  0.00    +0.000 OA
ATOM     17  C   UNL     1       1.961   3.547  20.524  0.00  0.00    +0.000 C 
ENDBRANCH  12  13
ENDBRANCH  11  12
ENDBRANCH   3  11
TORSDOF 5
ENDMDL
MODEL 7
REMARK VINA RESULT:      -5.9      2.985      6.000
REMARK  Name = 
REMARK  5 active torsions:
REMARK  status: ('A' for Active; 'I' for Inactive)
REMARK    1  A    between atoms: C_2  and  C_3
REMARK    2  A    between atoms: C_3  and  N_4
REMARK    3  A    between atoms: N_9  and  C_10
REMARK    4  A    between atoms: C_10  and  C_11
REMARK    5  A    between atoms: C_11  and  C_12
REMARK                            x       y       z     vdW  Elec       q    Type
REMARK                         _______ _______ _______ _____ _____    ______ ____
ROOT
ATOM      1  O   UNL     1       3.316   6.881  18.153  0.00  0.00    +0.000 OA
ATOM      2  C   UNL     1       3.257   6.027  19.037  0.00  0.00    +0.000 C 
ATOM      3  N   UNL     1       4.133   4.962  19.109  0.00  0.00    +0.000 N 
ATOM      4  H   UNL     1       4.148   4.415  19.963  0.00  0.00    +0.000 HD
ENDROOT
BRANCH   2   5
ATOM      5  C   UNL     1       2.192   6.050  20.108  0.00  0.00    +0.000 C 
BRANCH   5   6
ATOM      6  N   UNL     1       1.784   4.709  20.466  0.00  0.00    +0.000 N 
ATOM      7  N   UNL     1       2.254   4.113  21.591  0.00  0.00    +0.000 NA
ATOM      8  C   UNL     1       1.715   2.892  21.483  0.00  0.00    +0.000 A 
ATOM      9  C   UNL     1       1.027   2.778  20.270  0.00  0.00    +0.000 A 
ATOM     10  N   UNL     1       1.107   3.929  19.594  0.00  0.00    +0.000 NA
ENDBRANCH   5   6
ENDBRANCH   2   5
BRANCH   3  11
ATOM     11  C   UNL     1       5.256   4.825  18.203  0.00  0.00    +0.000 C 
BRANCH  11  12
ATOM     12  C   UNL     1       4.942   3.958  16.978  0.00  0.00    +0.000 C 
BRANCH  12  13
ATOM     13  C   UNL     1       6.050   3.993  15.923  0.00  0.00    +0.000 C 
ATOM     14  C   UNL     1       5.585   4.367  14.532  0.00  0.00    +0.000 C 
ATOM     15  C   UNL     1       6.885   4.752  13.866  0.00  0.00    +0.000 C 
ATOM     16  O   UNL     1       7.723   5.308  14.891  0.00  0.00    +0.000 OA
ATOM     17  C   UNL     1       7.118   5.047  16.167  0.00  0.00    +0.000 C 
ENDBRANCH  12  13
ENDBRANCH  11  12
ENDBRANCH   3  11
TORSDOF 5
ENDMDL
MODEL 8
REMARK VINA RESULT:      -5.9      1.012      1.132
REMARK  Name = 
REMARK  5 active torsions:
REMARK  status: ('A' for Active; 'I' for Inactive)
REMARK    1  A    between atoms: C_2  and  C_3
REMARK    2  A    between atoms: C_3  and  N_4
REMARK    3  A    between atoms: N_9  and  C_10
REMARK    4  A    between atoms: C_10  and  C_11
REMARK    5  A    between atoms: C_11  and  C_12
REMARK                            x       y       z     vdW  Elec       q    Type
REMARK                         _______ _______ _______ _____ _____    ______ ____
ROOT
ATOM      1  O   UNL     1       6.783   5.901  18.998  0.00  0.00    +0.000 OA
ATOM      2  C   UNL     1       6.772   4.864  18.336  0.00  0.00    +0.000 C 
ATOM      3  N   UNL     1       5.863   3.847  18.552  0.00  0.00    +0.000 N 
ATOM      4  H   UNL     1       5.787   3.119  17.851  0.00  0.00    +0.000 HD
ENDROOT
BRANCH   2   5
ATOM      5  C   UNL     1       7.780   4.595  17.243  0.00  0.00    +0.000 C 
BRANCH   5   6
ATOM      6  N   UNL     1       7.150   4.601  15.941  0.00  0.00    +0.000 N 
ATOM      7  N   UNL     1       6.097   3.790  15.672  0.00  0.00    +0.000 NA
ATOM      8  C   UNL     1       5.900   4.042  14.372  0.00  0.00    +0.000 A 
ATOM      9  C   UNL     1       6.887   4.915  13.899  0.00  0.00    +0.000 A 
ATOM     10  N   UNL     1       7.718   5.241  14.894  0.00  0.00    +0.000 NA
ENDBRANCH   5   6
ENDBRANCH   2   5
BRANCH   3  11
ATOM     11  C   UNL     1       4.785   3.969  19.514  0.00  0.00    +0.000 C 
BRANCH  11  12
ATOM     12  C   UNL     1       4.185   2.619  19.924  0.00  0.00    +0.000 C 
BRANCH  12  13
ATOM     13  C   UNL     1       2.870   2.308  19.208  0.00  0.00    +0.000 C 
ATOM     14  C   UNL     1       1.630   2.494  20.055  0.00  0.00    +0.000 C 
ATOM     15  C   UNL     1       0.547   2.564  19.005  0.00  0.00    +0.000 C 
ATOM     16  O   UNL     1       1.138   3.166  17.843  0.00  0.00    +0.000 OA
ATOM     17  C   UNL     1       2.561   3.224  18.034  0.00  0.00    +0.000 C 
ENDBRANCH  12  13
ENDBRANCH  11  12
ENDBRANCH   3  11
TORSDOF 5
ENDMDL
MODEL 9
REMARK VINA RESULT:      -5.8      1.721      2.058
REMARK  Name = 
REMARK  5 active torsions:
REMARK  status: ('A' for Active; 'I' for Inactive)
REMARK    1  A    between atoms: C_2  and  C_3
REMARK    2  A    between atoms: C_3  and  N_4
REMARK    3  A    between atoms: N_9  and  C_10
REMARK    4  A    between atoms: C_10  and  C_11
REMARK    5  A    between atoms: C_11  and  C_12
REMARK                            x       y       z     vdW  Elec       q    Type
REMARK                         _______ _______ _______ _____ _____    ______ ____
ROOT
ATOM      1  O   UNL     1       6.941   5.844  19.333  0.00  0.00    +0.000 OA
ATOM      2  C   UNL     1       6.555   5.216  18.348  0.00  0.00    +0.000 C 
ATOM      3  N   UNL     1       5.220   5.072  18.028  0.00  0.00    +0.000 N 
ATOM      4  H   UNL     1       4.987   4.716  17.108  0.00  0.00    +0.000 HD
ENDROOT
BRANCH   2   5
ATOM      5  C   UNL     1       7.513   4.517  17.413  0.00  0.00    +0.000 C 
BRANCH   5   6
ATOM      6  N   UNL     1       7.012   4.518  16.056  0.00  0.00    +0.000 N 
ATOM      7  N   UNL     1       6.086   3.612  15.654  0.00  0.00    +0.000 NA
ATOM      8  C   UNL     1       5.985   3.904  14.351  0.00  0.00    +0.000 A 
ATOM      9  C   UNL     1       6.907   4.901  14.012  0.00  0.00    +0.000 A 
ATOM     10  N   UNL     1       7.599   5.266  15.096  0.00  0.00    +0.000 NA
ENDBRANCH   5   6
ENDBRANCH   2   5
BRANCH   3  11
ATOM     11  C   UNL     1       4.171   5.735  18.778  0.00  0.00    +0.000 C 
BRANCH  11  12
ATOM     12  C   UNL     1       2.847   4.964  18.778  0.00  0.00    +0.000 C 
BRANCH  12  13
ATOM     13  C   UNL     1       2.528   4.326  20.132  0.00  0.00    +0.000 C 
ATOM     14  C   UNL     1       1.122   3.781  20.257  0.00  0.00    +0.000 C 
ATOM     15  C   UNL     1       1.254   2.859  21.446  0.00  0.00    +0.000 C 
ATOM     16  O   UNL     1       2.594   2.343  21.421  0.00  0.00    +0.000 OA
ATOM     17  C   UNL     1       3.351   3.088  20.453  0.00  0.00    +0.000 C 
ENDBRANCH  12  13
ENDBRANCH  11  12
ENDBRANCH   3  11
TORSDOF 5
ENDMDL
