MODEL 1
REMARK VINA RESULT:      -7.4      0.000      0.000
REMARK  Name = 
REMARK  1 active torsions:
REMARK  status: ('A' for Active; 'I' for Inactive)
REMARK    1  A    between atoms: C_4  and  C_5
REMARK                            x       y       z     vdW  Elec       q    Type
REMARK                         _______ _______ _______ _____ _____    ______ ____
ROOT
ATOM      1  O   UNL     1       2.829   8.025  17.553  0.00  0.00    +0.000 OA
ATOM      2  C   UNL     1       2.381   7.710  18.650  0.00  0.00    +0.000 C 
ATOM      3  N   UNL     1       1.764   8.639  19.452  0.00  0.00    +0.000 N 
ATOM      4  C   UNL     1       1.700   8.442  20.873  0.00  0.00    +0.000 C 
ATOM      5  N   UNL     1       1.215   7.101  21.135  0.00  0.00    +0.000 N 
ATOM      6  C   UNL     1       1.817   6.123  20.409  0.00  0.00    +0.000 A 
ATOM      7  S   UNL     1       1.923   4.494  20.873  0.00  0.00    +0.000 S 
ATOM      8  C   UNL     1       2.795   4.089  19.458  0.00  0.00    +0.000 A 
ATOM      9  C   UNL     1       3.025   5.180  18.649  0.00  0.00    +0.000 A 
ATOM     10  C   UNL     1       2.426   6.363  19.196  0.00  0.00    +0.000 A 
ATOM     11  C   UNL     1       3.782   5.105  17.372  0.00  0.00    +0.000 C 
ATOM     12  C   UNL     1       4.280   3.714  16.980  0.00  0.00    +0.000 C 
ATOM     13  C   UNL     1       3.960   2.502  17.865  0.00  0.00    +0.000 C 
ATOM     14  C   UNL     1       3.215   2.689  19.191  0.00  0.00    +0.000 C 
ATOM     15  H   UNL     1       1.813   9.581  19.099  0.00  0.00    +0.000 HD
ATOM     16  H   UNL     1       1.014   6.904  22.110  0.00  0.00    +0.000 HD
ENDROOT
BRANCH   4  17
ATOM     17  C   UNL     1       0.830   9.488  21.524  0.00  0.00    +0.000 A 
ATOM     18  C   UNL     1       0.752  10.795  21.026  0.00  0.00    +0.000 A 
ATOM     19  C   UNL     1      -0.014  11.724  21.711  0.00  0.00    +0.000 A 
ATOM     20  N   UNL     1      -0.703  11.445  22.837  0.00  0.00    +0.000 NA
ATOM     21  C   UNL     1      -0.627  10.182  23.300  0.00  0.00    +0.000 A 
ATOM     22  C   UNL     1       0.115   9.182  22.689  0.00  0.00    +0.000 A 
ENDBRANCH   4  17
TORSDOF 1
ENDMDL
MODEL 2
REMARK VINA RESULT:      -7.3      0.104      1.056
REMARK  Name = 
REMARK  1 active torsions:
REMARK  status: ('A' for Active; 'I' for Inactive)
REMARK    1  A    between atoms: C_4  and  C_5
REMARK                            x       y       z     vdW  Elec       q    Type
REMARK                         _______ _______ _______ _____ _____    ______ ____
ROOT
ATOM      1  O   UNL     1       2.784   8.009  17.550  0.00  0.00    +0.000 OA
ATOM      2  C   UNL     1       2.354   7.698  18.654  0.00  0.00    +0.000 C 
ATOM      3  N   UNL     1       1.733   8.625  19.456  0.00  0.00    +0.000 N 
ATOM      4  C   UNL     1       1.688   8.441  20.879  0.00  0.00    +0.000 C 
ATOM      5  N   UNL     1       1.226   7.095  21.159  0.00  0.00    +0.000 N 
ATOM      6  C   UNL     1       1.834   6.119  20.435  0.00  0.00    +0.000 A 
ATOM      7  S   UNL     1       1.970   4.497  20.914  0.00  0.00    +0.000 S 
ATOM      8  C   UNL     1       2.831   4.092  19.492  0.00  0.00    +0.000 A 
ATOM      9  C   UNL     1       3.036   5.177  18.670  0.00  0.00    +0.000 A 
ATOM     10  C   UNL     1       2.426   6.357  19.213  0.00  0.00    +0.000 A 
ATOM     11  C   UNL     1       3.778   5.101  17.385  0.00  0.00    +0.000 C 
ATOM     12  C   UNL     1       4.293   3.714  17.001  0.00  0.00    +0.000 C 
ATOM     13  C   UNL     1       4.001   2.506  17.901  0.00  0.00    +0.000 C 
ATOM     14  C   UNL     1       3.270   2.695  19.234  0.00  0.00    +0.000 C 
ATOM     15  H   UNL     1       1.763   9.564  19.093  0.00  0.00    +0.000 HD
ATOM     16  H   UNL     1       1.039   6.905  22.138  0.00  0.00    +0.000 HD
ENDROOT
BRANCH   4  17
ATOM     17  C   UNL     1       0.810   9.480  21.529  0.00  0.00    +0.000 A 
ATOM     18  C   UNL     1       0.051   9.194  22.671  0.00  0.00    +0.000 A 
ATOM     19  C   UNL     1      -0.786  10.175  23.178  0.00  0.00    +0.000 A 
ATOM     20  N   UNL     1      -0.912  11.406  22.639  0.00  0.00    +0.000 NA
ATOM     21  C   UNL     1      -0.169  11.671  21.546  0.00  0.00    +0.000 A 
ATOM     22  C   UNL     1       0.693  10.756  20.962  0.00  0.00    +0.000 A 
ENDBRANCH   4  17
TORSDOF 1
ENDMDL
MODEL 3
REMARK VINA RESULT:      -7.3      2.158      6.808
REMARK  Name = 
REMARK  1 active torsions:
REMARK  status: ('A' for Active; 'I' for Inactive)
REMARK    1  A    between atoms: C_4  and  C_5
REMARK                            x       y       z     vdW  Elec       q    Type
REMARK                         _______ _______ _______ _____ _____    ______ ____
ROOT
ATOM      1  O   UNL     1       1.931   9.372  17.393  0.00  0.00    +0.000 OA
ATOM      2  C   UNL     1       1.931   8.722  18.433  0.00  0.00    +0.000 C 
ATOM      3  N   UNL     1       2.603   7.527  18.518  0.00  0.00    +0.000 N 
ATOM      4  C   UNL     1       2.216   6.544  19.490  0.00  0.00    +0.000 C 
ATOM      5  N   UNL     1       2.104   7.189  20.783  0.00  0.00    +0.000 N 
ATOM      6  C   UNL     1       1.406   8.355  20.783  0.00  0.00    +0.000 A 
ATOM      7  S   UNL     1       0.608   9.010  22.130  0.00  0.00    +0.000 S 
ATOM      8  C   UNL     1       0.055  10.349  21.220  0.00  0.00    +0.000 A 
ATOM      9  C   UNL     1       0.451  10.294  19.902  0.00  0.00    +0.000 A 
ATOM     10  C   UNL     1       1.266   9.138  19.658  0.00  0.00    +0.000 A 
ATOM     11  C   UNL     1       0.083  11.321  18.894  0.00  0.00    +0.000 C 
ATOM     12  C   UNL     1      -0.757  12.488  19.416  0.00  0.00    +0.000 C 
ATOM     13  C   UNL     1      -1.135  12.562  20.902  0.00  0.00    +0.000 C 
ATOM     14  C   UNL     1      -0.750  11.425  21.854  0.00  0.00    +0.000 C 
ATOM     15  H   UNL     1       2.989   7.212  17.642  0.00  0.00    +0.000 HD
ATOM     16  H   UNL     1       1.956   6.555  21.563  0.00  0.00    +0.000 HD
ENDROOT
BRANCH   4  17
ATOM     17  C   UNL     1       3.197   5.399  19.518  0.00  0.00    +0.000 A 
ATOM     18  C   UNL     1       4.508   5.540  19.046  0.00  0.00    +0.000 A 
ATOM     19  C   UNL     1       5.337   4.430  19.039  0.00  0.00    +0.000 A 
ATOM     20  N   UNL     1       4.959   3.208  19.471  0.00  0.00    +0.000 NA
ATOM     21  C   UNL     1       3.698   3.088  19.931  0.00  0.00    +0.000 A 
ATOM     22  C   UNL     1       2.793   4.137  19.974  0.00  0.00    +0.000 A 
ENDBRANCH   4  17
TORSDOF 1
ENDMDL
MODEL 4
REMARK VINA RESULT:      -7.2      4.419      7.986
REMARK  Name = 
REMARK  1 active torsions:
REMARK  status: ('A' for Active; 'I' for Inactive)
REMARK    1  A    between atoms: C_4  and  C_5
REMARK                            x       y       z     vdW  Elec       q    Type
REMARK                         _______ _______ _______ _____ _____    ______ ____
ROOT
ATOM      1  O   UNL     1       4.108   6.905  17.711  0.00  0.00    +0.000 OA
ATOM      2  C   UNL     1       4.340   5.782  17.277  0.00  0.00    +0.000 C 
ATOM      3  N   UNL     1       5.045   5.609  16.111  0.00  0.00    +0.000 N 
ATOM      4  C   UNL     1       4.892   4.405  15.343  0.00  0.00    +0.000 C 
ATOM      5  N   UNL     1       5.035   3.267  16.230  0.00  0.00    +0.000 N 
ATOM      6  C   UNL     1       4.324   3.349  17.385  0.00  0.00    +0.000 A 
ATOM      7  S   UNL     1       3.807   2.019  18.303  0.00  0.00    +0.000 S 
ATOM      8  C   UNL     1       3.044   3.035  19.448  0.00  0.00    +0.000 A 
ATOM      9  C   UNL     1       3.159   4.370  19.130  0.00  0.00    +0.000 A 
ATOM     10  C   UNL     1       3.933   4.550  17.935  0.00  0.00    +0.000 A 
ATOM     11  C   UNL     1       2.564   5.460  19.947  0.00  0.00    +0.000 C 
ATOM     12  C   UNL     1       1.822   5.011  21.206  0.00  0.00    +0.000 C 
ATOM     13  C   UNL     1       1.759   3.523  21.575  0.00  0.00    +0.000 C 
ATOM     14  C   UNL     1       2.361   2.469  20.640  0.00  0.00    +0.000 C 
ATOM     15  H   UNL     1       5.248   6.468  15.625  0.00  0.00    +0.000 HD
ATOM     16  H   UNL     1       5.069   2.366  15.763  0.00  0.00    +0.000 HD
ENDROOT
BRANCH   4  17
ATOM     17  C   UNL     1       5.886   4.360  14.210  0.00  0.00    +0.000 A 
ATOM     18  C   UNL     1       7.052   5.136  14.221  0.00  0.00    +0.000 A 
ATOM     19  C   UNL     1       7.890   5.097  13.117  0.00  0.00    +0.000 A 
ATOM     20  N   UNL     1       7.653   4.344  12.022  0.00  0.00    +0.000 NA
ATOM     21  C   UNL     1       6.532   3.596  12.028  0.00  0.00    +0.000 A 
ATOM     22  C   UNL     1       5.631   3.569  13.081  0.00  0.00    +0.000 A 
ENDBRANCH   4  17
TORSDOF 1
ENDMDL
MODEL 5
REMARK VINA RESULT:      -7.2      2.151      6.857
REMARK  Name = 
REMARK  1 active torsions:
REMARK  status: ('A' for Active; 'I' for Inactive)
REMARK    1  A    between atoms: C_4  and  C_5
REMARK                            x       y       z     vdW  Elec       q    Type
REMARK                         _______ _______ _______ _____ _____    ______ ____
ROOT
ATOM      1  O   UNL     1       1.931   9.244  17.307  0.00  0.00    +0.000 OA
ATOM      2  C   UNL     1       1.942   8.612  18.357  0.00  0.00    +0.000 C 
ATOM      3  N   UNL     1       2.581   7.399  18.444  0.00  0.00    +0.000 N 
ATOM      4  C   UNL     1       2.193   6.444  19.443  0.00  0.00    +0.000 C 
ATOM      5  N   UNL     1       2.137   7.113  20.728  0.00  0.00    +0.000 N 
ATOM      6  C   UNL     1       1.474   8.299  20.727  0.00  0.00    +0.000 A 
ATOM      7  S   UNL     1       0.734   9.000  22.084  0.00  0.00    +0.000 S 
ATOM      8  C   UNL     1       0.195  10.340  21.167  0.00  0.00    +0.000 A 
ATOM      9  C   UNL     1       0.551  10.251  19.840  0.00  0.00    +0.000 A 
ATOM     10  C   UNL     1       1.324   9.068  19.593  0.00  0.00    +0.000 A 
ATOM     11  C   UNL     1       0.184  11.272  18.825  0.00  0.00    +0.000 C 
ATOM     12  C   UNL     1      -0.606  12.471  19.350  0.00  0.00    +0.000 C 
ATOM     13  C   UNL     1      -0.939  12.581  20.844  0.00  0.00    +0.000 C 
ATOM     14  C   UNL     1      -0.561  11.450  21.805  0.00  0.00    +0.000 C 
ATOM     15  H   UNL     1       2.932   7.059  17.563  0.00  0.00    +0.000 HD
ATOM     16  H   UNL     1       1.994   6.498  21.522  0.00  0.00    +0.000 HD
ENDROOT
BRANCH   4  17
ATOM     17  C   UNL     1       3.141   5.271  19.464  0.00  0.00    +0.000 A 
ATOM     18  C   UNL     1       2.752   4.018  19.952  0.00  0.00    +0.000 A 
ATOM     19  C   UNL     1       3.693   3.002  20.005  0.00  0.00    +0.000 A 
ATOM     20  N   UNL     1       4.974   3.144  19.605  0.00  0.00    +0.000 NA
ATOM     21  C   UNL     1       5.333   4.353  19.129  0.00  0.00    +0.000 A 
ATOM     22  C   UNL     1       4.467   5.432  19.040  0.00  0.00    +0.000 A 
ENDBRANCH   4  17
TORSDOF 1
ENDMDL
MODEL 6
REMARK VINA RESULT:      -7.1      2.899      7.335
REMARK  Name = 
REMARK  1 active torsions:
REMARK  status: ('A' for Active; 'I' for Inactive)
REMARK    1  A    between atoms: C_4  and  C_5
REMARK                            x       y       z     vdW  Elec       q    Type
REMARK                         _______ _______ _______ _____ _____    ______ ____
ROOT
ATOM      1  O   UNL     1       2.185   5.567  20.756  0.00  0.00    +0.000 OA
ATOM      2  C   UNL     1       2.537   6.178  19.754  0.00  0.00    +0.000 C 
ATOM      3  N   UNL     1       3.369   5.596  18.829  0.00  0.00    +0.000 N 
ATOM      4  C   UNL     1       4.176   6.410  17.964  0.00  0.00    +0.000 C 
ATOM      5  N   UNL     1       3.333   7.425  17.363  0.00  0.00    +0.000 N 
ATOM      6  C   UNL     1       2.516   8.079  18.230  0.00  0.00    +0.000 A 
ATOM      7  S   UNL     1       1.891   9.638  17.990  0.00  0.00    +0.000 S 
ATOM      8  C   UNL     1       1.075   9.603  19.492  0.00  0.00    +0.000 A 
ATOM      9  C   UNL     1       1.289   8.431  20.184  0.00  0.00    +0.000 A 
ATOM     10  C   UNL     1       2.111   7.530  19.428  0.00  0.00    +0.000 A 
ATOM     11  C   UNL     1       0.714   8.157  21.527  0.00  0.00    +0.000 C 
ATOM     12  C   UNL     1      -0.172   9.262  22.103  0.00  0.00    +0.000 C 
ATOM     13  C   UNL     1      -0.448  10.534  21.290  0.00  0.00    +0.000 C 
ATOM     14  C   UNL     1       0.233  10.745  19.934  0.00  0.00    +0.000 C 
ATOM     15  H   UNL     1       3.721   4.694  19.107  0.00  0.00    +0.000 HD
ATOM     16  H   UNL     1       3.781   7.976  16.637  0.00  0.00    +0.000 HD
ENDROOT
BRANCH   4  17
ATOM     17  C   UNL     1       4.867   5.568  16.921  0.00  0.00    +0.000 A 
ATOM     18  C   UNL     1       5.305   6.111  15.707  0.00  0.00    +0.000 A 
ATOM     19  C   UNL     1       5.873   5.267  14.766  0.00  0.00    +0.000 A 
ATOM     20  N   UNL     1       6.038   3.940  14.950  0.00  0.00    +0.000 NA
ATOM     21  C   UNL     1       5.620   3.432  16.126  0.00  0.00    +0.000 A 
ATOM     22  C   UNL     1       5.037   4.193  17.129  0.00  0.00    +0.000 A 
ENDBRANCH   4  17
TORSDOF 1
ENDMDL
MODEL 7
REMARK VINA RESULT:      -7.0      2.793      7.358
REMARK  Name = 
REMARK  1 active torsions:
REMARK  status: ('A' for Active; 'I' for Inactive)
REMARK    1  A    between atoms: C_4  and  C_5
REMARK                            x       y       z     vdW  Elec       q    Type
REMARK                         _______ _______ _______ _____ _____    ______ ____
ROOT
ATOM      1  O   UNL     1       1.849   5.881  20.973  0.00  0.00    +0.000 OA
ATOM      2  C   UNL     1       2.204   6.476  19.962  0.00  0.00    +0.000 C 
ATOM      3  N   UNL     1       2.993   5.860  19.021  0.00  0.00    +0.000 N 
ATOM      4  C   UNL     1       3.814   6.639  18.138  0.00  0.00    +0.000 C 
ATOM      5  N   UNL     1       3.000   7.687  17.553  0.00  0.00    +0.000 N 
ATOM      6  C   UNL     1       2.229   8.374  18.436  0.00  0.00    +0.000 A 
ATOM      7  S   UNL     1       1.663   9.957  18.205  0.00  0.00    +0.000 S 
ATOM      8  C   UNL     1       0.877   9.957  19.724  0.00  0.00    +0.000 A 
ATOM      9  C   UNL     1       1.058   8.778  20.414  0.00  0.00    +0.000 A 
ATOM     10  C   UNL     1       1.827   7.844  19.642  0.00  0.00    +0.000 A 
ATOM     11  C   UNL     1       0.500   8.529  21.768  0.00  0.00    +0.000 C 
ATOM     12  C   UNL     1      -0.329   9.669  22.361  0.00  0.00    +0.000 C 
ATOM     13  C   UNL     1      -0.569  10.950  21.551  0.00  0.00    +0.000 C 
ATOM     14  C   UNL     1       0.092  11.133  20.181  0.00  0.00    +0.000 C 
ATOM     15  H   UNL     1       3.314   4.944  19.294  0.00  0.00    +0.000 HD
ATOM     16  H   UNL     1       3.456   8.218  16.817  0.00  0.00    +0.000 HD
ENDROOT
BRANCH   4  17
ATOM     17  C   UNL     1       4.449   5.769  17.083  0.00  0.00    +0.000 A 
ATOM     18  C   UNL     1       4.412   4.371  17.162  0.00  0.00    +0.000 A 
ATOM     19  C   UNL     1       5.074   3.631  16.194  0.00  0.00    +0.000 A 
ATOM     20  N   UNL     1       5.753   4.180  15.165  0.00  0.00    +0.000 NA
ATOM     21  C   UNL     1       5.772   5.526  15.096  0.00  0.00    +0.000 A 
ATOM     22  C   UNL     1       5.146   6.352  16.017  0.00  0.00    +0.000 A 
ENDBRANCH   4  17
TORSDOF 1
ENDMDL
MODEL 8
REMARK VINA RESULT:      -7.0      4.292      8.284
REMARK  Name = 
REMARK  1 active torsions:
REMARK  status: ('A' for Active; 'I' for Inactive)
REMARK    1  A    between atoms: C_4  and  C_5
REMARK                            x       y       z     vdW  Elec       q    Type
REMARK                         _______ _______ _______ _____ _____    ______ ____
ROOT
ATOM      1  O   UNL     1       4.062   2.407  17.772  0.00  0.00    +0.000 OA
ATOM      2  C   UNL     1       4.352   3.470  17.237  0.00  0.00    +0.000 C 
ATOM      3  N   UNL     1       5.111   3.500  16.092  0.00  0.00    +0.000 N 
ATOM      4  C   UNL     1       5.866   4.673  15.752  0.00  0.00    +0.000 C 
ATOM      5  N   UNL     1       4.997   5.829  15.848  0.00  0.00    +0.000 N 
ATOM      6  C   UNL     1       4.250   5.891  16.982  0.00  0.00    +0.000 A 
ATOM      7  S   UNL     1       3.630   7.317  17.660  0.00  0.00    +0.000 S 
ATOM      8  C   UNL     1       2.918   6.457  18.957  0.00  0.00    +0.000 A 
ATOM      9  C   UNL     1       3.165   5.104  18.893  0.00  0.00    +0.000 A 
ATOM     10  C   UNL     1       3.921   4.774  17.719  0.00  0.00    +0.000 A 
ATOM     11  C   UNL     1       2.680   4.135  19.910  0.00  0.00    +0.000 C 
ATOM     12  C   UNL     1       1.850   4.732  21.047  0.00  0.00    +0.000 C 
ATOM     13  C   UNL     1       1.535   6.234  21.066  0.00  0.00    +0.000 C 
ATOM     14  C   UNL     1       2.123   7.160  19.997  0.00  0.00    +0.000 C 
ATOM     15  H   UNL     1       5.470   2.600  15.817  0.00  0.00    +0.000 HD
ATOM     16  H   UNL     1       5.401   6.695  15.506  0.00  0.00    +0.000 HD
ENDROOT
BRANCH   4  17
ATOM     17  C   UNL     1       6.474   4.542  14.378  0.00  0.00    +0.000 A 
ATOM     18  C   UNL     1       7.525   5.365  13.956  0.00  0.00    +0.000 A 
ATOM     19  C   UNL     1       7.991   5.238  12.657  0.00  0.00    +0.000 A 
ATOM     20  N   UNL     1       7.495   4.355  11.765  0.00  0.00    +0.000 NA
ATOM     21  C   UNL     1       6.489   3.563  12.187  0.00  0.00    +0.000 A 
ATOM     22  C   UNL     1       5.952   3.618  13.464  0.00  0.00    +0.000 A 
ENDBRANCH   4  17
TORSDOF 1
ENDMDL
MODEL 9
REMARK VINA RESULT:      -7.0      1.018      1.155
REMARK  Name = 
REMARK  1 active torsions:
REMARK  status: ('A' for Active; 'I' for Inactive)
REMARK    1  A    between atoms: C_4  and  C_5
REMARK                            x       y       z     vdW  Elec       q    Type
REMARK                         _______ _______ _______ _____ _____    ______ ____
ROOT
ATOM      1  O   UNL     1       2.458   9.136  17.335  0.00  0.00    +0.000 OA
ATOM      2  C   UNL     1       2.111   8.674  18.416  0.00  0.00    +0.000 C 
ATOM      3  N   UNL     1       1.313   9.398  19.268  0.00  0.00    +0.000 N 
ATOM      4  C   UNL     1       1.319   9.122  20.678  0.00  0.00    +0.000 C 
ATOM      5  N   UNL     1       1.156   7.695  20.872  0.00  0.00    +0.000 N 
ATOM      6  C   UNL     1       1.952   6.916  20.094  0.00  0.00    +0.000 A 
ATOM      7  S   UNL     1       2.434   5.334  20.474  0.00  0.00    +0.000 S 
ATOM      8  C   UNL     1       3.351   5.208  19.036  0.00  0.00    +0.000 A 
ATOM      9  C   UNL     1       3.314   6.360  18.282  0.00  0.00    +0.000 A 
ATOM     10  C   UNL     1       2.471   7.348  18.893  0.00  0.00    +0.000 A 
ATOM     11  C   UNL     1       4.046   6.522  16.999  0.00  0.00    +0.000 C 
ATOM     12  C   UNL     1       4.841   5.302  16.534  0.00  0.00    +0.000 C 
ATOM     13  C   UNL     1       4.819   4.007  17.358  0.00  0.00    +0.000 C 
ATOM     14  C   UNL     1       4.074   3.955  18.695  0.00  0.00    +0.000 C 
ATOM     15  H   UNL     1       1.140  10.342  18.963  0.00  0.00    +0.000 HD
ATOM     16  H   UNL     1       1.021   7.410  21.837  0.00  0.00    +0.000 HD
ENDROOT
BRANCH   4  17
ATOM     17  C   UNL     1       0.245   9.910  21.385  0.00  0.00    +0.000 A 
ATOM     18  C   UNL     1      -0.358  11.027  20.795  0.00  0.00    +0.000 A 
ATOM     19  C   UNL     1      -1.291  11.746  21.527  0.00  0.00    +0.000 A 
ATOM     20  N   UNL     1      -1.663  11.428  22.785  0.00  0.00    +0.000 NA
ATOM     21  C   UNL     1      -1.080  10.346  23.338  0.00  0.00    +0.000 A 
ATOM     22  C   UNL     1      -0.136   9.566  22.689  0.00  0.00    +0.000 A 
ENDBRANCH   4  17
TORSDOF 1
ENDMDL
