MODEL 1
REMARK VINA RESULT:      -8.4      0.000      0.000
REMARK  Name = 
REMARK  4 active torsions:
REMARK  status: ('A' for Active; 'I' for Inactive)
REMARK    1  A    between atoms: C_5  and  C_6
REMARK    2  A    between atoms: N_17  and  C_18
REMARK    3  A    between atoms: C_23  and  C_24
REMARK    4  A    between atoms: C_24  and  N_25
REMARK                            x       y       z     vdW  Elec       q    Type
REMARK                         _______ _______ _______ _____ _____    ______ ____
ROOT
ATOM      1  O   UNL     1       1.037   9.716  22.433  0.00  0.00    +0.000 OA
ATOM      2  C   UNL     1       0.469  10.128  21.425  0.00  0.00    +0.000 A 
ATOM      3  C   UNL     1      -0.510  11.177  21.429  0.00  0.00    +0.000 A 
ATOM      4  S   UNL     1      -0.984  12.030  22.804  0.00  0.00    +0.000 S 
ATOM      5  C   UNL     1      -2.174  12.918  21.917  0.00  0.00    +0.000 A 
ATOM      6  C   UNL     1      -2.143  12.578  20.571  0.00  0.00    +0.000 A 
ATOM      7  C   UNL     1      -1.170  11.591  20.310  0.00  0.00    +0.000 A 
ATOM      8  N   UNL     1      -0.930  11.056  19.045  0.00  0.00    +0.000 NA
ATOM      9  C   UNL     1      -0.026  10.124  19.045  0.00  0.00    +0.000 A 
ATOM     10  N   UNL     1       0.696   9.639  20.135  0.00  0.00    +0.000 N 
ENDROOT
BRANCH  10  11
ATOM     11  C   UNL     1       1.479   8.472  19.933  0.00  0.00    +0.000 A 
ATOM     12  C   UNL     1       1.400   7.431  20.859  0.00  0.00    +0.000 A 
ATOM     13  C   UNL     1       1.793   6.147  20.499  0.00  0.00    +0.000 A 
ATOM     14  C   UNL     1       2.334   5.960  19.221  0.00  0.00    +0.000 A 
ATOM     15  S   UNL     1       2.581   4.480  18.394  0.00  0.00    +0.000 S 
ATOM     16  C   UNL     1       3.787   5.201  17.411  0.00  0.00    +0.000 A 
ATOM     17  C   UNL     1       3.562   6.568  17.343  0.00  0.00    +0.000 A 
ATOM     18  C   UNL     1       2.678   7.021  18.386  0.00  0.00    +0.000 A 
ATOM     19  C   UNL     1       2.180   8.297  18.725  0.00  0.00    +0.000 A 
BRANCH  16  20
ATOM     20  C   UNL     1       4.770   4.332  16.686  0.00  0.00    +0.000 C 
BRANCH  20  21
ATOM     21  N   UNL     1       6.123   4.224  17.257  0.00  0.00    +0.000 NA
ATOM     22  C   UNL     1       6.267   4.337  18.717  0.00  0.00    +0.000 C 
ATOM     23  C   UNL     1       6.592   5.747  19.274  0.00  0.00    +0.000 C 
ATOM     24  O   UNL     1       7.574   6.456  18.511  0.00  0.00    +0.000 OA
ATOM     25  C   UNL     1       7.273   6.449  17.112  0.00  0.00    +0.000 C 
ATOM     26  C   UNL     1       7.166   5.012  16.595  0.00  0.00    +0.000 C 
ENDBRANCH  20  21
ENDBRANCH  16  20
ENDBRANCH  10  11
BRANCH   5  27
ATOM     27  C   UNL     1      -3.028  13.898  22.610  0.00  0.00    +0.000 A 
ATOM     28  C   UNL     1      -4.113  14.486  21.939  0.00  0.00    +0.000 A 
ATOM     29  C   UNL     1      -4.922  15.436  22.585  0.00  0.00    +0.000 A 
ATOM     30  C   UNL     1      -4.654  15.798  23.901  0.00  0.00    +0.000 A 
ATOM     31 CL   UNL     1      -5.637  16.969  24.679  0.00  0.00    +0.000 Cl
ATOM     32  C   UNL     1      -3.589  15.219  24.581  0.00  0.00    +0.000 A 
ATOM     33  C   UNL     1      -2.783  14.273  23.946  0.00  0.00    +0.000 A 
ENDBRANCH   5  27
TORSDOF 4
ENDMDL
MODEL 2
REMARK VINA RESULT:      -8.3      4.483     11.646
REMARK  Name = 
REMARK  4 active torsions:
REMARK  status: ('A' for Active; 'I' for Inactive)
REMARK    1  A    between atoms: C_5  and  C_6
REMARK    2  A    between atoms: N_17  and  C_18
REMARK    3  A    between atoms: C_23  and  C_24
REMARK    4  A    between atoms: C_24  and  N_25
REMARK                            x       y       z     vdW  Elec       q    Type
REMARK                         _______ _______ _______ _____ _____    ______ ____
ROOT
ATOM      1  O   UNL     1       0.751  11.299  18.824  0.00  0.00    +0.000 OA
ATOM      2  C   UNL     1       0.836  10.374  19.629  0.00  0.00    +0.000 A 
ATOM      3  C   UNL     1       1.560   9.162  19.382  0.00  0.00    +0.000 A 
ATOM      4  S   UNL     1       2.441   8.848  17.979  0.00  0.00    +0.000 S 
ATOM      5  C   UNL     1       2.823   7.245  18.503  0.00  0.00    +0.000 A 
ATOM      6  C   UNL     1       2.310   7.004  19.771  0.00  0.00    +0.000 A 
ATOM      7  C   UNL     1       1.605   8.122  20.264  0.00  0.00    +0.000 A 
ATOM      8  N   UNL     1       0.976   8.155  21.508  0.00  0.00    +0.000 NA
ATOM      9  C   UNL     1       0.343   9.265  21.734  0.00  0.00    +0.000 A 
ATOM     10  N   UNL     1       0.244  10.375  20.896  0.00  0.00    +0.000 N 
ENDROOT
BRANCH  10  11
ATOM     11  C   UNL     1      -0.676  11.391  21.263  0.00  0.00    +0.000 A 
ATOM     12  C   UNL     1      -0.262  12.401  22.133  0.00  0.00    +0.000 A 
ATOM     13  C   UNL     1      -0.954  13.606  22.181  0.00  0.00    +0.000 A 
ATOM     14  C   UNL     1      -2.107  13.734  21.395  0.00  0.00    +0.000 A 
ATOM     15  S   UNL     1      -2.947  15.170  20.994  0.00  0.00    +0.000 S 
ATOM     16  C   UNL     1      -4.380  14.279  20.693  0.00  0.00    +0.000 A 
ATOM     17  C   UNL     1      -4.044  12.976  20.359  0.00  0.00    +0.000 A 
ATOM     18  C   UNL     1      -2.692  12.654  20.737  0.00  0.00    +0.000 A 
ATOM     19  C   UNL     1      -1.924  11.476  20.618  0.00  0.00    +0.000 A 
BRANCH  16  20
ATOM     20  C   UNL     1      -5.704  14.983  20.686  0.00  0.00    +0.000 C 
BRANCH  20  21
ATOM     21  N   UNL     1      -6.587  14.772  21.845  0.00  0.00    +0.000 NA
ATOM     22  C   UNL     1      -5.960  14.485  23.145  0.00  0.00    +0.000 C 
ATOM     23  C   UNL     1      -5.796  12.989  23.521  0.00  0.00    +0.000 C 
ATOM     24  O   UNL     1      -6.939  12.187  23.209  0.00  0.00    +0.000 OA
ATOM     25  C   UNL     1      -7.388  12.394  21.865  0.00  0.00    +0.000 C 
ATOM     26  C   UNL     1      -7.723  13.870  21.635  0.00  0.00    +0.000 C 
ENDBRANCH  20  21
ENDBRANCH  16  20
ENDBRANCH  10  11
BRANCH   5  27
ATOM     27  C   UNL     1       3.618   6.358  17.638  0.00  0.00    +0.000 A 
ATOM     28  C   UNL     1       3.421   4.968  17.682  0.00  0.00    +0.000 A 
ATOM     29  C   UNL     1       4.188   4.111  16.874  0.00  0.00    +0.000 A 
ATOM     30  C   UNL     1       5.149   4.639  16.018  0.00  0.00    +0.000 A 
ATOM     31 CL   UNL     1       6.091   3.587  15.044  0.00  0.00    +0.000 Cl
ATOM     32  C   UNL     1       5.350   6.013  15.956  0.00  0.00    +0.000 A 
ATOM     33  C   UNL     1       4.589   6.869  16.754  0.00  0.00    +0.000 A 
ENDBRANCH   5  27
TORSDOF 4
ENDMDL
MODEL 3
REMARK VINA RESULT:      -8.1      1.539      2.137
REMARK  Name = 
REMARK  4 active torsions:
REMARK  status: ('A' for Active; 'I' for Inactive)
REMARK    1  A    between atoms: C_5  and  C_6
REMARK    2  A    between atoms: N_17  and  C_18
REMARK    3  A    between atoms: C_23  and  C_24
REMARK    4  A    between atoms: C_24  and  N_25
REMARK                            x       y       z     vdW  Elec       q    Type
REMARK                         _______ _______ _______ _____ _____    ______ ____
ROOT
ATOM      1  O   UNL     1       0.171  12.161  21.876  0.00  0.00    +0.000 OA
ATOM      2  C   UNL     1      -0.701  12.005  21.025  0.00  0.00    +0.000 A 
ATOM      3  C   UNL     1      -1.942  12.723  21.009  0.00  0.00    +0.000 A 
ATOM      4  S   UNL     1      -2.364  13.918  22.120  0.00  0.00    +0.000 S 
ATOM      5  C   UNL     1      -3.937  14.096  21.425  0.00  0.00    +0.000 A 
ATOM      6  C   UNL     1      -4.084  13.270  20.319  0.00  0.00    +0.000 A 
ATOM      7  C   UNL     1      -2.923  12.505  20.086  0.00  0.00    +0.000 A 
ATOM      8  N   UNL     1      -2.796  11.584  19.047  0.00  0.00    +0.000 NA
ATOM      9  C   UNL     1      -1.661  10.955  19.054  0.00  0.00    +0.000 A 
ATOM     10  N   UNL     1      -0.606  11.112  19.953  0.00  0.00    +0.000 N 
ENDROOT
BRANCH  10  11
ATOM     11  C   UNL     1       0.451  10.166  19.891  0.00  0.00    +0.000 A 
ATOM     12  C   UNL     1       0.642   9.289  20.959  0.00  0.00    +0.000 A 
ATOM     13  C   UNL     1       1.353   8.108  20.772  0.00  0.00    +0.000 A 
ATOM     14  C   UNL     1       1.925   7.878  19.515  0.00  0.00    +0.000 A 
ATOM     15  S   UNL     1       2.545   6.405  18.901  0.00  0.00    +0.000 S 
ATOM     16  C   UNL     1       3.526   7.255  17.780  0.00  0.00    +0.000 A 
ATOM     17  C   UNL     1       2.957   8.494  17.526  0.00  0.00    +0.000 A 
ATOM     18  C   UNL     1       1.985   8.856  18.525  0.00  0.00    +0.000 A 
ATOM     19  C   UNL     1       1.175   9.999  18.696  0.00  0.00    +0.000 A 
BRANCH  16  20
ATOM     20  C   UNL     1       4.701   6.568  17.152  0.00  0.00    +0.000 C 
BRANCH  20  21
ATOM     21  N   UNL     1       5.206   5.354  17.814  0.00  0.00    +0.000 NA
ATOM     22  C   UNL     1       6.165   5.519  18.918  0.00  0.00    +0.000 C 
ATOM     23  C   UNL     1       7.669   5.442  18.547  0.00  0.00    +0.000 C 
ATOM     24  O   UNL     1       7.982   4.395  17.622  0.00  0.00    +0.000 OA
ATOM     25  C   UNL     1       7.111   4.406  16.486  0.00  0.00    +0.000 C 
ATOM     26  C   UNL     1       5.652   4.275  16.929  0.00  0.00    +0.000 C 
ENDBRANCH  20  21
ENDBRANCH  16  20
ENDBRANCH  10  11
BRANCH   5  27
ATOM     27  C   UNL     1      -4.894  15.051  22.007  0.00  0.00    +0.000 A 
ATOM     28  C   UNL     1      -6.268  14.924  21.740  0.00  0.00    +0.000 A 
ATOM     29  C   UNL     1      -7.188  15.842  22.275  0.00  0.00    +0.000 A 
ATOM     30  C   UNL     1      -6.741  16.885  23.080  0.00  0.00    +0.000 A 
ATOM     31 CL   UNL     1      -7.868  18.010  23.718  0.00  0.00    +0.000 Cl
ATOM     32  C   UNL     1      -5.387  17.020  23.360  0.00  0.00    +0.000 A 
ATOM     33  C   UNL     1      -4.468  16.110  22.834  0.00  0.00    +0.000 A 
ENDBRANCH   5  27
TORSDOF 4
ENDMDL
MODEL 4
REMARK VINA RESULT:      -8.0      4.431     11.652
REMARK  Name = 
REMARK  4 active torsions:
REMARK  status: ('A' for Active; 'I' for Inactive)
REMARK    1  A    between atoms: C_5  and  C_6
REMARK    2  A    between atoms: N_17  and  C_18
REMARK    3  A    between atoms: C_23  and  C_24
REMARK    4  A    between atoms: C_24  and  N_25
REMARK                            x       y       z     vdW  Elec       q    Type
REMARK                         _______ _______ _______ _____ _____    ______ ____
ROOT
ATOM      1  O   UNL     1       0.459  11.340  18.564  0.00  0.00    +0.000 OA
ATOM      2  C   UNL     1       0.596  10.508  19.457  0.00  0.00    +0.000 A 
ATOM      3  C   UNL     1       1.356   9.300  19.316  0.00  0.00    +0.000 A 
ATOM      4  S   UNL     1       2.213   8.871  17.929  0.00  0.00    +0.000 S 
ATOM      5  C   UNL     1       2.663   7.344  18.604  0.00  0.00    +0.000 A 
ATOM      6  C   UNL     1       2.190   7.220  19.904  0.00  0.00    +0.000 A 
ATOM      7  C   UNL     1       1.458   8.359  20.299  0.00  0.00    +0.000 A 
ATOM      8  N   UNL     1       0.860   8.501  21.551  0.00  0.00    +0.000 NA
ATOM      9  C   UNL     1       0.194   9.608  21.678  0.00  0.00    +0.000 A 
ATOM     10  N   UNL     1       0.036  10.621  20.733  0.00  0.00    +0.000 N 
ENDROOT
BRANCH  10  11
ATOM     11  C   UNL     1      -0.910  11.640  21.019  0.00  0.00    +0.000 A 
ATOM     12  C   UNL     1      -1.905  11.927  20.083  0.00  0.00    +0.000 A 
ATOM     13  C   UNL     1      -3.066  12.582  20.479  0.00  0.00    +0.000 A 
ATOM     14  C   UNL     1      -3.160  13.004  21.811  0.00  0.00    +0.000 A 
ATOM     15  S   UNL     1      -4.563  13.513  22.651  0.00  0.00    +0.000 S 
ATOM     16  C   UNL     1      -3.604  14.383  23.776  0.00  0.00    +0.000 A 
ATOM     17  C   UNL     1      -2.338  13.821  23.826  0.00  0.00    +0.000 A 
ATOM     18  C   UNL     1      -2.078  12.976  22.688  0.00  0.00    +0.000 A 
ATOM     19  C   UNL     1      -0.951  12.220  22.301  0.00  0.00    +0.000 A 
BRANCH  16  20
ATOM     20  C   UNL     1      -4.232  15.462  24.607  0.00  0.00    +0.000 C 
BRANCH  20  21
ATOM     21  N   UNL     1      -3.875  16.854  24.285  0.00  0.00    +0.000 NA
ATOM     22  C   UNL     1      -3.490  17.164  22.899  0.00  0.00    +0.000 C 
ATOM     23  C   UNL     1      -1.973  17.137  22.578  0.00  0.00    +0.000 C 
ATOM     24  O   UNL     1      -1.160  17.749  23.585  0.00  0.00    +0.000 OA
ATOM     25  C   UNL     1      -1.477  17.267  24.895  0.00  0.00    +0.000 C 
ATOM     26  C   UNL     1      -2.953  17.515  25.213  0.00  0.00    +0.000 C 
ENDBRANCH  20  21
ENDBRANCH  16  20
ENDBRANCH  10  11
BRANCH   5  27
ATOM     27  C   UNL     1       3.467   6.398  17.813  0.00  0.00    +0.000 A 
ATOM     28  C   UNL     1       3.160   5.027  17.828  0.00  0.00    +0.000 A 
ATOM     29  C   UNL     1       3.933   4.113  17.092  0.00  0.00    +0.000 A 
ATOM     30  C   UNL     1       5.010   4.565  16.336  0.00  0.00    +0.000 A 
ATOM     31 CL   UNL     1       5.957   3.442  15.450  0.00  0.00    +0.000 Cl
ATOM     32  C   UNL     1       5.322   5.919  16.304  0.00  0.00    +0.000 A 
ATOM     33  C   UNL     1       4.556   6.832  17.031  0.00  0.00    +0.000 A 
ENDBRANCH   5  27
TORSDOF 4
ENDMDL
MODEL 5
REMARK VINA RESULT:      -8.0      4.466     11.753
REMARK  Name = 
REMARK  4 active torsions:
REMARK  status: ('A' for Active; 'I' for Inactive)
REMARK    1  A    between atoms: C_5  and  C_6
REMARK    2  A    between atoms: N_17  and  C_18
REMARK    3  A    between atoms: C_23  and  C_24
REMARK    4  A    between atoms: C_24  and  N_25
REMARK                            x       y       z     vdW  Elec       q    Type
REMARK                         _______ _______ _______ _____ _____    ______ ____
ROOT
ATOM      1  O   UNL     1      -0.003  11.227  18.348  0.00  0.00    +0.000 OA
ATOM      2  C   UNL     1       0.234  10.504  19.312  0.00  0.00    +0.000 A 
ATOM      3  C   UNL     1       1.086   9.352  19.257  0.00  0.00    +0.000 A 
ATOM      4  S   UNL     1       1.925   8.852  17.883  0.00  0.00    +0.000 S 
ATOM      5  C   UNL     1       2.524   7.442  18.685  0.00  0.00    +0.000 A 
ATOM      6  C   UNL     1       2.110   7.415  20.010  0.00  0.00    +0.000 A 
ATOM      7  C   UNL     1       1.302   8.527  20.323  0.00  0.00    +0.000 A 
ATOM      8  N   UNL     1       0.739   8.748  21.579  0.00  0.00    +0.000 NA
ATOM      9  C   UNL     1      -0.011   9.806  21.627  0.00  0.00    +0.000 A 
ATOM     10  N   UNL     1      -0.287  10.702  20.594  0.00  0.00    +0.000 N 
ENDROOT
BRANCH  10  11
ATOM     11  C   UNL     1      -1.304  11.667  20.820  0.00  0.00    +0.000 A 
ATOM     12  C   UNL     1      -2.074  12.107  19.744  0.00  0.00    +0.000 A 
ATOM     13  C   UNL     1      -3.314  12.697  19.970  0.00  0.00    +0.000 A 
ATOM     14  C   UNL     1      -3.713  12.899  21.297  0.00  0.00    +0.000 A 
ATOM     15  S   UNL     1      -5.281  13.274  21.872  0.00  0.00    +0.000 S 
ATOM     16  C   UNL     1      -4.622  13.945  23.307  0.00  0.00    +0.000 A 
ATOM     17  C   UNL     1      -3.381  13.375  23.547  0.00  0.00    +0.000 A 
ATOM     18  C   UNL     1      -2.851  12.723  22.377  0.00  0.00    +0.000 A 
ATOM     19  C   UNL     1      -1.644  12.032  22.136  0.00  0.00    +0.000 A 
BRANCH  16  20
ATOM     20  C   UNL     1      -5.450  14.880  24.137  0.00  0.00    +0.000 C 
BRANCH  20  21
ATOM     21  N   UNL     1      -5.174  16.320  24.008  0.00  0.00    +0.000 NA
ATOM     22  C   UNL     1      -4.655  16.811  22.721  0.00  0.00    +0.000 C 
ATOM     23  C   UNL     1      -3.113  16.924  22.593  0.00  0.00    +0.000 C 
ATOM     24  O   UNL     1      -2.477  17.473  23.753  0.00  0.00    +0.000 OA
ATOM     25  C   UNL     1      -2.906  16.826  24.955  0.00  0.00    +0.000 C 
ATOM     26  C   UNL     1      -4.425  16.934  25.109  0.00  0.00    +0.000 C 
ENDBRANCH  20  21
ENDBRANCH  16  20
ENDBRANCH  10  11
BRANCH   5  27
ATOM     27  C   UNL     1       3.375   6.488  17.956  0.00  0.00    +0.000 A 
ATOM     28  C   UNL     1       4.509   6.941  17.262  0.00  0.00    +0.000 A 
ATOM     29  C   UNL     1       5.317   6.040  16.547  0.00  0.00    +0.000 A 
ATOM     30  C   UNL     1       4.998   4.686  16.526  0.00  0.00    +0.000 A 
ATOM     31 CL   UNL     1       5.981   3.594  15.641  0.00  0.00    +0.000 Cl
ATOM     32  C   UNL     1       3.884   4.221  17.214  0.00  0.00    +0.000 A 
ATOM     33  C   UNL     1       3.079   5.110  17.929  0.00  0.00    +0.000 A 
ENDBRANCH   5  27
TORSDOF 4
ENDMDL
MODEL 6
REMARK VINA RESULT:      -8.0      2.286      3.092
REMARK  Name = 
REMARK  4 active torsions:
REMARK  status: ('A' for Active; 'I' for Inactive)
REMARK    1  A    between atoms: C_5  and  C_6
REMARK    2  A    between atoms: N_17  and  C_18
REMARK    3  A    between atoms: C_23  and  C_24
REMARK    4  A    between atoms: C_24  and  N_25
REMARK                            x       y       z     vdW  Elec       q    Type
REMARK                         _______ _______ _______ _____ _____    ______ ____
ROOT
ATOM      1  O   UNL     1      -0.151   9.246  21.678  0.00  0.00    +0.000 OA
ATOM      2  C   UNL     1       0.106  10.254  21.025  0.00  0.00    +0.000 A 
ATOM      3  C   UNL     1      -0.414  11.556  21.325  0.00  0.00    +0.000 A 
ATOM      4  S   UNL     1      -1.409  11.904  22.641  0.00  0.00    +0.000 S 
ATOM      5  C   UNL     1      -1.597  13.549  22.143  0.00  0.00    +0.000 A 
ATOM      6  C   UNL     1      -0.846  13.810  21.004  0.00  0.00    +0.000 A 
ATOM      7  C   UNL     1      -0.162  12.658  20.562  0.00  0.00    +0.000 A 
ATOM      8  N   UNL     1       0.658  12.629  19.434  0.00  0.00    +0.000 NA
ATOM      9  C   UNL     1       1.145  11.452  19.183  0.00  0.00    +0.000 A 
ATOM     10  N   UNL     1       0.942  10.276  19.904  0.00  0.00    +0.000 N 
ENDROOT
BRANCH  10  11
ATOM     11  C   UNL     1       1.403   9.066  19.323  0.00  0.00    +0.000 A 
ATOM     12  C   UNL     1       1.517   8.979  17.935  0.00  0.00    +0.000 A 
ATOM     13  C   UNL     1       2.340   8.015  17.362  0.00  0.00    +0.000 A 
ATOM     14  C   UNL     1       2.974   7.102  18.215  0.00  0.00    +0.000 A 
ATOM     15  S   UNL     1       4.275   6.053  17.844  0.00  0.00    +0.000 S 
ATOM     16  C   UNL     1       3.840   5.015  19.138  0.00  0.00    +0.000 A 
ATOM     17  C   UNL     1       3.146   5.743  20.093  0.00  0.00    +0.000 A 
ATOM     18  C   UNL     1       2.661   6.994  19.568  0.00  0.00    +0.000 A 
ATOM     19  C   UNL     1       1.908   8.040  20.143  0.00  0.00    +0.000 A 
BRANCH  16  20
ATOM     20  C   UNL     1       4.339   3.601  19.155  0.00  0.00    +0.000 C 
BRANCH  20  21
ATOM     21  N   UNL     1       3.355   2.535  18.905  0.00  0.00    +0.000 NA
ATOM     22  C   UNL     1       2.359   2.751  17.843  0.00  0.00    +0.000 C 
ATOM     23  C   UNL     1       0.994   3.341  18.281  0.00  0.00    +0.000 C 
ATOM     24  O   UNL     1       0.479   2.768  19.487  0.00  0.00    +0.000 OA
ATOM     25  C   UNL     1       1.457   2.750  20.532  0.00  0.00    +0.000 C 
ATOM     26  C   UNL     1       2.699   1.973  20.089  0.00  0.00    +0.000 C 
ENDBRANCH  20  21
ENDBRANCH  16  20
ENDBRANCH  10  11
BRANCH   5  27
ATOM     27  C   UNL     1      -2.448  14.462  22.925  0.00  0.00    +0.000 A 
ATOM     28  C   UNL     1      -3.221  15.437  22.273  0.00  0.00    +0.000 A 
ATOM     29  C   UNL     1      -4.022  16.325  23.011  0.00  0.00    +0.000 A 
ATOM     30  C   UNL     1      -4.056  16.240  24.399  0.00  0.00    +0.000 A 
ATOM     31 CL   UNL     1      -5.025  17.336  25.295  0.00  0.00    +0.000 Cl
ATOM     32  C   UNL     1      -3.303  15.276  25.058  0.00  0.00    +0.000 A 
ATOM     33  C   UNL     1      -2.508  14.389  24.331  0.00  0.00    +0.000 A 
ENDBRANCH   5  27
TORSDOF 4
ENDMDL
MODEL 7
REMARK VINA RESULT:      -8.0      1.537      1.890
REMARK  Name = 
REMARK  4 active torsions:
REMARK  status: ('A' for Active; 'I' for Inactive)
REMARK    1  A    between atoms: C_5  and  C_6
REMARK    2  A    between atoms: N_17  and  C_18
REMARK    3  A    between atoms: C_23  and  C_24
REMARK    4  A    between atoms: C_24  and  N_25
REMARK                            x       y       z     vdW  Elec       q    Type
REMARK                         _______ _______ _______ _____ _____    ______ ____
ROOT
ATOM      1  O   UNL     1       0.111   9.843  18.933  0.00  0.00    +0.000 OA
ATOM      2  C   UNL     1       0.105   9.943  20.158  0.00  0.00    +0.000 A 
ATOM      3  C   UNL     1      -0.489  11.037  20.869  0.00  0.00    +0.000 A 
ATOM      4  S   UNL     1      -1.307  12.316  20.137  0.00  0.00    +0.000 S 
ATOM      5  C   UNL     1      -1.535  13.119  21.652  0.00  0.00    +0.000 A 
ATOM      6  C   UNL     1      -1.023  12.359  22.695  0.00  0.00    +0.000 A 
ATOM      7  C   UNL     1      -0.444  11.161  22.227  0.00  0.00    +0.000 A 
ATOM      8  N   UNL     1       0.155  10.213  23.057  0.00  0.00    +0.000 NA
ATOM      9  C   UNL     1       0.669   9.214  22.407  0.00  0.00    +0.000 A 
ATOM     10  N   UNL     1       0.670   9.006  21.028  0.00  0.00    +0.000 N 
ENDROOT
BRANCH  10  11
ATOM     11  C   UNL     1       1.477   7.949  20.529  0.00  0.00    +0.000 A 
ATOM     12  C   UNL     1       1.400   6.693  21.131  0.00  0.00    +0.000 A 
ATOM     13  C   UNL     1       1.821   5.562  20.439  0.00  0.00    +0.000 A 
ATOM     14  C   UNL     1       2.388   5.741  19.170  0.00  0.00    +0.000 A 
ATOM     15  S   UNL     1       2.673   4.550  17.974  0.00  0.00    +0.000 S 
ATOM     16  C   UNL     1       3.884   5.528  17.253  0.00  0.00    +0.000 A 
ATOM     17  C   UNL     1       3.637   6.858  17.560  0.00  0.00    +0.000 A 
ATOM     18  C   UNL     1       2.727   6.995  18.668  0.00  0.00    +0.000 A 
ATOM     19  C   UNL     1       2.201   8.123  19.335  0.00  0.00    +0.000 A 
BRANCH  16  20
ATOM     20  C   UNL     1       4.895   4.904  16.338  0.00  0.00    +0.000 C 
BRANCH  20  21
ATOM     21  N   UNL     1       6.237   4.654  16.887  0.00  0.00    +0.000 NA
ATOM     22  C   UNL     1       6.353   4.377  18.329  0.00  0.00    +0.000 C 
ATOM     23  C   UNL     1       6.654   5.590  19.246  0.00  0.00    +0.000 C 
ATOM     24  O   UNL     1       7.644   6.480  18.718  0.00  0.00    +0.000 OA
ATOM     25  C   UNL     1       7.369   6.843  17.361  0.00  0.00    +0.000 C 
ATOM     26  C   UNL     1       7.286   5.594  16.480  0.00  0.00    +0.000 C 
ENDBRANCH  20  21
ENDBRANCH  16  20
ENDBRANCH  10  11
BRANCH   5  27
ATOM     27  C   UNL     1      -2.220  14.421  21.698  0.00  0.00    +0.000 A 
ATOM     28  C   UNL     1      -1.611  15.558  21.142  0.00  0.00    +0.000 A 
ATOM     29  C   UNL     1      -2.248  16.810  21.198  0.00  0.00    +0.000 A 
ATOM     30  C   UNL     1      -3.495  16.929  21.805  0.00  0.00    +0.000 A 
ATOM     31 CL   UNL     1      -4.261  18.461  21.881  0.00  0.00    +0.000 Cl
ATOM     32  C   UNL     1      -4.114  15.811  22.352  0.00  0.00    +0.000 A 
ATOM     33  C   UNL     1      -3.487  14.565  22.297  0.00  0.00    +0.000 A 
ENDBRANCH   5  27
TORSDOF 4
ENDMDL
MODEL 8
REMARK VINA RESULT:      -8.0      2.269      3.196
REMARK  Name = 
REMARK  4 active torsions:
REMARK  status: ('A' for Active; 'I' for Inactive)
REMARK    1  A    between atoms: C_5  and  C_6
REMARK    2  A    between atoms: N_17  and  C_18
REMARK    3  A    between atoms: C_23  and  C_24
REMARK    4  A    between atoms: C_24  and  N_25
REMARK                            x       y       z     vdW  Elec       q    Type
REMARK                         _______ _______ _______ _____ _____    ______ ____
ROOT
ATOM      1  O   UNL     1      -1.184  10.731  18.933  0.00  0.00    +0.000 OA
ATOM      2  C   UNL     1      -0.794  10.735  20.098  0.00  0.00    +0.000 A 
ATOM      3  C   UNL     1      -1.233  11.677  21.086  0.00  0.00    +0.000 A 
ATOM      4  S   UNL     1      -2.381  12.880  20.810  0.00  0.00    +0.000 S 
ATOM      5  C   UNL     1      -2.179  13.525  22.402  0.00  0.00    +0.000 A 
ATOM      6  C   UNL     1      -1.272  12.766  23.131  0.00  0.00    +0.000 A 
ATOM      7  C   UNL     1      -0.755  11.701  22.364  0.00  0.00    +0.000 A 
ATOM      8  N   UNL     1       0.184  10.786  22.841  0.00  0.00    +0.000 NA
ATOM      9  C   UNL     1       0.558   9.922  21.948  0.00  0.00    +0.000 A 
ATOM     10  N   UNL     1       0.125   9.822  20.626  0.00  0.00    +0.000 N 
ENDROOT
BRANCH  10  11
ATOM     11  C   UNL     1       0.829   8.931  19.774  0.00  0.00    +0.000 A 
ATOM     12  C   UNL     1       1.027   9.282  18.438  0.00  0.00    +0.000 A 
ATOM     13  C   UNL     1       2.040   8.677  17.702  0.00  0.00    +0.000 A 
ATOM     14  C   UNL     1       2.786   7.665  18.319  0.00  0.00    +0.000 A 
ATOM     15  S   UNL     1       4.274   6.996  17.799  0.00  0.00    +0.000 S 
ATOM     16  C   UNL     1       3.972   5.564  18.693  0.00  0.00    +0.000 A 
ATOM     17  C   UNL     1       3.109   5.854  19.739  0.00  0.00    +0.000 A 
ATOM     18  C   UNL     1       2.430   7.110  19.546  0.00  0.00    +0.000 A 
ATOM     19  C   UNL     1       1.470   7.802  20.315  0.00  0.00    +0.000 A 
BRANCH  16  20
ATOM     20  C   UNL     1       4.719   4.308  18.357  0.00  0.00    +0.000 C 
BRANCH  20  21
ATOM     21  N   UNL     1       3.933   3.168  17.859  0.00  0.00    +0.000 NA
ATOM     22  C   UNL     1       2.689   3.455  17.126  0.00  0.00    +0.000 C 
ATOM     23  C   UNL     1       1.380   3.463  17.957  0.00  0.00    +0.000 C 
ATOM     24  O   UNL     1       1.292   2.394  18.905  0.00  0.00    +0.000 OA
ATOM     25  C   UNL     1       2.476   2.286  19.702  0.00  0.00    +0.000 C 
ATOM     26  C   UNL     1       3.704   2.077  18.811  0.00  0.00    +0.000 C 
ENDBRANCH  20  21
ENDBRANCH  16  20
ENDBRANCH  10  11
BRANCH   5  27
ATOM     27  C   UNL     1      -2.946  14.710  22.819  0.00  0.00    +0.000 A 
ATOM     28  C   UNL     1      -2.880  15.162  24.147  0.00  0.00    +0.000 A 
ATOM     29  C   UNL     1      -3.623  16.281  24.560  0.00  0.00    +0.000 A 
ATOM     30  C   UNL     1      -4.430  16.953  23.648  0.00  0.00    +0.000 A 
ATOM     31 CL   UNL     1      -5.345  18.310  24.161  0.00  0.00    +0.000 Cl
ATOM     32  C   UNL     1      -4.500  16.524  22.328  0.00  0.00    +0.000 A 
ATOM     33  C   UNL     1      -3.762  15.415  21.912  0.00  0.00    +0.000 A 
ENDBRANCH   5  27
TORSDOF 4
ENDMDL
MODEL 9
REMARK VINA RESULT:      -7.8      1.381      1.885
REMARK  Name = 
REMARK  4 active torsions:
REMARK  status: ('A' for Active; 'I' for Inactive)
REMARK    1  A    between atoms: C_5  and  C_6
REMARK    2  A    between atoms: N_17  and  C_18
REMARK    3  A    between atoms: C_23  and  C_24
REMARK    4  A    between atoms: C_24  and  N_25
REMARK                            x       y       z     vdW  Elec       q    Type
REMARK                         _______ _______ _______ _____ _____    ______ ____
ROOT
ATOM      1  O   UNL     1       0.542  11.495  22.332  0.00  0.00    +0.000 OA
ATOM      2  C   UNL     1      -0.258  11.546  21.402  0.00  0.00    +0.000 A 
ATOM      3  C   UNL     1      -1.367  12.453  21.348  0.00  0.00    +0.000 A 
ATOM      4  S   UNL     1      -1.706  13.612  22.524  0.00  0.00    +0.000 S 
ATOM      5  C   UNL     1      -3.161  14.091  21.721  0.00  0.00    +0.000 A 
ATOM      6  C   UNL     1      -3.326  13.387  20.536  0.00  0.00    +0.000 A 
ATOM      7  C   UNL     1      -2.278  12.465  20.332  0.00  0.00    +0.000 A 
ATOM      8  N   UNL     1      -2.194  11.617  19.228  0.00  0.00    +0.000 NA
ATOM      9  C   UNL     1      -1.174  10.817  19.272  0.00  0.00    +0.000 A 
ATOM     10  N   UNL     1      -0.198  10.734  20.265  0.00  0.00    +0.000 N 
ENDROOT
BRANCH  10  11
ATOM     11  C   UNL     1       0.704   9.639  20.205  0.00  0.00    +0.000 A 
ATOM     12  C   UNL     1       0.854   8.820  21.325  0.00  0.00    +0.000 A 
ATOM     13  C   UNL     1       1.370   7.536  21.184  0.00  0.00    +0.000 A 
ATOM     14  C   UNL     1       1.798   7.136  19.912  0.00  0.00    +0.000 A 
ATOM     15  S   UNL     1       2.147   5.547  19.378  0.00  0.00    +0.000 S 
ATOM     16  C   UNL     1       3.145   6.161  18.124  0.00  0.00    +0.000 A 
ATOM     17  C   UNL     1       2.741   7.450  17.811  0.00  0.00    +0.000 A 
ATOM     18  C   UNL     1       1.916   8.022  18.845  0.00  0.00    +0.000 A 
ATOM     19  C   UNL     1       1.295   9.283  18.979  0.00  0.00    +0.000 A 
BRANCH  16  20
ATOM     20  C   UNL     1       4.153   5.264  17.472  0.00  0.00    +0.000 C 
BRANCH  20  21
ATOM     21  N   UNL     1       5.309   5.906  16.825  0.00  0.00    +0.000 NA
ATOM     22  C   UNL     1       5.761   5.371  15.531  0.00  0.00    +0.000 C 
ATOM     23  C   UNL     1       6.896   4.316  15.575  0.00  0.00    +0.000 C 
ATOM     24  O   UNL     1       7.943   4.633  16.499  0.00  0.00    +0.000 OA
ATOM     25  C   UNL     1       7.431   4.978  17.790  0.00  0.00    +0.000 C 
ATOM     26  C   UNL     1       6.468   6.163  17.685  0.00  0.00    +0.000 C 
ENDBRANCH  20  21
ENDBRANCH  16  20
ENDBRANCH  10  11
BRANCH   5  27
ATOM     27  C   UNL     1      -4.013  15.140  22.306  0.00  0.00    +0.000 A 
ATOM     28  C   UNL     1      -3.832  16.483  21.936  0.00  0.00    +0.000 A 
ATOM     29  C   UNL     1      -4.626  17.494  22.503  0.00  0.00    +0.000 A 
ATOM     30  C   UNL     1      -5.605  17.167  23.436  0.00  0.00    +0.000 A 
ATOM     31 CL   UNL     1      -6.563  18.408  24.134  0.00  0.00    +0.000 Cl
ATOM     32  C   UNL     1      -5.802  15.843  23.807  0.00  0.00    +0.000 A 
ATOM     33  C   UNL     1      -5.018  14.834  23.245  0.00  0.00    +0.000 A 
ENDBRANCH   5  27
TORSDOF 4
ENDMDL
