MODEL 1
REMARK VINA RESULT:      -5.8      0.000      0.000
REMARK  Name = 
REMARK  5 active torsions:
REMARK  status: ('A' for Active; 'I' for Inactive)
REMARK    1  A    between atoms: C_1  and  N_2
REMARK    2  A    between atoms: N_2  and  C_3
REMARK    3  A    between atoms: C_3  and  C_4
REMARK    4  A    between atoms: C_3  and  C_5
REMARK    5  A    between atoms: C_5  and  C_7
REMARK                            x       y       z     vdW  Elec       q    Type
REMARK                         _______ _______ _______ _____ _____    ______ ____
ROOT
ATOM      1  C   UNL     1       5.682   5.804  16.514  0.00  0.00    +0.000 C 
ATOM      2  O   UNL     1       5.877   6.957  16.149  0.00  0.00    +0.000 OA
ENDROOT
BRANCH   1   3
ATOM      3  C   UNL     1       4.366   5.485  17.159  0.00  0.00    +0.000 A 
ATOM      4  C   UNL     1       3.564   6.470  17.773  0.00  0.00    +0.000 A 
ATOM      5  C   UNL     1       2.348   6.127  18.371  0.00  0.00    +0.000 A 
ATOM      6  C   UNL     1       1.915   4.801  18.381  0.00  0.00    +0.000 A 
ATOM      7  C   UNL     1       2.701   3.808  17.791  0.00  0.00    +0.000 A 
ATOM      8 CL   UNL     1       2.169   2.137  17.814  0.00  0.00    +0.000 Cl
ATOM      9  C   UNL     1       3.914   4.148  17.181  0.00  0.00    +0.000 A 
ENDBRANCH   1   3
BRANCH   1  10
ATOM     10  C   UNL     1       6.773   4.766  16.249  0.00  0.00    +0.000 C 
ATOM     11  C   UNL     1       7.658   4.597  17.503  0.00  0.00    +0.000 C 
BRANCH  10  13
ATOM     12  C   UNL     1       7.075   4.733  13.801  0.00  0.00    +0.000 C 
ATOM     13  N   UNL     1       7.593   5.195  15.092  0.00  0.00    +0.000 NA
ATOM     14  H   UNL     1       7.578   6.242  15.045  0.00  0.00    +0.000 HD
ENDBRANCH  10  13
ENDBRANCH   1  10
TORSDOF 3
ENDMDL
MODEL 2
REMARK VINA RESULT:      -5.7      3.543      5.379
REMARK  Name = 
REMARK  5 active torsions:
REMARK  status: ('A' for Active; 'I' for Inactive)
REMARK    1  A    between atoms: C_1  and  N_2
REMARK    2  A    between atoms: N_2  and  C_3
REMARK    3  A    between atoms: C_3  and  C_4
REMARK    4  A    between atoms: C_3  and  C_5
REMARK    5  A    between atoms: C_5  and  C_7
REMARK                            x       y       z     vdW  Elec       q    Type
REMARK                         _______ _______ _______ _____ _____    ______ ____
ROOT
ATOM      1  C   UNL     1       3.933   3.228  18.128  0.00  0.00    +0.000 C 
ATOM      2  O   UNL     1       4.233   2.645  19.162  0.00  0.00    +0.000 OA
ENDROOT
BRANCH   1   3
ATOM      3  C   UNL     1       4.976   4.086  17.476  0.00  0.00    +0.000 A 
ATOM      4  C   UNL     1       5.125   4.166  16.076  0.00  0.00    +0.000 A 
ATOM      5  C   UNL     1       6.117   4.971  15.510  0.00  0.00    +0.000 A 
ATOM      6  C   UNL     1       6.984   5.700  16.324  0.00  0.00    +0.000 A 
ATOM      7  C   UNL     1       6.863   5.624  17.714  0.00  0.00    +0.000 A 
ATOM      8 CL   UNL     1       7.961   6.524  18.743  0.00  0.00    +0.000 Cl
ATOM      9  C   UNL     1       5.864   4.827  18.285  0.00  0.00    +0.000 A 
ENDBRANCH   1   3
BRANCH   1  10
ATOM     10  C   UNL     1       2.533   3.005  17.552  0.00  0.00    +0.000 C 
ATOM     11  C   UNL     1       1.695   4.295  17.688  0.00  0.00    +0.000 C 
BRANCH  10  13
ATOM     12  C   UNL     1       0.695   2.289  19.032  0.00  0.00    +0.000 C 
ATOM     13  N   UNL     1       1.877   1.885  18.265  0.00  0.00    +0.000 NA
ATOM     14  H   UNL     1       1.533   1.195  17.555  0.00  0.00    +0.000 HD
ENDBRANCH  10  13
ENDBRANCH   1  10
TORSDOF 3
ENDMDL
MODEL 3
REMARK VINA RESULT:      -5.7      1.945      2.439
REMARK  Name = 
REMARK  5 active torsions:
REMARK  status: ('A' for Active; 'I' for Inactive)
REMARK    1  A    between atoms: C_1  and  N_2
REMARK    2  A    between atoms: N_2  and  C_3
REMARK    3  A    between atoms: C_3  and  C_4
REMARK    4  A    between atoms: C_3  and  C_5
REMARK    5  A    between atoms: C_5  and  C_7
REMARK                            x       y       z     vdW  Elec       q    Type
REMARK                         _______ _______ _______ _____ _____    ______ ____
ROOT
ATOM      1  C   UNL     1       6.018   4.817  17.798  0.00  0.00    +0.000 C 
ATOM      2  O   UNL     1       6.816   4.387  18.621  0.00  0.00    +0.000 OA
ENDROOT
BRANCH   1   3
ATOM      3  C   UNL     1       4.565   4.510  18.002  0.00  0.00    +0.000 A 
ATOM      4  C   UNL     1       3.845   3.646  17.149  0.00  0.00    +0.000 A 
ATOM      5  C   UNL     1       2.489   3.394  17.370  0.00  0.00    +0.000 A 
ATOM      6  C   UNL     1       1.821   4.005  18.431  0.00  0.00    +0.000 A 
ATOM      7  C   UNL     1       2.511   4.875  19.279  0.00  0.00    +0.000 A 
ATOM      8 CL   UNL     1       1.672   5.659  20.605  0.00  0.00    +0.000 Cl
ATOM      9  C   UNL     1       3.873   5.122  19.068  0.00  0.00    +0.000 A 
ENDBRANCH   1   3
BRANCH   1  10
ATOM     10  C   UNL     1       6.554   5.670  16.647  0.00  0.00    +0.000 C 
ATOM     11  C   UNL     1       5.383   6.350  15.904  0.00  0.00    +0.000 C 
BRANCH  10  13
ATOM     12  C   UNL     1       6.566   4.378  14.546  0.00  0.00    +0.000 C 
ATOM     13  N   UNL     1       7.330   4.816  15.718  0.00  0.00    +0.000 NA
ATOM     14  H   UNL     1       8.130   5.377  15.341  0.00  0.00    +0.000 HD
ENDBRANCH  10  13
ENDBRANCH   1  10
TORSDOF 3
ENDMDL
MODEL 4
REMARK VINA RESULT:      -5.7      1.578      1.637
REMARK  Name = 
REMARK  5 active torsions:
REMARK  status: ('A' for Active; 'I' for Inactive)
REMARK    1  A    between atoms: C_1  and  N_2
REMARK    2  A    between atoms: N_2  and  C_3
REMARK    3  A    between atoms: C_3  and  C_4
REMARK    4  A    between atoms: C_3  and  C_5
REMARK    5  A    between atoms: C_5  and  C_7
REMARK                            x       y       z     vdW  Elec       q    Type
REMARK                         _______ _______ _______ _____ _____    ______ ____
ROOT
ATOM      1  C   UNL     1       6.451   5.195  18.072  0.00  0.00    +0.000 C 
ATOM      2  O   UNL     1       7.034   4.650  19.001  0.00  0.00    +0.000 OA
ENDROOT
BRANCH   1   3
ATOM      3  C   UNL     1       4.956   5.096  18.026  0.00  0.00    +0.000 A 
ATOM      4  C   UNL     1       4.117   6.225  18.149  0.00  0.00    +0.000 A 
ATOM      5  C   UNL     1       2.727   6.087  18.110  0.00  0.00    +0.000 A 
ATOM      6  C   UNL     1       2.147   4.828  17.961  0.00  0.00    +0.000 A 
ATOM      7  C   UNL     1       2.958   3.696  17.852  0.00  0.00    +0.000 A 
ATOM      8 CL   UNL     1       2.233   2.108  17.681  0.00  0.00    +0.000 Cl
ATOM      9  C   UNL     1       4.351   3.830  17.879  0.00  0.00    +0.000 A 
ENDBRANCH   1   3
BRANCH   1  10
ATOM     10  C   UNL     1       7.285   5.971  17.051  0.00  0.00    +0.000 C 
ATOM     11  C   UNL     1       7.486   7.426  17.529  0.00  0.00    +0.000 C 
BRANCH  10  13
ATOM     12  C   UNL     1       6.971   4.801  14.902  0.00  0.00    +0.000 C 
ATOM     13  N   UNL     1       6.602   5.949  15.737  0.00  0.00    +0.000 NA
ATOM     14  H   UNL     1       5.571   5.861  15.900  0.00  0.00    +0.000 HD
ENDBRANCH  10  13
ENDBRANCH   1  10
TORSDOF 3
ENDMDL
MODEL 5
REMARK VINA RESULT:      -5.7      1.343      1.719
REMARK  Name = 
REMARK  5 active torsions:
REMARK  status: ('A' for Active; 'I' for Inactive)
REMARK    1  A    between atoms: C_1  and  N_2
REMARK    2  A    between atoms: N_2  and  C_3
REMARK    3  A    between atoms: C_3  and  C_4
REMARK    4  A    between atoms: C_3  and  C_5
REMARK    5  A    between atoms: C_5  and  C_7
REMARK                            x       y       z     vdW  Elec       q    Type
REMARK                         _______ _______ _______ _____ _____    ______ ____
ROOT
ATOM      1  C   UNL     1       5.813   4.754  15.989  0.00  0.00    +0.000 C 
ATOM      2  O   UNL     1       5.724   4.287  14.860  0.00  0.00    +0.000 OA
ENDROOT
BRANCH   1   3
ATOM      3  C   UNL     1       4.555   4.889  16.794  0.00  0.00    +0.000 A 
ATOM      4  C   UNL     1       4.102   6.129  17.291  0.00  0.00    +0.000 A 
ATOM      5  C   UNL     1       2.929   6.209  18.046  0.00  0.00    +0.000 A 
ATOM      6  C   UNL     1       2.193   5.059  18.330  0.00  0.00    +0.000 A 
ATOM      7  C   UNL     1       2.631   3.819  17.860  0.00  0.00    +0.000 A 
ATOM      8 CL   UNL     1       1.719   2.367  18.229  0.00  0.00    +0.000 Cl
ATOM      9  C   UNL     1       3.800   3.735  17.095  0.00  0.00    +0.000 A 
ENDBRANCH   1   3
BRANCH   1  10
ATOM     10  C   UNL     1       7.201   5.125  16.512  0.00  0.00    +0.000 C 
ATOM     11  C   UNL     1       7.338   4.707  17.992  0.00  0.00    +0.000 C 
BRANCH  10  13
ATOM     12  C   UNL     1       7.585   7.283  17.642  0.00  0.00    +0.000 C 
ATOM     13  N   UNL     1       7.411   6.584  16.365  0.00  0.00    +0.000 NA
ATOM     14  H   UNL     1       8.301   6.740  15.833  0.00  0.00    +0.000 HD
ENDBRANCH  10  13
ENDBRANCH   1  10
TORSDOF 3
ENDMDL
MODEL 6
REMARK VINA RESULT:      -5.7      3.375      5.079
REMARK  Name = 
REMARK  5 active torsions:
REMARK  status: ('A' for Active; 'I' for Inactive)
REMARK    1  A    between atoms: C_1  and  N_2
REMARK    2  A    between atoms: N_2  and  C_3
REMARK    3  A    between atoms: C_3  and  C_4
REMARK    4  A    between atoms: C_3  and  C_5
REMARK    5  A    between atoms: C_5  and  C_7
REMARK                            x       y       z     vdW  Elec       q    Type
REMARK                         _______ _______ _______ _____ _____    ______ ____
ROOT
ATOM      1  C   UNL     1       4.088   3.547  18.958  0.00  0.00    +0.000 C 
ATOM      2  O   UNL     1       4.973   2.997  19.602  0.00  0.00    +0.000 OA
ENDROOT
BRANCH   1   3
ATOM      3  C   UNL     1       4.497   4.462  17.843  0.00  0.00    +0.000 A 
ATOM      4  C   UNL     1       4.465   5.868  17.965  0.00  0.00    +0.000 A 
ATOM      5  C   UNL     1       4.845   6.684  16.897  0.00  0.00    +0.000 A 
ATOM      6  C   UNL     1       5.250   6.121  15.686  0.00  0.00    +0.000 A 
ATOM      7  C   UNL     1       5.275   4.732  15.540  0.00  0.00    +0.000 A 
ATOM      8 CL   UNL     1       5.768   4.019  14.015  0.00  0.00    +0.000 Cl
ATOM      9  C   UNL     1       4.906   3.910  16.610  0.00  0.00    +0.000 A 
ENDBRANCH   1   3
BRANCH   1  10
ATOM     10  C   UNL     1       2.634   3.229  19.308  0.00  0.00    +0.000 C 
ATOM     11  C   UNL     1       1.710   3.624  18.135  0.00  0.00    +0.000 C 
BRANCH  10  13
ATOM     12  C   UNL     1       1.838   3.086  21.639  0.00  0.00    +0.000 C 
ATOM     13  N   UNL     1       2.250   3.962  20.537  0.00  0.00    +0.000 NA
ATOM     14  H   UNL     1       3.089   4.483  20.889  0.00  0.00    +0.000 HD
ENDBRANCH  10  13
ENDBRANCH   1  10
TORSDOF 3
ENDMDL
MODEL 7
REMARK VINA RESULT:      -5.6      1.557      2.034
REMARK  Name = 
REMARK  5 active torsions:
REMARK  status: ('A' for Active; 'I' for Inactive)
REMARK    1  A    between atoms: C_1  and  N_2
REMARK    2  A    between atoms: N_2  and  C_3
REMARK    3  A    between atoms: C_3  and  C_4
REMARK    4  A    between atoms: C_3  and  C_5
REMARK    5  A    between atoms: C_5  and  C_7
REMARK                            x       y       z     vdW  Elec       q    Type
REMARK                         _______ _______ _______ _____ _____    ______ ____
ROOT
ATOM      1  C   UNL     1       5.469   5.654  16.349  0.00  0.00    +0.000 C 
ATOM      2  O   UNL     1       5.472   6.736  15.776  0.00  0.00    +0.000 OA
ENDROOT
BRANCH   1   3
ATOM      3  C   UNL     1       4.271   5.301  17.179  0.00  0.00    +0.000 A 
ATOM      4  C   UNL     1       3.585   4.076  17.039  0.00  0.00    +0.000 A 
ATOM      5  C   UNL     1       2.466   3.792  17.827  0.00  0.00    +0.000 A 
ATOM      6  C   UNL     1       2.003   4.723  18.757  0.00  0.00    +0.000 A 
ATOM      7  C   UNL     1       2.659   5.948  18.901  0.00  0.00    +0.000 A 
ATOM      8 CL   UNL     1       2.070   7.129  20.057  0.00  0.00    +0.000 Cl
ATOM      9  C   UNL     1       3.786   6.233  18.122  0.00  0.00    +0.000 A 
ENDBRANCH   1   3
BRANCH   1  10
ATOM     10  C   UNL     1       6.665   4.723  16.143  0.00  0.00    +0.000 C 
ATOM     11  C   UNL     1       7.490   4.628  17.446  0.00  0.00    +0.000 C 
BRANCH  10  13
ATOM     12  C   UNL     1       7.128   4.705  13.721  0.00  0.00    +0.000 C 
ATOM     13  N   UNL     1       7.505   5.234  15.035  0.00  0.00    +0.000 NA
ATOM     14  H   UNL     1       7.374   6.272  14.972  0.00  0.00    +0.000 HD
ENDBRANCH  10  13
ENDBRANCH   1  10
TORSDOF 3
ENDMDL
MODEL 8
REMARK VINA RESULT:      -5.6      1.812      2.174
REMARK  Name = 
REMARK  5 active torsions:
REMARK  status: ('A' for Active; 'I' for Inactive)
REMARK    1  A    between atoms: C_1  and  N_2
REMARK    2  A    between atoms: N_2  and  C_3
REMARK    3  A    between atoms: C_3  and  C_4
REMARK    4  A    between atoms: C_3  and  C_5
REMARK    5  A    between atoms: C_5  and  C_7
REMARK                            x       y       z     vdW  Elec       q    Type
REMARK                         _______ _______ _______ _____ _____    ______ ____
ROOT
ATOM      1  C   UNL     1       6.225   5.967  16.431  0.00  0.00    +0.000 C 
ATOM      2  O   UNL     1       6.429   5.680  15.258  0.00  0.00    +0.000 OA
ENDROOT
BRANCH   1   3
ATOM      3  C   UNL     1       4.860   5.698  16.992  0.00  0.00    +0.000 A 
ATOM      4  C   UNL     1       4.057   6.715  17.551  0.00  0.00    +0.000 A 
ATOM      5  C   UNL     1       2.795   6.419  18.072  0.00  0.00    +0.000 A 
ATOM      6  C   UNL     1       2.314   5.110  18.058  0.00  0.00    +0.000 A 
ATOM      7  C   UNL     1       3.099   4.086  17.522  0.00  0.00    +0.000 A 
ATOM      8 CL   UNL     1       2.507   2.435  17.517  0.00  0.00    +0.000 Cl
ATOM      9  C   UNL     1       4.360   4.379  16.989  0.00  0.00    +0.000 A 
ENDBRANCH   1   3
BRANCH   1  10
ATOM     10  C   UNL     1       7.384   6.537  17.249  0.00  0.00    +0.000 C 
ATOM     11  C   UNL     1       7.357   5.955  18.680  0.00  0.00    +0.000 C 
BRANCH  10  13
ATOM     12  C   UNL     1       8.326   8.654  18.094  0.00  0.00    +0.000 C 
ATOM     13  N   UNL     1       7.281   8.014  17.290  0.00  0.00    +0.000 NA
ATOM     14  H   UNL     1       7.407   8.382  16.317  0.00  0.00    +0.000 HD
ENDBRANCH  10  13
ENDBRANCH   1  10
TORSDOF 3
ENDMDL
MODEL 9
REMARK VINA RESULT:      -5.6      2.096      2.674
REMARK  Name = 
REMARK  5 active torsions:
REMARK  status: ('A' for Active; 'I' for Inactive)
REMARK    1  A    between atoms: C_1  and  N_2
REMARK    2  A    between atoms: N_2  and  C_3
REMARK    3  A    between atoms: C_3  and  C_4
REMARK    4  A    between atoms: C_3  and  C_5
REMARK    5  A    between atoms: C_5  and  C_7
REMARK                            x       y       z     vdW  Elec       q    Type
REMARK                         _______ _______ _______ _____ _____    ______ ____
ROOT
ATOM      1  C   UNL     1       5.916   4.393  16.196  0.00  0.00    +0.000 C 
ATOM      2  O   UNL     1       5.926   3.787  15.132  0.00  0.00    +0.000 OA
ENDROOT
BRANCH   1   3
ATOM      3  C   UNL     1       4.604   4.543  16.907  0.00  0.00    +0.000 A 
ATOM      4  C   UNL     1       3.794   3.438  17.244  0.00  0.00    +0.000 A 
ATOM      5  C   UNL     1       2.574   3.623  17.899  0.00  0.00    +0.000 A 
ATOM      6  C   UNL     1       2.131   4.907  18.218  0.00  0.00    +0.000 A 
ATOM      7  C   UNL     1       2.911   6.015  17.881  0.00  0.00    +0.000 A 
ATOM      8 CL   UNL     1       2.352   7.633  18.265  0.00  0.00    +0.000 Cl
ATOM      9  C   UNL     1       4.140   5.835  17.235  0.00  0.00    +0.000 A 
ENDBRANCH   1   3
BRANCH   1  10
ATOM     10  C   UNL     1       7.245   4.917  16.743  0.00  0.00    +0.000 C 
ATOM     11  C   UNL     1       7.274   4.779  18.281  0.00  0.00    +0.000 C 
BRANCH  10  13
ATOM     12  C   UNL     1       7.532   7.252  17.485  0.00  0.00    +0.000 C 
ATOM     13  N   UNL     1       7.419   6.333  16.347  0.00  0.00    +0.000 NA
ATOM     14  H   UNL     1       8.320   6.423  15.820  0.00  0.00    +0.000 HD
ENDBRANCH  10  13
ENDBRANCH   1  10
TORSDOF 3
ENDMDL
