MODEL 1
REMARK VINA RESULT:      -8.4      0.000      0.000
REMARK  Name = 
REMARK  5 active torsions:
REMARK  status: ('A' for Active; 'I' for Inactive)
REMARK    1  A    between atoms: C_2  and  C_25
REMARK    2  A    between atoms: N_3  and  C_4
REMARK    3  A    between atoms: C_4  and  C_5
REMARK    4  A    between atoms: C_4  and  C_8
REMARK    5  A    between atoms: C_11  and  N_12
REMARK                            x       y       z     vdW  Elec       q    Type
REMARK                         _______ _______ _______ _____ _____    ______ ____
ROOT
ATOM      1  C   UNL     1       3.038   5.812  20.099  0.00  0.00    +0.000 C 
ATOM      2  C   UNL     1       2.946   7.079  19.349  0.00  0.00    +0.000 C 
ATOM      3  C   UNL     1       2.144   7.731  18.274  0.00  0.00    +0.000 C 
ATOM      4  C   UNL     1       1.149   8.612  19.098  0.00  0.00    +0.000 C 
ATOM      5  C   UNL     1       1.324   8.088  20.563  0.00  0.00    +0.000 C 
ATOM      6  C   UNL     1       1.821   6.687  20.346  0.00  0.00    +0.000 C 
ENDROOT
BRANCH   4   7
ATOM      7  N   UNL     1       1.346  10.039  18.925  0.00  0.00    +0.000 N 
ATOM      8  C   UNL     1       2.354  10.621  18.201  0.00  0.00    +0.000 A 
ATOM      9  N   UNL     1       2.197  11.919  18.090  0.00  0.00    +0.000 NA
ATOM     10  C   UNL     1       1.049  12.207  18.778  0.00  0.00    +0.000 A 
ATOM     11  C   UNL     1       0.412  13.445  18.954  0.00  0.00    +0.000 A 
ATOM     12  C   UNL     1      -0.755  13.482  19.713  0.00  0.00    +0.000 A 
ATOM     13  F   UNL     1      -1.382  14.655  19.883  0.00  0.00    +0.000 F 
ATOM     14  C   UNL     1      -1.278  12.330  20.288  0.00  0.00    +0.000 A 
ATOM     15  F   UNL     1      -2.400  12.401  21.019  0.00  0.00    +0.000 F 
ATOM     16  C   UNL     1      -0.666  11.083  20.118  0.00  0.00    +0.000 A 
ATOM     17  C   UNL     1       0.502  11.051  19.341  0.00  0.00    +0.000 A 
ENDBRANCH   4   7
BRANCH   1  18
ATOM     18  C   UNL     1       2.956   4.493  19.354  0.00  0.00    +0.000 C 
BRANCH  18  21
ATOM     19  O   UNL     1       5.647   3.825  18.947  0.00  0.00    +0.000 OA
ATOM     20  C   UNL     1       4.999   4.252  18.000  0.00  0.00    +0.000 C 
ATOM     21  N   UNL     1       3.674   4.612  18.098  0.00  0.00    +0.000 N 
ATOM     22  H   UNL     1       3.143   4.836  17.268  0.00  0.00    +0.000 HD
BRANCH  20  23
ATOM     23  C   UNL     1       5.646   4.371  16.662  0.00  0.00    +0.000 A 
ATOM     24  C   UNL     1       6.969   4.837  16.617  0.00  0.00    +0.000 A 
ATOM     25  C   UNL     1       7.613   5.037  15.394  0.00  0.00    +0.000 A 
ATOM     26  C   UNL     1       6.933   4.778  14.207  0.00  0.00    +0.000 A 
ATOM     27 CL   UNL     1       7.709   5.062  12.699  0.00  0.00    +0.000 Cl
ATOM     28  C   UNL     1       5.620   4.306  14.235  0.00  0.00    +0.000 A 
ATOM     29  C   UNL     1       4.972   4.101  15.462  0.00  0.00    +0.000 A 
ENDBRANCH  20  23
ENDBRANCH  18  21
BRANCH  18  30
ATOM     30  C   UNL     1       1.523   4.121  19.050  0.00  0.00    +0.000 C 
ATOM     31  C   UNL     1       1.153   2.712  18.643  0.00  0.00    +0.000 C 
ATOM     32  C   UNL     1       0.759   3.224  19.998  0.00  0.00    +0.000 C 
ENDBRANCH  18  30
ENDBRANCH   1  18
TORSDOF 5
ENDMDL
MODEL 2
REMARK VINA RESULT:      -8.2      0.518      1.010
REMARK  Name = 
REMARK  5 active torsions:
REMARK  status: ('A' for Active; 'I' for Inactive)
REMARK    1  A    between atoms: C_2  and  C_25
REMARK    2  A    between atoms: N_3  and  C_4
REMARK    3  A    between atoms: C_4  and  C_5
REMARK    4  A    between atoms: C_4  and  C_8
REMARK    5  A    between atoms: C_11  and  N_12
REMARK                            x       y       z     vdW  Elec       q    Type
REMARK                         _______ _______ _______ _____ _____    ______ ____
ROOT
ATOM      1  C   UNL     1       3.105   5.636  20.042  0.00  0.00    +0.000 C 
ATOM      2  C   UNL     1       3.007   6.938  19.357  0.00  0.00    +0.000 C 
ATOM      3  C   UNL     1       2.198   7.642  18.320  0.00  0.00    +0.000 C 
ATOM      4  C   UNL     1       1.206   8.479  19.192  0.00  0.00    +0.000 C 
ATOM      5  C   UNL     1       1.390   7.882  20.628  0.00  0.00    +0.000 C 
ATOM      6  C   UNL     1       1.888   6.495  20.339  0.00  0.00    +0.000 C 
ENDROOT
BRANCH   4   7
ATOM      7  N   UNL     1       1.401   9.913  19.089  0.00  0.00    +0.000 N 
ATOM      8  C   UNL     1       2.230  10.542  18.198  0.00  0.00    +0.000 A 
ATOM      9  N   UNL     1       2.090  11.846  18.228  0.00  0.00    +0.000 NA
ATOM     10  C   UNL     1       1.142  12.089  19.185  0.00  0.00    +0.000 A 
ATOM     11  C   UNL     1       0.601  13.314  19.601  0.00  0.00    +0.000 A 
ATOM     12  C   UNL     1      -0.358  13.301  20.612  0.00  0.00    +0.000 A 
ATOM     13  F   UNL     1      -0.893  14.463  21.014  0.00  0.00    +0.000 F 
ATOM     14  C   UNL     1      -0.768  12.111  21.201  0.00  0.00    +0.000 A 
ATOM     15  F   UNL     1      -1.688  12.134  22.176  0.00  0.00    +0.000 F 
ATOM     16  C   UNL     1      -0.249  10.876  20.796  0.00  0.00    +0.000 A 
ATOM     17  C   UNL     1       0.706  10.895  19.769  0.00  0.00    +0.000 A 
ENDBRANCH   4   7
BRANCH   1  18
ATOM     18  C   UNL     1       3.021   4.355  19.233  0.00  0.00    +0.000 C 
BRANCH  18  21
ATOM     19  O   UNL     1       5.761   3.941  18.813  0.00  0.00    +0.000 OA
ATOM     20  C   UNL     1       5.072   4.308  17.870  0.00  0.00    +0.000 C 
ATOM     21  N   UNL     1       3.719   4.543  17.974  0.00  0.00    +0.000 N 
ATOM     22  H   UNL     1       3.167   4.718  17.147  0.00  0.00    +0.000 HD
BRANCH  20  23
ATOM     23  C   UNL     1       5.700   4.490  16.529  0.00  0.00    +0.000 A 
ATOM     24  C   UNL     1       4.962   4.089  15.405  0.00  0.00    +0.000 A 
ATOM     25  C   UNL     1       5.516   4.167  14.125  0.00  0.00    +0.000 A 
ATOM     26  C   UNL     1       6.815   4.640  13.964  0.00  0.00    +0.000 A 
ATOM     27 CL   UNL     1       7.514   4.699  12.394  0.00  0.00    +0.000 Cl
ATOM     28  C   UNL     1       7.558   5.050  15.072  0.00  0.00    +0.000 A 
ATOM     29  C   UNL     1       7.004   4.976  16.358  0.00  0.00    +0.000 A 
ENDBRANCH  20  23
ENDBRANCH  18  21
BRANCH  18  30
ATOM     30  C   UNL     1       1.587   3.987  18.931  0.00  0.00    +0.000 C 
ATOM     31  C   UNL     1       1.189   2.552  18.665  0.00  0.00    +0.000 C 
ATOM     32  C   UNL     1       0.776   3.215  19.947  0.00  0.00    +0.000 C 
ENDBRANCH  18  30
ENDBRANCH   1  18
TORSDOF 5
ENDMDL
MODEL 3
REMARK VINA RESULT:      -7.6      5.612     10.461
REMARK  Name = 
REMARK  5 active torsions:
REMARK  status: ('A' for Active; 'I' for Inactive)
REMARK    1  A    between atoms: C_2  and  C_25
REMARK    2  A    between atoms: N_3  and  C_4
REMARK    3  A    between atoms: C_4  and  C_5
REMARK    4  A    between atoms: C_4  and  C_8
REMARK    5  A    between atoms: C_11  and  N_12
REMARK                            x       y       z     vdW  Elec       q    Type
REMARK                         _______ _______ _______ _____ _____    ______ ____
ROOT
ATOM      1  C   UNL     1       0.145   9.436  20.155  0.00  0.00    +0.000 C 
ATOM      2  C   UNL     1       0.897   8.634  19.171  0.00  0.00    +0.000 C 
ATOM      3  C   UNL     1       2.269   8.483  18.608  0.00  0.00    +0.000 C 
ATOM      4  C   UNL     1       2.824   7.268  19.422  0.00  0.00    +0.000 C 
ATOM      5  C   UNL     1       1.778   7.093  20.575  0.00  0.00    +0.000 C 
ATOM      6  C   UNL     1       1.191   8.471  20.688  0.00  0.00    +0.000 C 
ENDROOT
BRANCH   4   7
ATOM      7  N   UNL     1       3.062   6.083  18.619  0.00  0.00    +0.000 N 
ATOM      8  C   UNL     1       2.143   5.102  18.355  0.00  0.00    +0.000 A 
ATOM      9  N   UNL     1       2.586   4.232  17.478  0.00  0.00    +0.000 NA
ATOM     10  C   UNL     1       3.851   4.647  17.162  0.00  0.00    +0.000 A 
ATOM     11  C   UNL     1       4.763   4.087  16.254  0.00  0.00    +0.000 A 
ATOM     12  C   UNL     1       6.008   4.695  16.112  0.00  0.00    +0.000 A 
ATOM     13  F   UNL     1       6.887   4.179  15.240  0.00  0.00    +0.000 F 
ATOM     14  C   UNL     1       6.348   5.823  16.850  0.00  0.00    +0.000 A 
ATOM     15  F   UNL     1       7.558   6.379  16.695  0.00  0.00    +0.000 F 
ATOM     16  C   UNL     1       5.452   6.403  17.755  0.00  0.00    +0.000 A 
ATOM     17  C   UNL     1       4.195   5.794  17.883  0.00  0.00    +0.000 A 
ENDBRANCH   4   7
BRANCH   1  18
ATOM     18  C   UNL     1       0.331  10.941  20.193  0.00  0.00    +0.000 C 
BRANCH  18  21
ATOM     19  O   UNL     1      -0.345  11.351  22.882  0.00  0.00    +0.000 OA
ATOM     20  C   UNL     1      -1.130  11.718  22.016  0.00  0.00    +0.000 C 
ATOM     21  N   UNL     1      -0.893  11.559  20.670  0.00  0.00    +0.000 N 
ATOM     22  H   UNL     1      -1.502  11.990  19.990  0.00  0.00    +0.000 HD
BRANCH  20  23
ATOM     23  C   UNL     1      -2.396  12.398  22.416  0.00  0.00    +0.000 A 
ATOM     24  C   UNL     1      -2.917  12.110  23.686  0.00  0.00    +0.000 A 
ATOM     25  C   UNL     1      -4.134  12.658  24.098  0.00  0.00    +0.000 A 
ATOM     26  C   UNL     1      -4.841  13.492  23.236  0.00  0.00    +0.000 A 
ATOM     27 CL   UNL     1      -6.359  14.135  23.725  0.00  0.00    +0.000 Cl
ATOM     28  C   UNL     1      -4.332  13.794  21.972  0.00  0.00    +0.000 A 
ATOM     29  C   UNL     1      -3.108  13.247  21.558  0.00  0.00    +0.000 A 
ENDBRANCH  20  23
ENDBRANCH  18  21
BRANCH  18  30
ATOM     30  C   UNL     1       0.639  11.494  18.820  0.00  0.00    +0.000 C 
ATOM     31  C   UNL     1       0.758  12.984  18.587  0.00  0.00    +0.000 C 
ATOM     32  C   UNL     1       1.986  12.122  18.544  0.00  0.00    +0.000 C 
ENDBRANCH  18  30
ENDBRANCH   1  18
TORSDOF 5
ENDMDL
MODEL 4
REMARK VINA RESULT:      -7.5      1.148      1.163
REMARK  Name = 
REMARK  5 active torsions:
REMARK  status: ('A' for Active; 'I' for Inactive)
REMARK    1  A    between atoms: C_2  and  C_25
REMARK    2  A    between atoms: N_3  and  C_4
REMARK    3  A    between atoms: C_4  and  C_5
REMARK    4  A    between atoms: C_4  and  C_8
REMARK    5  A    between atoms: C_11  and  N_12
REMARK                            x       y       z     vdW  Elec       q    Type
REMARK                         _______ _______ _______ _____ _____    ______ ____
ROOT
ATOM      1  C   UNL     1       2.974   5.460  20.188  0.00  0.00    +0.000 C 
ATOM      2  C   UNL     1       2.917   6.817  19.613  0.00  0.00    +0.000 C 
ATOM      3  C   UNL     1       2.200   7.601  18.566  0.00  0.00    +0.000 C 
ATOM      4  C   UNL     1       1.111   8.346  19.405  0.00  0.00    +0.000 C 
ATOM      5  C   UNL     1       1.165   7.626  20.795  0.00  0.00    +0.000 C 
ATOM      6  C   UNL     1       1.716   6.276  20.436  0.00  0.00    +0.000 C 
ENDROOT
BRANCH   4   7
ATOM      7  N   UNL     1       1.286   9.785  19.448  0.00  0.00    +0.000 N 
ATOM      8  C   UNL     1       1.937  10.536  18.504  0.00  0.00    +0.000 A 
ATOM      9  N   UNL     1       1.808  11.824  18.722  0.00  0.00    +0.000 NA
ATOM     10  C   UNL     1       1.055  11.927  19.860  0.00  0.00    +0.000 A 
ATOM     11  C   UNL     1       0.602  13.080  20.518  0.00  0.00    +0.000 A 
ATOM     12  C   UNL     1      -0.151  12.923  21.679  0.00  0.00    +0.000 A 
ATOM     13  F   UNL     1      -0.600  14.015  22.315  0.00  0.00    +0.000 F 
ATOM     14  C   UNL     1      -0.448  11.661  22.181  0.00  0.00    +0.000 A 
ATOM     15  F   UNL     1      -1.170  11.545  23.304  0.00  0.00    +0.000 F 
ATOM     16  C   UNL     1      -0.015  10.497  21.536  0.00  0.00    +0.000 A 
ATOM     17  C   UNL     1       0.732  10.662  20.361  0.00  0.00    +0.000 A 
ENDBRANCH   4   7
BRANCH   1  18
ATOM     18  C   UNL     1       2.995   4.256  19.265  0.00  0.00    +0.000 C 
BRANCH  18  21
ATOM     19  O   UNL     1       4.390   2.349  17.757  0.00  0.00    +0.000 OA
ATOM     20  C   UNL     1       4.494   3.530  17.451  0.00  0.00    +0.000 C 
ATOM     21  N   UNL     1       3.853   4.542  18.131  0.00  0.00    +0.000 N 
ATOM     22  H   UNL     1       3.862   5.485  17.768  0.00  0.00    +0.000 HD
BRANCH  20  23
ATOM     23  C   UNL     1       5.326   3.912  16.274  0.00  0.00    +0.000 A 
ATOM     24  C   UNL     1       6.575   4.500  16.523  0.00  0.00    +0.000 A 
ATOM     25  C   UNL     1       7.376   4.945  15.468  0.00  0.00    +0.000 A 
ATOM     26  C   UNL     1       6.927   4.809  14.157  0.00  0.00    +0.000 A 
ATOM     27 CL   UNL     1       7.893   5.392  12.859  0.00  0.00    +0.000 Cl
ATOM     28  C   UNL     1       5.690   4.219  13.894  0.00  0.00    +0.000 A 
ATOM     29  C   UNL     1       4.885   3.769  14.951  0.00  0.00    +0.000 A 
ENDBRANCH  20  23
ENDBRANCH  18  21
BRANCH  18  30
ATOM     30  C   UNL     1       1.612   3.935  18.746  0.00  0.00    +0.000 C 
ATOM     31  C   UNL     1       1.152   2.503  18.583  0.00  0.00    +0.000 C 
ATOM     32  C   UNL     1       0.573   3.352  19.677  0.00  0.00    +0.000 C 
ENDBRANCH  18  30
ENDBRANCH   1  18
TORSDOF 5
ENDMDL
MODEL 5
REMARK VINA RESULT:      -7.4      4.559      8.873
REMARK  Name = 
REMARK  5 active torsions:
REMARK  status: ('A' for Active; 'I' for Inactive)
REMARK    1  A    between atoms: C_2  and  C_25
REMARK    2  A    between atoms: N_3  and  C_4
REMARK    3  A    between atoms: C_4  and  C_5
REMARK    4  A    between atoms: C_4  and  C_8
REMARK    5  A    between atoms: C_11  and  N_12
REMARK                            x       y       z     vdW  Elec       q    Type
REMARK                         _______ _______ _______ _____ _____    ______ ____
ROOT
ATOM      1  C   UNL     1      -0.732  10.379  21.973  0.00  0.00    +0.000 C 
ATOM      2  C   UNL     1      -0.363   9.246  21.104  0.00  0.00    +0.000 C 
ATOM      3  C   UNL     1       0.401   8.943  19.860  0.00  0.00    +0.000 C 
ATOM      4  C   UNL     1       1.763   8.428  20.430  0.00  0.00    +0.000 C 
ATOM      5  C   UNL     1       1.693   8.812  21.946  0.00  0.00    +0.000 C 
ATOM      6  C   UNL     1       0.730   9.965  21.942  0.00  0.00    +0.000 C 
ENDROOT
BRANCH   4   7
ATOM      7  N   UNL     1       2.020   7.026  20.158  0.00  0.00    +0.000 N 
ATOM      8  C   UNL     1       1.457   5.970  20.825  0.00  0.00    +0.000 A 
ATOM      9  N   UNL     1       1.753   4.819  20.268  0.00  0.00    +0.000 NA
ATOM     10  C   UNL     1       2.553   5.127  19.201  0.00  0.00    +0.000 A 
ATOM     11  C   UNL     1       3.128   4.268  18.252  0.00  0.00    +0.000 A 
ATOM     12  C   UNL     1       3.921   4.827  17.253  0.00  0.00    +0.000 A 
ATOM     13  F   UNL     1       4.471   4.021  16.332  0.00  0.00    +0.000 F 
ATOM     14  C   UNL     1       4.145   6.198  17.193  0.00  0.00    +0.000 A 
ATOM     15  F   UNL     1       4.919   6.704  16.222  0.00  0.00    +0.000 F 
ATOM     16  C   UNL     1       3.574   7.074  18.123  0.00  0.00    +0.000 A 
ATOM     17  C   UNL     1       2.766   6.506  19.118  0.00  0.00    +0.000 A 
ENDBRANCH   4   7
BRANCH   1  18
ATOM     18  C   UNL     1      -1.226  11.671  21.350  0.00  0.00    +0.000 C 
BRANCH  18  21
ATOM     19  O   UNL     1      -1.116  12.760  18.770  0.00  0.00    +0.000 OA
ATOM     20  C   UNL     1      -0.144  12.889  19.503  0.00  0.00    +0.000 C 
ATOM     21  N   UNL     1      -0.097  12.387  20.785  0.00  0.00    +0.000 N 
ATOM     22  H   UNL     1       0.668  12.627  21.398  0.00  0.00    +0.000 HD
BRANCH  20  23
ATOM     23  C   UNL     1       1.046  13.645  19.017  0.00  0.00    +0.000 A 
ATOM     24  C   UNL     1       2.163  12.904  18.603  0.00  0.00    +0.000 A 
ATOM     25  C   UNL     1       3.336  13.548  18.200  0.00  0.00    +0.000 A 
ATOM     26  C   UNL     1       3.398  14.939  18.217  0.00  0.00    +0.000 A 
ATOM     27 CL   UNL     1       4.854  15.734  17.761  0.00  0.00    +0.000 Cl
ATOM     28  C   UNL     1       2.292  15.689  18.619  0.00  0.00    +0.000 A 
ATOM     29  C   UNL     1       1.113  15.045  19.020  0.00  0.00    +0.000 A 
ENDBRANCH  20  23
ENDBRANCH  18  21
BRANCH  18  30
ATOM     30  C   UNL     1      -1.887  12.561  22.377  0.00  0.00    +0.000 C 
ATOM     31  C   UNL     1      -3.383  12.784  22.370  0.00  0.00    +0.000 C 
ATOM     32  C   UNL     1      -2.759  11.953  23.453  0.00  0.00    +0.000 C 
ENDBRANCH  18  30
ENDBRANCH   1  18
TORSDOF 5
ENDMDL
MODEL 6
REMARK VINA RESULT:      -7.4      5.624     10.607
REMARK  Name = 
REMARK  5 active torsions:
REMARK  status: ('A' for Active; 'I' for Inactive)
REMARK    1  A    between atoms: C_2  and  C_25
REMARK    2  A    between atoms: N_3  and  C_4
REMARK    3  A    between atoms: C_4  and  C_5
REMARK    4  A    between atoms: C_4  and  C_8
REMARK    5  A    between atoms: C_11  and  N_12
REMARK                            x       y       z     vdW  Elec       q    Type
REMARK                         _______ _______ _______ _____ _____    ______ ____
ROOT
ATOM      1  C   UNL     1      -0.312   9.953  20.401  0.00  0.00    +0.000 C 
ATOM      2  C   UNL     1       0.442   9.127  19.439  0.00  0.00    +0.000 C 
ATOM      3  C   UNL     1       1.814   8.965  18.879  0.00  0.00    +0.000 C 
ATOM      4  C   UNL     1       2.374   7.776  19.726  0.00  0.00    +0.000 C 
ATOM      5  C   UNL     1       1.331   7.630  20.885  0.00  0.00    +0.000 C 
ATOM      6  C   UNL     1       0.738   9.007  20.960  0.00  0.00    +0.000 C 
ENDROOT
BRANCH   4   7
ATOM      7  N   UNL     1       2.617   6.570  18.957  0.00  0.00    +0.000 N 
ATOM      8  C   UNL     1       3.362   6.494  17.810  0.00  0.00    +0.000 A 
ATOM      9  N   UNL     1       3.538   5.255  17.415  0.00  0.00    +0.000 NA
ATOM     10  C   UNL     1       2.872   4.484  18.329  0.00  0.00    +0.000 A 
ATOM     11  C   UNL     1       2.760   3.087  18.392  0.00  0.00    +0.000 A 
ATOM     12  C   UNL     1       2.011   2.532  19.426  0.00  0.00    +0.000 A 
ATOM     13  F   UNL     1       1.902   1.198  19.507  0.00  0.00    +0.000 F 
ATOM     14  C   UNL     1       1.383   3.334  20.372  0.00  0.00    +0.000 A 
ATOM     15  F   UNL     1       0.664   2.769  21.352  0.00  0.00    +0.000 F 
ATOM     16  C   UNL     1       1.488   4.729  20.335  0.00  0.00    +0.000 A 
ATOM     17  C   UNL     1       2.255   5.281  19.298  0.00  0.00    +0.000 A 
ENDBRANCH   4   7
BRANCH   1  18
ATOM     18  C   UNL     1      -0.132  11.459  20.396  0.00  0.00    +0.000 C 
BRANCH  18  21
ATOM     19  O   UNL     1      -0.740  11.841  23.106  0.00  0.00    +0.000 OA
ATOM     20  C   UNL     1      -1.541  12.228  22.264  0.00  0.00    +0.000 C 
ATOM     21  N   UNL     1      -1.338  12.083  20.910  0.00  0.00    +0.000 N 
ATOM     22  H   UNL     1      -1.959  12.530  20.250  0.00  0.00    +0.000 HD
BRANCH  20  23
ATOM     23  C   UNL     1      -2.790  12.914  22.702  0.00  0.00    +0.000 A 
ATOM     24  C   UNL     1      -3.478  12.378  23.800  0.00  0.00    +0.000 A 
ATOM     25  C   UNL     1      -4.690  12.930  24.221  0.00  0.00    +0.000 A 
ATOM     26  C   UNL     1      -5.225  14.019  23.539  0.00  0.00    +0.000 A 
ATOM     27 CL   UNL     1      -6.737  14.676  24.030  0.00  0.00    +0.000 Cl
ATOM     28  C   UNL     1      -4.548  14.569  22.449  0.00  0.00    +0.000 A 
ATOM     29  C   UNL     1      -3.329  14.019  22.027  0.00  0.00    +0.000 A 
ENDBRANCH  20  23
ENDBRANCH  18  21
BRANCH  18  30
ATOM     30  C   UNL     1       0.115  11.981  19.000  0.00  0.00    +0.000 C 
ATOM     31  C   UNL     1       0.252  13.463  18.732  0.00  0.00    +0.000 C 
ATOM     32  C   UNL     1       1.459  12.575  18.643  0.00  0.00    +0.000 C 
ENDBRANCH  18  30
ENDBRANCH   1  18
TORSDOF 5
ENDMDL
MODEL 7
REMARK VINA RESULT:      -7.3      4.670      8.852
REMARK  Name = 
REMARK  5 active torsions:
REMARK  status: ('A' for Active; 'I' for Inactive)
REMARK    1  A    between atoms: C_2  and  C_25
REMARK    2  A    between atoms: N_3  and  C_4
REMARK    3  A    between atoms: C_4  and  C_5
REMARK    4  A    between atoms: C_4  and  C_8
REMARK    5  A    between atoms: C_11  and  N_12
REMARK                            x       y       z     vdW  Elec       q    Type
REMARK                         _______ _______ _______ _____ _____    ______ ____
ROOT
ATOM      1  C   UNL     1      -0.798  10.744  21.140  0.00  0.00    +0.000 C 
ATOM      2  C   UNL     1      -0.262   9.611  20.362  0.00  0.00    +0.000 C 
ATOM      3  C   UNL     1       0.878   9.258  19.467  0.00  0.00    +0.000 C 
ATOM      4  C   UNL     1       1.847   8.522  20.449  0.00  0.00    +0.000 C 
ATOM      5  C   UNL     1       1.248   8.839  21.860  0.00  0.00    +0.000 C 
ATOM      6  C   UNL     1       0.505  10.120  21.613  0.00  0.00    +0.000 C 
ENDROOT
BRANCH   4   7
ATOM      7  N   UNL     1       2.021   7.112  20.154  0.00  0.00    +0.000 N 
ATOM      8  C   UNL     1       1.391   6.080  20.799  0.00  0.00    +0.000 A 
ATOM      9  N   UNL     1       1.619   4.923  20.223  0.00  0.00    +0.000 NA
ATOM     10  C   UNL     1       2.443   5.200  19.166  0.00  0.00    +0.000 A 
ATOM     11  C   UNL     1       2.970   4.324  18.205  0.00  0.00    +0.000 A 
ATOM     12  C   UNL     1       3.801   4.852  17.219  0.00  0.00    +0.000 A 
ATOM     13  F   UNL     1       4.306   4.031  16.286  0.00  0.00    +0.000 F 
ATOM     14  C   UNL     1       4.107   6.207  17.184  0.00  0.00    +0.000 A 
ATOM     15  F   UNL     1       4.916   6.682  16.226  0.00  0.00    +0.000 F 
ATOM     16  C   UNL     1       3.586   7.101  18.126  0.00  0.00    +0.000 A 
ATOM     17  C   UNL     1       2.739   6.565  19.108  0.00  0.00    +0.000 A 
ENDBRANCH   4   7
BRANCH   1  18
ATOM     18  C   UNL     1      -0.860  12.123  20.510  0.00  0.00    +0.000 C 
BRANCH  18  21
ATOM     19  O   UNL     1       0.323  13.263  18.240  0.00  0.00    +0.000 OA
ATOM     20  C   UNL     1       0.970  13.218  19.279  0.00  0.00    +0.000 C 
ATOM     21  N   UNL     1       0.481  12.675  20.446  0.00  0.00    +0.000 N 
ATOM     22  H   UNL     1       0.995  12.775  21.309  0.00  0.00    +0.000 HD
BRANCH  20  23
ATOM     23  C   UNL     1       2.343  13.798  19.313  0.00  0.00    +0.000 A 
ATOM     24  C   UNL     1       2.912  14.051  20.570  0.00  0.00    +0.000 A 
ATOM     25  C   UNL     1       4.167  14.656  20.676  0.00  0.00    +0.000 A 
ATOM     26  C   UNL     1       4.856  15.018  19.521  0.00  0.00    +0.000 A 
ATOM     27 CL   UNL     1       6.383  15.800  19.649  0.00  0.00    +0.000 Cl
ATOM     28  C   UNL     1       4.306  14.766  18.264  0.00  0.00    +0.000 A 
ATOM     29  C   UNL     1       3.049  14.156  18.155  0.00  0.00    +0.000 A 
ENDBRANCH  20  23
ENDBRANCH  18  21
BRANCH  18  30
ATOM     30  C   UNL     1      -1.722  13.061  21.322  0.00  0.00    +0.000 C 
ATOM     31  C   UNL     1      -3.191  13.242  21.007  0.00  0.00    +0.000 C 
ATOM     32  C   UNL     1      -2.780  12.504  22.248  0.00  0.00    +0.000 C 
ENDBRANCH  18  30
ENDBRANCH   1  18
TORSDOF 5
ENDMDL
MODEL 8
REMARK VINA RESULT:      -7.3      4.813      8.743
REMARK  Name = 
REMARK  5 active torsions:
REMARK  status: ('A' for Active; 'I' for Inactive)
REMARK    1  A    between atoms: C_2  and  C_25
REMARK    2  A    between atoms: N_3  and  C_4
REMARK    3  A    between atoms: C_4  and  C_5
REMARK    4  A    between atoms: C_4  and  C_8
REMARK    5  A    between atoms: C_11  and  N_12
REMARK                            x       y       z     vdW  Elec       q    Type
REMARK                         _______ _______ _______ _____ _____    ______ ____
ROOT
ATOM      1  C   UNL     1      -0.595   9.869  21.554  0.00  0.00    +0.000 C 
ATOM      2  C   UNL     1      -0.019   9.180  20.384  0.00  0.00    +0.000 C 
ATOM      3  C   UNL     1       1.103   9.297  19.410  0.00  0.00    +0.000 C 
ATOM      4  C   UNL     1       2.158   8.309  20.006  0.00  0.00    +0.000 C 
ATOM      5  C   UNL     1       1.599   7.997  21.435  0.00  0.00    +0.000 C 
ATOM      6  C   UNL     1       0.764   9.211  21.726  0.00  0.00    +0.000 C 
ENDROOT
BRANCH   4   7
ATOM      7  N   UNL     1       2.411   7.147  19.174  0.00  0.00    +0.000 N 
ATOM      8  C   UNL     1       3.058   7.158  17.967  0.00  0.00    +0.000 A 
ATOM      9  N   UNL     1       3.279   5.947  17.513  0.00  0.00    +0.000 NA
ATOM     10  C   UNL     1       2.745   5.105  18.449  0.00  0.00    +0.000 A 
ATOM     11  C   UNL     1       2.730   3.702  18.468  0.00  0.00    +0.000 A 
ATOM     12  C   UNL     1       2.110   3.065  19.540  0.00  0.00    +0.000 A 
ATOM     13  F   UNL     1       2.095   1.724  19.579  0.00  0.00    +0.000 F 
ATOM     14  C   UNL     1       1.515   3.792  20.565  0.00  0.00    +0.000 A 
ATOM     15  F   UNL     1       0.920   3.148  21.579  0.00  0.00    +0.000 F 
ATOM     16  C   UNL     1       1.526   5.191  20.572  0.00  0.00    +0.000 A 
ATOM     17  C   UNL     1       2.164   5.826  19.496  0.00  0.00    +0.000 A 
ENDBRANCH   4   7
BRANCH   1  18
ATOM     18  C   UNL     1      -0.773  11.375  21.524  0.00  0.00    +0.000 C 
BRANCH  18  21
ATOM     19  O   UNL     1      -0.402  13.080  19.330  0.00  0.00    +0.000 OA
ATOM     20  C   UNL     1       0.560  12.822  20.042  0.00  0.00    +0.000 C 
ATOM     21  N   UNL     1       0.483  11.993  21.139  0.00  0.00    +0.000 N 
ATOM     22  H   UNL     1       1.266  11.910  21.771  0.00  0.00    +0.000 HD
BRANCH  20  23
ATOM     23  C   UNL     1       1.881  13.444  19.742  0.00  0.00    +0.000 A 
ATOM     24  C   UNL     1       2.687  13.818  20.829  0.00  0.00    +0.000 A 
ATOM     25  C   UNL     1       3.906  14.467  20.622  0.00  0.00    +0.000 A 
ATOM     26  C   UNL     1       4.322  14.754  19.324  0.00  0.00    +0.000 A 
ATOM     27 CL   UNL     1       5.804  15.590  19.068  0.00  0.00    +0.000 Cl
ATOM     28  C   UNL     1       3.535  14.382  18.233  0.00  0.00    +0.000 A 
ATOM     29  C   UNL     1       2.313  13.727  18.438  0.00  0.00    +0.000 A 
ENDBRANCH  20  23
ENDBRANCH  18  21
BRANCH  18  30
ATOM     30  C   UNL     1      -1.170  11.911  22.880  0.00  0.00    +0.000 C 
ATOM     31  C   UNL     1      -1.920  13.218  23.014  0.00  0.00    +0.000 C 
ATOM     32  C   UNL     1      -2.625  11.922  23.290  0.00  0.00    +0.000 C 
ENDBRANCH  18  30
ENDBRANCH   1  18
TORSDOF 5
ENDMDL
MODEL 9
REMARK VINA RESULT:      -7.2      1.554      2.299
REMARK  Name = 
REMARK  5 active torsions:
REMARK  status: ('A' for Active; 'I' for Inactive)
REMARK    1  A    between atoms: C_2  and  C_25
REMARK    2  A    between atoms: N_3  and  C_4
REMARK    3  A    between atoms: C_4  and  C_5
REMARK    4  A    between atoms: C_4  and  C_8
REMARK    5  A    between atoms: C_11  and  N_12
REMARK                            x       y       z     vdW  Elec       q    Type
REMARK                         _______ _______ _______ _____ _____    ______ ____
ROOT
ATOM      1  C   UNL     1       1.839   5.697  19.416  0.00  0.00    +0.000 C 
ATOM      2  C   UNL     1       1.392   6.542  20.539  0.00  0.00    +0.000 C 
ATOM      3  C   UNL     1       1.921   7.521  21.532  0.00  0.00    +0.000 C 
ATOM      4  C   UNL     1       1.540   8.889  20.878  0.00  0.00    +0.000 C 
ATOM      5  C   UNL     1       1.115   8.492  19.424  0.00  0.00    +0.000 C 
ATOM      6  C   UNL     1       1.857   7.203  19.212  0.00  0.00    +0.000 C 
ENDROOT
BRANCH   4   7
ATOM      7  N   UNL     1       0.552   9.642  21.627  0.00  0.00    +0.000 N 
ATOM      8  C   UNL     1       0.370   9.589  22.984  0.00  0.00    +0.000 A 
ATOM      9  N   UNL     1      -0.487  10.489  23.404  0.00  0.00    +0.000 NA
ATOM     10  C   UNL     1      -0.898  11.152  22.280  0.00  0.00    +0.000 A 
ATOM     11  C   UNL     1      -1.794  12.226  22.167  0.00  0.00    +0.000 A 
ATOM     12  C   UNL     1      -2.060  12.730  20.896  0.00  0.00    +0.000 A 
ATOM     13  F   UNL     1      -2.906  13.763  20.770  0.00  0.00    +0.000 F 
ATOM     14  C   UNL     1      -1.463  12.185  19.765  0.00  0.00    +0.000 A 
ATOM     15  F   UNL     1      -1.746  12.689  18.555  0.00  0.00    +0.000 F 
ATOM     16  C   UNL     1      -0.560  11.120  19.855  0.00  0.00    +0.000 A 
ATOM     17  C   UNL     1      -0.286  10.627  21.139  0.00  0.00    +0.000 A 
ENDBRANCH   4   7
BRANCH   1  18
ATOM     18  C   UNL     1       3.108   4.878  19.553  0.00  0.00    +0.000 C 
BRANCH  18  21
ATOM     19  O   UNL     1       5.839   4.347  19.210  0.00  0.00    +0.000 OA
ATOM     20  C   UNL     1       5.163   4.606  18.222  0.00  0.00    +0.000 C 
ATOM     21  N   UNL     1       3.816   4.885  18.285  0.00  0.00    +0.000 N 
ATOM     22  H   UNL     1       3.272   4.965  17.438  0.00  0.00    +0.000 HD
BRANCH  20  23
ATOM     23  C   UNL     1       5.801   4.597  16.875  0.00  0.00    +0.000 A 
ATOM     24  C   UNL     1       6.934   5.403  16.685  0.00  0.00    +0.000 A 
ATOM     25  C   UNL     1       7.541   5.495  15.431  0.00  0.00    +0.000 A 
ATOM     26  C   UNL     1       7.011   4.786  14.355  0.00  0.00    +0.000 A 
ATOM     27 CL   UNL     1       7.732   4.930  12.800  0.00  0.00    +0.000 Cl
ATOM     28  C   UNL     1       5.889   3.975  14.530  0.00  0.00    +0.000 A 
ATOM     29  C   UNL     1       5.280   3.878  15.790  0.00  0.00    +0.000 A 
ENDBRANCH  20  23
ENDBRANCH  18  21
BRANCH  18  30
ATOM     30  C   UNL     1       2.803   3.444  19.918  0.00  0.00    +0.000 C 
ATOM     31  C   UNL     1       2.471   3.055  21.342  0.00  0.00    +0.000 C 
ATOM     32  C   UNL     1       1.394   3.046  20.296  0.00  0.00    +0.000 C 
ENDBRANCH  18  30
ENDBRANCH   1  18
TORSDOF 5
ENDMDL
