MODEL 1
REMARK VINA RESULT:      -7.8      0.000      0.000
REMARK  Name = 
REMARK  6 active torsions:
REMARK  status: ('A' for Active; 'I' for Inactive)
REMARK    1  A    between atoms: C_1  and  O_2
REMARK    2  A    between atoms: O_2  and  C_3
REMARK    3  A    between atoms: C_9  and  S_10
REMARK    4  A    between atoms: S_10  and  C_11
REMARK    5  A    between atoms: C_17  and  C_18
REMARK    6  A    between atoms: N_21  and  C_22
REMARK                            x       y       z     vdW  Elec       q    Type
REMARK                         _______ _______ _______ _____ _____    ______ ____
ROOT
ATOM      1  C   UNL     1       5.117   4.034  16.963  0.00  0.00    +0.000 A 
ATOM      2  C   UNL     1       6.156   4.770  17.735  0.00  0.00    +0.000 A 
ATOM      3  C   UNL     1       7.138   5.350  17.031  0.00  0.00    +0.000 A 
ATOM      4  C   UNL     1       7.157   5.203  15.628  0.00  0.00    +0.000 A 
ATOM      5  N   UNL     1       8.008   5.596  14.707  0.00  0.00    +0.000 NA
ATOM      6  N   UNL     1       7.588   5.075  13.500  0.00  0.00    +0.000 NA
ATOM      7  C   UNL     1       6.476   4.389  13.710  0.00  0.00    +0.000 A 
ATOM      8  N   UNL     1       6.141   4.467  15.045  0.00  0.00    +0.000 N 
ATOM      9  N   UNL     1       5.090   3.864  15.684  0.00  0.00    +0.000 NA
ENDROOT
BRANCH   7  10
ATOM     10  C   UNL     1       5.751   3.618  12.674  0.00  0.00    +0.000 A 
ATOM     11  C   UNL     1       6.125   2.425  12.031  0.00  0.00    +0.000 A 
ATOM     12  N   UNL     1       5.225   2.035  11.122  0.00  0.00    +0.000 NA
ATOM     13  N   UNL     1       4.280   2.990  11.185  0.00  0.00    +0.000 N 
ATOM     14  C   UNL     1       3.138   2.927  10.306  0.00  0.00    +0.000 C 
ATOM     15  C   UNL     1       4.543   3.961  12.108  0.00  0.00    +0.000 A 
ENDBRANCH   7  10
BRANCH   1  16
ATOM     16  S   UNL     1       3.940   3.218  17.950  0.00  0.00    +0.000 S 
BRANCH  16  23
ATOM     17  C   UNL     1       2.576   4.317  20.243  0.00  0.00    +0.000 A 
ATOM     18  C   UNL     1       1.966   5.424  20.861  0.00  0.00    +0.000 A 
ATOM     19  C   UNL     1       1.845   6.645  20.196  0.00  0.00    +0.000 A 
ATOM     20  C   UNL     1       2.348   6.775  18.911  0.00  0.00    +0.000 A 
ATOM     21 CL   UNL     1       2.189   8.271  18.078  0.00  0.00    +0.000 Cl
ATOM     22  C   UNL     1       2.982   5.699  18.296  0.00  0.00    +0.000 A 
ATOM     23  C   UNL     1       3.113   4.455  18.948  0.00  0.00    +0.000 A 
BRANCH  17  25
ATOM     24  C   UNL     1       1.546   2.654  21.595  0.00  0.00    +0.000 C 
ATOM     25  O   UNL     1       2.692   3.107  20.876  0.00  0.00    +0.000 OA
ENDBRANCH  17  25
ENDBRANCH  16  23
ENDBRANCH   1  16
TORSDOF 4
ENDMDL
MODEL 2
REMARK VINA RESULT:      -7.3      5.744      9.103
REMARK  Name = 
REMARK  6 active torsions:
REMARK  status: ('A' for Active; 'I' for Inactive)
REMARK    1  A    between atoms: C_1  and  O_2
REMARK    2  A    between atoms: O_2  and  C_3
REMARK    3  A    between atoms: C_9  and  S_10
REMARK    4  A    between atoms: S_10  and  C_11
REMARK    5  A    between atoms: C_17  and  C_18
REMARK    6  A    between atoms: N_21  and  C_22
REMARK                            x       y       z     vdW  Elec       q    Type
REMARK                         _______ _______ _______ _____ _____    ______ ____
ROOT
ATOM      1  C   UNL     1       2.053   7.464  19.542  0.00  0.00    +0.000 A 
ATOM      2  C   UNL     1       2.554   7.654  18.153  0.00  0.00    +0.000 A 
ATOM      3  C   UNL     1       2.388   8.868  17.610  0.00  0.00    +0.000 A 
ATOM      4  C   UNL     1       1.728   9.870  18.352  0.00  0.00    +0.000 A 
ATOM      5  N   UNL     1       1.376  11.101  18.061  0.00  0.00    +0.000 NA
ATOM      6  N   UNL     1       0.648  11.591  19.127  0.00  0.00    +0.000 NA
ATOM      7  C   UNL     1       0.589  10.650  20.054  0.00  0.00    +0.000 A 
ATOM      8  N   UNL     1       1.289   9.544  19.623  0.00  0.00    +0.000 N 
ATOM      9  N   UNL     1       1.438   8.341  20.262  0.00  0.00    +0.000 NA
ENDROOT
BRANCH   7  10
ATOM     10  C   UNL     1      -0.164  10.763  21.325  0.00  0.00    +0.000 A 
ATOM     11  C   UNL     1      -0.022  10.019  22.510  0.00  0.00    +0.000 A 
ATOM     12  N   UNL     1      -0.904  10.385  23.447  0.00  0.00    +0.000 NA
ATOM     13  N   UNL     1      -1.612  11.360  22.849  0.00  0.00    +0.000 N 
ATOM     14  C   UNL     1      -2.700  11.991  23.554  0.00  0.00    +0.000 C 
ATOM     15  C   UNL     1      -1.202  11.633  21.576  0.00  0.00    +0.000 A 
ENDBRANCH   7  10
BRANCH   1  16
ATOM     16  S   UNL     1       2.204   5.836  20.137  0.00  0.00    +0.000 S 
BRANCH  16  23
ATOM     17  C   UNL     1       2.561   3.949  17.984  0.00  0.00    +0.000 A 
ATOM     18  C   UNL     1       3.428   3.306  17.082  0.00  0.00    +0.000 A 
ATOM     19  C   UNL     1       4.803   3.544  17.109  0.00  0.00    +0.000 A 
ATOM     20  C   UNL     1       5.322   4.442  18.029  0.00  0.00    +0.000 A 
ATOM     21 CL   UNL     1       7.016   4.730  18.080  0.00  0.00    +0.000 Cl
ATOM     22  C   UNL     1       4.475   5.110  18.909  0.00  0.00    +0.000 A 
ATOM     23  C   UNL     1       3.083   4.883  18.901  0.00  0.00    +0.000 A 
BRANCH  17  25
ATOM     24  C   UNL     1       0.754   2.607  18.752  0.00  0.00    +0.000 C 
ATOM     25  O   UNL     1       1.210   3.718  17.981  0.00  0.00    +0.000 OA
ENDBRANCH  17  25
ENDBRANCH  16  23
ENDBRANCH   1  16
TORSDOF 4
ENDMDL
MODEL 3
REMARK VINA RESULT:      -7.3      0.627      1.059
REMARK  Name = 
REMARK  6 active torsions:
REMARK  status: ('A' for Active; 'I' for Inactive)
REMARK    1  A    between atoms: C_1  and  O_2
REMARK    2  A    between atoms: O_2  and  C_3
REMARK    3  A    between atoms: C_9  and  S_10
REMARK    4  A    between atoms: S_10  and  C_11
REMARK    5  A    between atoms: C_17  and  C_18
REMARK    6  A    between atoms: N_21  and  C_22
REMARK                            x       y       z     vdW  Elec       q    Type
REMARK                         _______ _______ _______ _____ _____    ______ ____
ROOT
ATOM      1  C   UNL     1       5.156   4.083  17.118  0.00  0.00    +0.000 A 
ATOM      2  C   UNL     1       6.068   4.957  17.907  0.00  0.00    +0.000 A 
ATOM      3  C   UNL     1       7.009   5.624  17.224  0.00  0.00    +0.000 A 
ATOM      4  C   UNL     1       7.109   5.437  15.829  0.00  0.00    +0.000 A 
ATOM      5  N   UNL     1       7.951   5.898  14.932  0.00  0.00    +0.000 NA
ATOM      6  N   UNL     1       7.649   5.294  13.728  0.00  0.00    +0.000 NA
ATOM      7  C   UNL     1       6.614   4.492  13.915  0.00  0.00    +0.000 A 
ATOM      8  N   UNL     1       6.211   4.571  15.231  0.00  0.00    +0.000 N 
ATOM      9  N   UNL     1       5.207   3.871  15.846  0.00  0.00    +0.000 NA
ENDROOT
BRANCH   7  10
ATOM     10  C   UNL     1       6.030   3.612  12.877  0.00  0.00    +0.000 A 
ATOM     11  C   UNL     1       4.794   3.719  12.215  0.00  0.00    +0.000 A 
ATOM     12  N   UNL     1       4.590   2.716  11.354  0.00  0.00    +0.000 NA
ATOM     13  N   UNL     1       5.701   1.966  11.478  0.00  0.00    +0.000 N 
ATOM     14  C   UNL     1       5.833   0.751  10.712  0.00  0.00    +0.000 C 
ATOM     15  C   UNL     1       6.602   2.465  12.373  0.00  0.00    +0.000 A 
ENDBRANCH   7  10
BRANCH   1  16
ATOM     16  S   UNL     1       4.036   3.167  18.084  0.00  0.00    +0.000 S 
BRANCH  16  23
ATOM     17  C   UNL     1       2.412   4.083  20.287  0.00  0.00    +0.000 A 
ATOM     18  C   UNL     1       1.741   5.142  20.925  0.00  0.00    +0.000 A 
ATOM     19  C   UNL     1       1.710   6.420  20.364  0.00  0.00    +0.000 A 
ATOM     20  C   UNL     1       2.367   6.655  19.166  0.00  0.00    +0.000 A 
ATOM     21 CL   UNL     1       2.321   8.221  18.459  0.00  0.00    +0.000 Cl
ATOM     22  C   UNL     1       3.062   5.625  18.536  0.00  0.00    +0.000 A 
ATOM     23  C   UNL     1       3.104   4.326  19.084  0.00  0.00    +0.000 A 
BRANCH  17  25
ATOM     24  C   UNL     1       1.472   2.531  21.823  0.00  0.00    +0.000 C 
ATOM     25  O   UNL     1       2.442   2.819  20.817  0.00  0.00    +0.000 OA
ENDBRANCH  17  25
ENDBRANCH  16  23
ENDBRANCH   1  16
TORSDOF 4
ENDMDL
MODEL 4
REMARK VINA RESULT:      -7.1      3.606      5.762
REMARK  Name = 
REMARK  6 active torsions:
REMARK  status: ('A' for Active; 'I' for Inactive)
REMARK    1  A    between atoms: C_1  and  O_2
REMARK    2  A    between atoms: O_2  and  C_3
REMARK    3  A    between atoms: C_9  and  S_10
REMARK    4  A    between atoms: S_10  and  C_11
REMARK    5  A    between atoms: C_17  and  C_18
REMARK    6  A    between atoms: N_21  and  C_22
REMARK                            x       y       z     vdW  Elec       q    Type
REMARK                         _______ _______ _______ _____ _____    ______ ____
ROOT
ATOM      1  C   UNL     1       2.691   6.984  18.870  0.00  0.00    +0.000 A 
ATOM      2  C   UNL     1       1.796   6.468  19.942  0.00  0.00    +0.000 A 
ATOM      3  C   UNL     1       2.106   5.276  20.469  0.00  0.00    +0.000 A 
ATOM      4  C   UNL     1       3.218   4.569  19.965  0.00  0.00    +0.000 A 
ATOM      5  N   UNL     1       3.711   3.382  20.237  0.00  0.00    +0.000 NA
ATOM      6  N   UNL     1       4.748   3.149  19.356  0.00  0.00    +0.000 NA
ATOM      7  C   UNL     1       4.876   4.210  18.578  0.00  0.00    +0.000 A 
ATOM      8  N   UNL     1       3.946   5.158  18.946  0.00  0.00    +0.000 N 
ATOM      9  N   UNL     1       3.714   6.378  18.368  0.00  0.00    +0.000 NA
ENDROOT
BRANCH   7  10
ATOM     10  C   UNL     1       5.835   4.323  17.455  0.00  0.00    +0.000 A 
ATOM     11  C   UNL     1       7.215   4.594  17.489  0.00  0.00    +0.000 A 
ATOM     12  N   UNL     1       7.752   4.649  16.265  0.00  0.00    +0.000 NA
ATOM     13  N   UNL     1       6.705   4.417  15.452  0.00  0.00    +0.000 N 
ATOM     14  C   UNL     1       6.892   4.430  14.022  0.00  0.00    +0.000 C 
ATOM     15  C   UNL     1       5.531   4.205  16.116  0.00  0.00    +0.000 A 
ENDBRANCH   7  10
BRANCH   1  16
ATOM     16  S   UNL     1       2.162   8.482  18.160  0.00  0.00    +0.000 S 
BRANCH  16  23
ATOM     17  C   UNL     1      -0.101  10.053  19.017  0.00  0.00    +0.000 A 
ATOM     18  C   UNL     1      -0.875  10.568  20.073  0.00  0.00    +0.000 A 
ATOM     19  C   UNL     1      -0.521  10.341  21.404  0.00  0.00    +0.000 A 
ATOM     20  C   UNL     1       0.602   9.581  21.692  0.00  0.00    +0.000 A 
ATOM     21 CL   UNL     1       1.055   9.310  23.328  0.00  0.00    +0.000 Cl
ATOM     22  C   UNL     1       1.363   9.039  20.659  0.00  0.00    +0.000 A 
ATOM     23  C   UNL     1       1.025   9.257  19.307  0.00  0.00    +0.000 A 
BRANCH  17  25
ATOM     24  C   UNL     1      -1.787  10.050  17.341  0.00  0.00    +0.000 C 
ATOM     25  O   UNL     1      -0.426  10.276  17.704  0.00  0.00    +0.000 OA
ENDBRANCH  17  25
ENDBRANCH  16  23
ENDBRANCH   1  16
TORSDOF 4
ENDMDL
MODEL 5
REMARK VINA RESULT:      -7.0      4.567      6.909
REMARK  Name = 
REMARK  6 active torsions:
REMARK  status: ('A' for Active; 'I' for Inactive)
REMARK    1  A    between atoms: C_1  and  O_2
REMARK    2  A    between atoms: O_2  and  C_3
REMARK    3  A    between atoms: C_9  and  S_10
REMARK    4  A    between atoms: S_10  and  C_11
REMARK    5  A    between atoms: C_17  and  C_18
REMARK    6  A    between atoms: N_21  and  C_22
REMARK                            x       y       z     vdW  Elec       q    Type
REMARK                         _______ _______ _______ _____ _____    ______ ____
ROOT
ATOM      1  C   UNL     1       2.014   8.320  19.122  0.00  0.00    +0.000 A 
ATOM      2  C   UNL     1       1.127   8.276  20.317  0.00  0.00    +0.000 A 
ATOM      3  C   UNL     1       1.153   7.155  21.051  0.00  0.00    +0.000 A 
ATOM      4  C   UNL     1       1.972   6.083  20.640  0.00  0.00    +0.000 A 
ATOM      5  N   UNL     1       2.148   4.870  21.113  0.00  0.00    +0.000 NA
ATOM      6  N   UNL     1       2.986   4.200  20.244  0.00  0.00    +0.000 NA
ATOM      7  C   UNL     1       3.317   5.028  19.268  0.00  0.00    +0.000 A 
ATOM      8  N   UNL     1       2.723   6.252  19.490  0.00  0.00    +0.000 N 
ATOM      9  N   UNL     1       2.776   7.368  18.698  0.00  0.00    +0.000 NA
ENDROOT
BRANCH   7  10
ATOM     10  C   UNL     1       4.149   4.664  18.098  0.00  0.00    +0.000 A 
ATOM     11  C   UNL     1       3.833   3.836  17.006  0.00  0.00    +0.000 A 
ATOM     12  N   UNL     1       4.852   3.715  16.149  0.00  0.00    +0.000 NA
ATOM     13  N   UNL     1       5.822   4.464  16.705  0.00  0.00    +0.000 N 
ATOM     14  C   UNL     1       7.113   4.552  16.069  0.00  0.00    +0.000 C 
ATOM     15  C   UNL     1       5.448   5.065  17.873  0.00  0.00    +0.000 A 
ENDBRANCH   7  10
BRANCH   1  16
ATOM     16  S   UNL     1       1.843   9.759  18.160  0.00  0.00    +0.000 S 
BRANCH  16  23
ATOM     17  C   UNL     1       0.115  11.536  19.638  0.00  0.00    +0.000 A 
ATOM     18  C   UNL     1      -1.177  12.046  19.859  0.00  0.00    +0.000 A 
ATOM     19  C   UNL     1      -2.274  11.568  19.139  0.00  0.00    +0.000 A 
ATOM     20  C   UNL     1      -2.085  10.588  18.178  0.00  0.00    +0.000 A 
ATOM     21 CL   UNL     1      -3.432   9.982  17.298  0.00  0.00    +0.000 Cl
ATOM     22  C   UNL     1      -0.808  10.093  17.926  0.00  0.00    +0.000 A 
ATOM     23  C   UNL     1       0.314  10.559  18.643  0.00  0.00    +0.000 A 
BRANCH  17  25
ATOM     24  C   UNL     1       1.798  13.198  19.888  0.00  0.00    +0.000 C 
ATOM     25  O   UNL     1       1.202  11.984  20.344  0.00  0.00    +0.000 OA
ENDBRANCH  17  25
ENDBRANCH  16  23
ENDBRANCH   1  16
TORSDOF 4
ENDMDL
MODEL 6
REMARK VINA RESULT:      -7.0      4.123      6.134
REMARK  Name = 
REMARK  6 active torsions:
REMARK  status: ('A' for Active; 'I' for Inactive)
REMARK    1  A    between atoms: C_1  and  O_2
REMARK    2  A    between atoms: O_2  and  C_3
REMARK    3  A    between atoms: C_9  and  S_10
REMARK    4  A    between atoms: S_10  and  C_11
REMARK    5  A    between atoms: C_17  and  C_18
REMARK    6  A    between atoms: N_21  and  C_22
REMARK                            x       y       z     vdW  Elec       q    Type
REMARK                         _______ _______ _______ _____ _____    ______ ____
ROOT
ATOM      1  C   UNL     1       2.527   8.199  18.541  0.00  0.00    +0.000 A 
ATOM      2  C   UNL     1       1.647   7.844  19.688  0.00  0.00    +0.000 A 
ATOM      3  C   UNL     1       1.850   6.650  20.262  0.00  0.00    +0.000 A 
ATOM      4  C   UNL     1       2.841   5.794  19.736  0.00  0.00    +0.000 A 
ATOM      5  N   UNL     1       3.211   4.572  20.044  0.00  0.00    +0.000 NA
ATOM      6  N   UNL     1       4.158   4.177  19.120  0.00  0.00    +0.000 NA
ATOM      7  C   UNL     1       4.358   5.177  18.279  0.00  0.00    +0.000 A 
ATOM      8  N   UNL     1       3.567   6.244  18.646  0.00  0.00    +0.000 N 
ATOM      9  N   UNL     1       3.441   7.455  18.017  0.00  0.00    +0.000 NA
ENDROOT
BRANCH   7  10
ATOM     10  C   UNL     1       5.252   5.123  17.099  0.00  0.00    +0.000 A 
ATOM     11  C   UNL     1       6.418   5.863  16.834  0.00  0.00    +0.000 A 
ATOM     12  N   UNL     1       6.950   5.562  15.645  0.00  0.00    +0.000 NA
ATOM     13  N   UNL     1       6.112   4.632  15.151  0.00  0.00    +0.000 N 
ATOM     14  C   UNL     1       6.348   4.079  13.840  0.00  0.00    +0.000 C 
ATOM     15  C   UNL     1       5.080   4.324  15.990  0.00  0.00    +0.000 A 
ENDBRANCH   7  10
BRANCH   1  16
ATOM     16  S   UNL     1       2.130   9.713  17.781  0.00  0.00    +0.000 S 
BRANCH  16  23
ATOM     17  C   UNL     1       0.378  11.042  19.649  0.00  0.00    +0.000 A 
ATOM     18  C   UNL     1      -0.931  11.397  20.025  0.00  0.00    +0.000 A 
ATOM     19  C   UNL     1      -2.034  10.973  19.283  0.00  0.00    +0.000 A 
ATOM     20  C   UNL     1      -1.838  10.204  18.147  0.00  0.00    +0.000 A 
ATOM     21 CL   UNL     1      -3.192   9.663  17.236  0.00  0.00    +0.000 Cl
ATOM     22  C   UNL     1      -0.547   9.869  17.743  0.00  0.00    +0.000 A 
ATOM     23  C   UNL     1       0.582  10.284  18.479  0.00  0.00    +0.000 A 
BRANCH  17  25
ATOM     24  C   UNL     1       1.757  12.838  20.378  0.00  0.00    +0.000 C 
ATOM     25  O   UNL     1       1.473  11.439  20.373  0.00  0.00    +0.000 OA
ENDBRANCH  17  25
ENDBRANCH  16  23
ENDBRANCH   1  16
TORSDOF 4
ENDMDL
MODEL 7
REMARK VINA RESULT:      -6.9     12.016     15.475
REMARK  Name = 
REMARK  6 active torsions:
REMARK  status: ('A' for Active; 'I' for Inactive)
REMARK    1  A    between atoms: C_1  and  O_2
REMARK    2  A    between atoms: O_2  and  C_3
REMARK    3  A    between atoms: C_9  and  S_10
REMARK    4  A    between atoms: S_10  and  C_11
REMARK    5  A    between atoms: C_17  and  C_18
REMARK    6  A    between atoms: N_21  and  C_22
REMARK                            x       y       z     vdW  Elec       q    Type
REMARK                         _______ _______ _______ _____ _____    ______ ____
ROOT
ATOM      1  C   UNL     1      -6.667  12.202  19.561  0.00  0.00    +0.000 A 
ATOM      2  C   UNL     1      -7.229  10.825  19.486  0.00  0.00    +0.000 A 
ATOM      3  C   UNL     1      -7.700  10.300  20.626  0.00  0.00    +0.000 A 
ATOM      4  C   UNL     1      -7.604  11.048  21.819  0.00  0.00    +0.000 A 
ATOM      5  N   UNL     1      -7.916  10.772  23.065  0.00  0.00    +0.000 NA
ATOM      6  N   UNL     1      -7.500  11.833  23.844  0.00  0.00    +0.000 NA
ATOM      7  C   UNL     1      -6.960  12.743  23.050  0.00  0.00    +0.000 A 
ATOM      8  N   UNL     1      -7.031  12.305  21.745  0.00  0.00    +0.000 N 
ATOM      9  N   UNL     1      -6.549  12.926  20.623  0.00  0.00    +0.000 NA
ENDROOT
BRANCH   7  10
ATOM     10  C   UNL     1      -6.331  14.001  23.513  0.00  0.00    +0.000 A 
ATOM     11  C   UNL     1      -6.920  15.259  23.735  0.00  0.00    +0.000 A 
ATOM     12  N   UNL     1      -6.028  16.175  24.126  0.00  0.00    +0.000 NA
ATOM     13  N   UNL     1      -4.867  15.495  24.146  0.00  0.00    +0.000 N 
ATOM     14  C   UNL     1      -3.645  16.175  24.497  0.00  0.00    +0.000 C 
ATOM     15  C   UNL     1      -4.995  14.182  23.795  0.00  0.00    +0.000 A 
ENDBRANCH   7  10
BRANCH   1  16
ATOM     16  S   UNL     1      -5.977  12.771  18.068  0.00  0.00    +0.000 S 
BRANCH  16  23
ATOM     17  C   UNL     1      -3.370  11.681  18.655  0.00  0.00    +0.000 A 
ATOM     18  C   UNL     1      -2.268  10.912  18.238  0.00  0.00    +0.000 A 
ATOM     19  C   UNL     1      -2.220  10.355  16.959  0.00  0.00    +0.000 A 
ATOM     20  C   UNL     1      -3.283  10.548  16.090  0.00  0.00    +0.000 A 
ATOM     21 CL   UNL     1      -3.225   9.878  14.507  0.00  0.00    +0.000 Cl
ATOM     22  C   UNL     1      -4.395  11.281  16.497  0.00  0.00    +0.000 A 
ATOM     23  C   UNL     1      -4.463  11.855  17.783  0.00  0.00    +0.000 A 
BRANCH  17  25
ATOM     24  C   UNL     1      -2.193  12.698  20.453  0.00  0.00    +0.000 C 
ATOM     25  O   UNL     1      -3.429  12.246  19.902  0.00  0.00    +0.000 OA
ENDBRANCH  17  25
ENDBRANCH  16  23
ENDBRANCH   1  16
TORSDOF 4
ENDMDL
MODEL 8
REMARK VINA RESULT:      -6.9      3.668      5.716
REMARK  Name = 
REMARK  6 active torsions:
REMARK  status: ('A' for Active; 'I' for Inactive)
REMARK    1  A    between atoms: C_1  and  O_2
REMARK    2  A    between atoms: O_2  and  C_3
REMARK    3  A    between atoms: C_9  and  S_10
REMARK    4  A    between atoms: S_10  and  C_11
REMARK    5  A    between atoms: C_17  and  C_18
REMARK    6  A    between atoms: N_21  and  C_22
REMARK                            x       y       z     vdW  Elec       q    Type
REMARK                         _______ _______ _______ _____ _____    ______ ____
ROOT
ATOM      1  C   UNL     1       2.704   7.601  18.686  0.00  0.00    +0.000 A 
ATOM      2  C   UNL     1       1.730   7.248  19.755  0.00  0.00    +0.000 A 
ATOM      3  C   UNL     1       1.841   6.027  20.298  0.00  0.00    +0.000 A 
ATOM      4  C   UNL     1       2.829   5.145  19.811  0.00  0.00    +0.000 A 
ATOM      5  N   UNL     1       3.124   3.898  20.100  0.00  0.00    +0.000 NA
ATOM      6  N   UNL     1       4.116   3.491  19.230  0.00  0.00    +0.000 NA
ATOM      7  C   UNL     1       4.418   4.509  18.442  0.00  0.00    +0.000 A 
ATOM      8  N   UNL     1       3.649   5.598  18.792  0.00  0.00    +0.000 N 
ATOM      9  N   UNL     1       3.621   6.833  18.199  0.00  0.00    +0.000 NA
ENDROOT
BRANCH   7  10
ATOM     10  C   UNL     1       5.391   4.453  17.326  0.00  0.00    +0.000 A 
ATOM     11  C   UNL     1       6.780   4.673  17.347  0.00  0.00    +0.000 A 
ATOM     12  N   UNL     1       7.329   4.564  16.133  0.00  0.00    +0.000 NA
ATOM     13  N   UNL     1       6.281   4.280  15.338  0.00  0.00    +0.000 N 
ATOM     14  C   UNL     1       6.481   4.119  13.919  0.00  0.00    +0.000 C 
ATOM     15  C   UNL     1       5.094   4.192  16.007  0.00  0.00    +0.000 A 
ENDBRANCH   7  10
BRANCH   1  16
ATOM     16  S   UNL     1       2.428   9.155  17.955  0.00  0.00    +0.000 S 
BRANCH  16  23
ATOM     17  C   UNL     1       0.361  10.193  19.680  0.00  0.00    +0.000 A 
ATOM     18  C   UNL     1      -0.983  10.575  19.849  0.00  0.00    +0.000 A 
ATOM     19  C   UNL     1      -1.910  10.429  18.816  0.00  0.00    +0.000 A 
ATOM     20  C   UNL     1      -1.497   9.916  17.596  0.00  0.00    +0.000 A 
ATOM     21 CL   UNL     1      -2.636   9.718  16.323  0.00  0.00    +0.000 Cl
ATOM     22  C   UNL     1      -0.165   9.561  17.401  0.00  0.00    +0.000 A 
ATOM     23  C   UNL     1       0.788   9.698  18.432  0.00  0.00    +0.000 A 
BRANCH  17  25
ATOM     24  C   UNL     1       0.850   9.934  21.992  0.00  0.00    +0.000 C 
ATOM     25  O   UNL     1       1.282  10.318  20.687  0.00  0.00    +0.000 OA
ENDBRANCH  17  25
ENDBRANCH  16  23
ENDBRANCH   1  16
TORSDOF 4
ENDMDL
MODEL 9
REMARK VINA RESULT:      -6.9      3.758      5.759
REMARK  Name = 
REMARK  6 active torsions:
REMARK  status: ('A' for Active; 'I' for Inactive)
REMARK    1  A    between atoms: C_1  and  O_2
REMARK    2  A    between atoms: O_2  and  C_3
REMARK    3  A    between atoms: C_9  and  S_10
REMARK    4  A    between atoms: S_10  and  C_11
REMARK    5  A    between atoms: C_17  and  C_18
REMARK    6  A    between atoms: N_21  and  C_22
REMARK                            x       y       z     vdW  Elec       q    Type
REMARK                         _______ _______ _______ _____ _____    ______ ____
ROOT
ATOM      1  C   UNL     1       2.682   7.283  18.477  0.00  0.00    +0.000 A 
ATOM      2  C   UNL     1       2.024   6.818  19.729  0.00  0.00    +0.000 A 
ATOM      3  C   UNL     1       2.533   5.723  20.311  0.00  0.00    +0.000 A 
ATOM      4  C   UNL     1       3.617   5.059  19.698  0.00  0.00    +0.000 A 
ATOM      5  N   UNL     1       4.264   3.956  19.998  0.00  0.00    +0.000 NA
ATOM      6  N   UNL     1       5.166   3.712  18.982  0.00  0.00    +0.000 NA
ATOM      7  C   UNL     1       5.062   4.686  18.094  0.00  0.00    +0.000 A 
ATOM      8  N   UNL     1       4.111   5.588  18.519  0.00  0.00    +0.000 N 
ATOM      9  N   UNL     1       3.669   6.712  17.872  0.00  0.00    +0.000 NA
ENDROOT
BRANCH   7  10
ATOM     10  C   UNL     1       5.815   4.751  16.820  0.00  0.00    +0.000 A 
ATOM     11  C   UNL     1       6.943   5.525  16.494  0.00  0.00    +0.000 A 
ATOM     12  N   UNL     1       7.335   5.342  15.228  0.00  0.00    +0.000 NA
ATOM     13  N   UNL     1       6.446   4.452  14.749  0.00  0.00    +0.000 N 
ATOM     14  C   UNL     1       6.530   4.026  13.374  0.00  0.00    +0.000 C 
ATOM     15  C   UNL     1       5.517   4.057  15.668  0.00  0.00    +0.000 A 
ENDBRANCH   7  10
BRANCH   1  16
ATOM     16  S   UNL     1       1.900   8.642  17.724  0.00  0.00    +0.000 S 
BRANCH  16  23
ATOM     17  C   UNL     1       1.610  11.153  19.116  0.00  0.00    +0.000 A 
ATOM     18  C   UNL     1       1.115  11.860  20.226  0.00  0.00    +0.000 A 
ATOM     19  C   UNL     1       0.443  11.204  21.258  0.00  0.00    +0.000 A 
ATOM     20  C   UNL     1       0.246   9.834  21.182  0.00  0.00    +0.000 A 
ATOM     21 CL   UNL     1      -0.566   9.014  22.456  0.00  0.00    +0.000 Cl
ATOM     22  C   UNL     1       0.704   9.122  20.076  0.00  0.00    +0.000 A 
ATOM     23  C   UNL     1       1.387   9.765  19.022  0.00  0.00    +0.000 A 
BRANCH  17  25
ATOM     24  C   UNL     1       2.626  13.147  18.313  0.00  0.00    +0.000 C 
ATOM     25  O   UNL     1       2.283  11.779  18.098  0.00  0.00    +0.000 OA
ENDBRANCH  17  25
ENDBRANCH  16  23
ENDBRANCH   1  16
TORSDOF 4
ENDMDL
