MODEL 1
REMARK VINA RESULT:      -8.3      0.000      0.000
REMARK  Name = 
REMARK  7 active torsions:
REMARK  status: ('A' for Active; 'I' for Inactive)
REMARK    1  A    between atoms: N_1  and  C_2
REMARK    2  A    between atoms: C_7  and  N_8
REMARK    3  A    between atoms: C_9  and  C_11
REMARK    4  A    between atoms: C_12  and  C_13
REMARK    5  A    between atoms: C_16  and  C_17
REMARK    6  A    between atoms: C_17  and  S_18
REMARK    7  A    between atoms: S_18  and  C_19
REMARK                            x       y       z     vdW  Elec       q    Type
REMARK                         _______ _______ _______ _____ _____    ______ ____
ROOT
ATOM      1  C   UNL     1       8.347   8.968  17.801  0.00  0.00    +0.000 C 
ATOM      2  C   UNL     1       8.911   9.398  18.944  0.00  0.00    +0.000 C 
ENDROOT
BRANCH   2   3
ATOM      3  C   UNL     1       9.578  10.685  19.141  0.00  0.00    +0.000 A 
ATOM      4  C   UNL     1      10.021  11.102  20.395  0.00  0.00    +0.000 A 
ATOM      5  C   UNL     1      10.696  12.314  20.534  0.00  0.00    +0.000 A 
ATOM      6  C   UNL     1      11.004  13.110  19.419  0.00  0.00    +0.000 A 
ATOM      7  C   UNL     1      10.544  12.694  18.162  0.00  0.00    +0.000 A 
ATOM      8  C   UNL     1       9.846  11.490  18.026  0.00  0.00    +0.000 A 
BRANCH   6   9
ATOM      9  C   UNL     1      11.779  14.407  19.549  0.00  0.00    +0.000 C 
BRANCH   9  10
ATOM     10  S   UNL     1      10.838  15.695  20.448  0.00  0.00    +0.000 S 
BRANCH  10  11
ATOM     11  C   UNL     1       9.185  15.593  19.805  0.00  0.00    +0.000 A 
ATOM     12  C   UNL     1       8.063  15.154  20.513  0.00  0.00    +0.000 A 
ATOM     13  C   UNL     1       6.822  15.063  19.877  0.00  0.00    +0.000 A 
ATOM     14  C   UNL     1       6.703  15.424  18.538  0.00  0.00    +0.000 A 
ATOM     15  F   UNL     1       5.520  15.314  17.927  0.00  0.00    +0.000 F 
ATOM     16  C   UNL     1       7.800  15.890  17.827  0.00  0.00    +0.000 A 
ATOM     17  C   UNL     1       9.037  15.978  18.462  0.00  0.00    +0.000 A 
ENDBRANCH  10  11
ENDBRANCH   9  10
ENDBRANCH   6   9
ENDBRANCH   2   3
BRANCH   1  19
ATOM     18  N   UNL     1       6.781   7.420  16.830  0.00  0.00    +0.000 N 
ATOM     19  C   UNL     1       7.706   7.627  17.832  0.00  0.00    +0.000 C 
ATOM     20  O   UNL     1       8.042   6.816  18.693  0.00  0.00    +0.000 OA
ATOM     21  H   UNL     1       6.735   8.086  16.075  0.00  0.00    +0.000 HD
BRANCH  18  27
ATOM     22  C   UNL     1       6.334   5.265  15.744  0.00  0.00    +0.000 A 
ATOM     23  C   UNL     1       5.576   4.078  15.696  0.00  0.00    +0.000 A 
ATOM     24  C   UNL     1       4.442   3.903  16.492  0.00  0.00    +0.000 A 
ATOM     25  C   UNL     1       4.064   4.902  17.374  0.00  0.00    +0.000 A 
ATOM     26  C   UNL     1       4.826   6.064  17.467  0.00  0.00    +0.000 A 
ATOM     27  C   UNL     1       5.981   6.250  16.690  0.00  0.00    +0.000 A 
BRANCH  22  28
ATOM     28  N   UNL     1       7.545   5.296  15.022  0.00  0.00    +0.000 N 
ATOM     29  H   UNL     1       8.335   4.953  15.560  0.00  0.00    +0.000 HD
ATOM     30  H   UNL     1       7.514   4.877  14.104  0.00  0.00    +0.000 HD
ENDBRANCH  22  28
ENDBRANCH  18  27
ENDBRANCH   1  19
TORSDOF 7
ENDMDL
MODEL 2
REMARK VINA RESULT:      -8.2      4.799     10.347
REMARK  Name = 
REMARK  7 active torsions:
REMARK  status: ('A' for Active; 'I' for Inactive)
REMARK    1  A    between atoms: N_1  and  C_2
REMARK    2  A    between atoms: C_7  and  N_8
REMARK    3  A    between atoms: C_9  and  C_11
REMARK    4  A    between atoms: C_12  and  C_13
REMARK    5  A    between atoms: C_16  and  C_17
REMARK    6  A    between atoms: C_17  and  S_18
REMARK    7  A    between atoms: S_18  and  C_19
REMARK                            x       y       z     vdW  Elec       q    Type
REMARK                         _______ _______ _______ _____ _____    ______ ____
ROOT
ATOM      1  C   UNL     1       8.257   9.836  17.954  0.00  0.00    +0.000 C 
ATOM      2  C   UNL     1       8.564   8.612  18.420  0.00  0.00    +0.000 C 
ENDROOT
BRANCH   2   3
ATOM      3  C   UNL     1       7.805   7.386  18.179  0.00  0.00    +0.000 A 
ATOM      4  C   UNL     1       7.990   6.240  18.950  0.00  0.00    +0.000 A 
ATOM      5  C   UNL     1       7.211   5.106  18.721  0.00  0.00    +0.000 A 
ATOM      6  C   UNL     1       6.185   5.106  17.762  0.00  0.00    +0.000 A 
ATOM      7  C   UNL     1       6.012   6.256  16.979  0.00  0.00    +0.000 A 
ATOM      8  C   UNL     1       6.809   7.385  17.193  0.00  0.00    +0.000 A 
BRANCH   6   9
ATOM      9  C   UNL     1       5.300   3.896  17.535  0.00  0.00    +0.000 C 
BRANCH   9  10
ATOM     10  S   UNL     1       3.549   4.355  17.257  0.00  0.00    +0.000 S 
BRANCH  10  11
ATOM     11  C   UNL     1       2.682   3.758  18.688  0.00  0.00    +0.000 A 
ATOM     12  C   UNL     1       1.297   3.793  18.873  0.00  0.00    +0.000 A 
ATOM     13  C   UNL     1       0.737   3.345  20.072  0.00  0.00    +0.000 A 
ATOM     14  C   UNL     1       1.562   2.850  21.078  0.00  0.00    +0.000 A 
ATOM     15  F   UNL     1       1.024   2.444  22.232  0.00  0.00    +0.000 F 
ATOM     16  C   UNL     1       2.936   2.780  20.902  0.00  0.00    +0.000 A 
ATOM     17  C   UNL     1       3.493   3.229  19.706  0.00  0.00    +0.000 A 
ENDBRANCH  10  11
ENDBRANCH   9  10
ENDBRANCH   6   9
ENDBRANCH   2   3
BRANCH   1  19
ATOM     18  N   UNL     1       8.888  12.145  17.702  0.00  0.00    +0.000 N 
ATOM     19  C   UNL     1       9.184  10.942  18.309  0.00  0.00    +0.000 C 
ATOM     20  O   UNL     1      10.099  10.732  19.103  0.00  0.00    +0.000 OA
ATOM     21  H   UNL     1       8.004  12.236  17.226  0.00  0.00    +0.000 HD
BRANCH  18  27
ATOM     22  C   UNL     1       9.237  14.373  18.671  0.00  0.00    +0.000 A 
ATOM     23  C   UNL     1      10.077  15.491  18.839  0.00  0.00    +0.000 A 
ATOM     24  C   UNL     1      11.265  15.627  18.118  0.00  0.00    +0.000 A 
ATOM     25  C   UNL     1      11.650  14.629  17.238  0.00  0.00    +0.000 A 
ATOM     26  C   UNL     1      10.855  13.495  17.091  0.00  0.00    +0.000 A 
ATOM     27  C   UNL     1       9.667  13.331  17.822  0.00  0.00    +0.000 A 
BRANCH  22  28
ATOM     28  N   UNL     1       8.138  14.243  19.546  0.00  0.00    +0.000 N 
ATOM     29  H   UNL     1       7.903  15.112  20.016  0.00  0.00    +0.000 HD
ATOM     30  H   UNL     1       7.319  13.803  19.153  0.00  0.00    +0.000 HD
ENDBRANCH  22  28
ENDBRANCH  18  27
ENDBRANCH   1  19
TORSDOF 7
ENDMDL
MODEL 3
REMARK VINA RESULT:      -8.2      4.721     10.178
REMARK  Name = 
REMARK  7 active torsions:
REMARK  status: ('A' for Active; 'I' for Inactive)
REMARK    1  A    between atoms: N_1  and  C_2
REMARK    2  A    between atoms: C_7  and  N_8
REMARK    3  A    between atoms: C_9  and  C_11
REMARK    4  A    between atoms: C_12  and  C_13
REMARK    5  A    between atoms: C_16  and  C_17
REMARK    6  A    between atoms: C_17  and  S_18
REMARK    7  A    between atoms: S_18  and  C_19
REMARK                            x       y       z     vdW  Elec       q    Type
REMARK                         _______ _______ _______ _____ _____    ______ ____
ROOT
ATOM      1  C   UNL     1       8.970   9.204  18.800  0.00  0.00    +0.000 C 
ATOM      2  C   UNL     1       7.883   8.970  18.044  0.00  0.00    +0.000 C 
ENDROOT
BRANCH   2   3
ATOM      3  C   UNL     1       7.307   7.658  17.751  0.00  0.00    +0.000 A 
ATOM      4  C   UNL     1       7.831   6.485  18.290  0.00  0.00    +0.000 A 
ATOM      5  C   UNL     1       7.224   5.258  18.026  0.00  0.00    +0.000 A 
ATOM      6  C   UNL     1       6.041   5.175  17.273  0.00  0.00    +0.000 A 
ATOM      7  C   UNL     1       5.525   6.357  16.722  0.00  0.00    +0.000 A 
ATOM      8  C   UNL     1       6.148   7.585  16.967  0.00  0.00    +0.000 A 
BRANCH   6   9
ATOM      9  C   UNL     1       5.343   3.853  17.018  0.00  0.00    +0.000 C 
BRANCH   9  10
ATOM     10  S   UNL     1       3.539   4.051  16.781  0.00  0.00    +0.000 S 
BRANCH  10  11
ATOM     11  C   UNL     1       2.811   3.529  18.314  0.00  0.00    +0.000 A 
ATOM     12  C   UNL     1       1.463   3.655  18.659  0.00  0.00    +0.000 A 
ATOM     13  C   UNL     1       1.021   3.258  19.924  0.00  0.00    +0.000 A 
ATOM     14  C   UNL     1       1.925   2.722  20.837  0.00  0.00    +0.000 A 
ATOM     15  F   UNL     1       1.503   2.365  22.053  0.00  0.00    +0.000 F 
ATOM     16  C   UNL     1       3.262   2.562  20.501  0.00  0.00    +0.000 A 
ATOM     17  C   UNL     1       3.702   2.960  19.241  0.00  0.00    +0.000 A 
ENDBRANCH  10  11
ENDBRANCH   9  10
ENDBRANCH   6   9
ENDBRANCH   2   3
BRANCH   1  19
ATOM     18  N   UNL     1       9.327  11.375  17.823  0.00  0.00    +0.000 N 
ATOM     19  C   UNL     1       9.370  10.625  18.980  0.00  0.00    +0.000 C 
ATOM     20  O   UNL     1       9.675  11.029  20.100  0.00  0.00    +0.000 OA
ATOM     21  H   UNL     1       8.879  10.979  17.012  0.00  0.00    +0.000 HD
BRANCH  18  27
ATOM     22  C   UNL     1      11.080  13.050  17.443  0.00  0.00    +0.000 A 
ATOM     23  C   UNL     1      11.429  14.402  17.255  0.00  0.00    +0.000 A 
ATOM     24  C   UNL     1      10.498  15.428  17.428  0.00  0.00    +0.000 A 
ATOM     25  C   UNL     1       9.190  15.116  17.763  0.00  0.00    +0.000 A 
ATOM     26  C   UNL     1       8.815  13.782  17.910  0.00  0.00    +0.000 A 
ATOM     27  C   UNL     1       9.733  12.736  17.720  0.00  0.00    +0.000 A 
BRANCH  22  28
ATOM     28  N   UNL     1      12.039  12.074  17.100  0.00  0.00    +0.000 N 
ATOM     29  H   UNL     1      12.909  12.178  17.614  0.00  0.00    +0.000 HD
ATOM     30  H   UNL     1      11.712  11.119  17.117  0.00  0.00    +0.000 HD
ENDBRANCH  22  28
ENDBRANCH  18  27
ENDBRANCH   1  19
TORSDOF 7
ENDMDL
MODEL 4
REMARK VINA RESULT:      -7.9      4.630     10.146
REMARK  Name = 
REMARK  7 active torsions:
REMARK  status: ('A' for Active; 'I' for Inactive)
REMARK    1  A    between atoms: N_1  and  C_2
REMARK    2  A    between atoms: C_7  and  N_8
REMARK    3  A    between atoms: C_9  and  C_11
REMARK    4  A    between atoms: C_12  and  C_13
REMARK    5  A    between atoms: C_16  and  C_17
REMARK    6  A    between atoms: C_17  and  S_18
REMARK    7  A    between atoms: S_18  and  C_19
REMARK                            x       y       z     vdW  Elec       q    Type
REMARK                         _______ _______ _______ _____ _____    ______ ____
ROOT
ATOM      1  C   UNL     1       8.736   8.720  18.765  0.00  0.00    +0.000 C 
ATOM      2  C   UNL     1       7.792   8.541  17.824  0.00  0.00    +0.000 C 
ENDROOT
BRANCH   2   3
ATOM      3  C   UNL     1       7.135   7.277  17.497  0.00  0.00    +0.000 A 
ATOM      4  C   UNL     1       7.661   6.048  17.890  0.00  0.00    +0.000 A 
ATOM      5  C   UNL     1       6.979   4.867  17.601  0.00  0.00    +0.000 A 
ATOM      6  C   UNL     1       5.725   4.883  16.970  0.00  0.00    +0.000 A 
ATOM      7  C   UNL     1       5.206   6.120  16.563  0.00  0.00    +0.000 A 
ATOM      8  C   UNL     1       5.901   7.304  16.832  0.00  0.00    +0.000 A 
BRANCH   6   9
ATOM      9  C   UNL     1       4.950   3.610  16.691  0.00  0.00    +0.000 C 
BRANCH   9  10
ATOM     10  S   UNL     1       3.138   3.866  16.757  0.00  0.00    +0.000 S 
BRANCH  10  11
ATOM     11  C   UNL     1       2.694   3.588  18.453  0.00  0.00    +0.000 A 
ATOM     12  C   UNL     1       1.555   4.092  19.089  0.00  0.00    +0.000 A 
ATOM     13  C   UNL     1       1.345   3.850  20.450  0.00  0.00    +0.000 A 
ATOM     14  C   UNL     1       2.267   3.094  21.168  0.00  0.00    +0.000 A 
ATOM     15  F   UNL     1       2.073   2.885  22.474  0.00  0.00    +0.000 F 
ATOM     16  C   UNL     1       3.387   2.561  20.548  0.00  0.00    +0.000 A 
ATOM     17  C   UNL     1       3.597   2.804  19.192  0.00  0.00    +0.000 A 
ENDBRANCH  10  11
ENDBRANCH   9  10
ENDBRANCH   6   9
ENDBRANCH   2   3
BRANCH   1  19
ATOM     18  N   UNL     1       9.735  10.678  17.784  0.00  0.00    +0.000 N 
ATOM     19  C   UNL     1       9.255  10.102  18.942  0.00  0.00    +0.000 C 
ATOM     20  O   UNL     1       9.202  10.630  20.051  0.00  0.00    +0.000 OA
ATOM     21  H   UNL     1       9.547  10.218  16.907  0.00  0.00    +0.000 HD
BRANCH  18  27
ATOM     22  C   UNL     1       9.574  13.095  17.394  0.00  0.00    +0.000 A 
ATOM     23  C   UNL     1      10.194  14.360  17.419  0.00  0.00    +0.000 A 
ATOM     24  C   UNL     1      11.564  14.497  17.651  0.00  0.00    +0.000 A 
ATOM     25  C   UNL     1      12.333  13.371  17.895  0.00  0.00    +0.000 A 
ATOM     26  C   UNL     1      11.730  12.116  17.918  0.00  0.00    +0.000 A 
ATOM     27  C   UNL     1      10.350  11.960  17.707  0.00  0.00    +0.000 A 
BRANCH  22  28
ATOM     28  N   UNL     1       8.167  13.060  17.305  0.00  0.00    +0.000 N 
ATOM     29  H   UNL     1       7.782  12.137  17.486  0.00  0.00    +0.000 HD
ATOM     30  H   UNL     1       7.680  13.771  17.830  0.00  0.00    +0.000 HD
ENDBRANCH  22  28
ENDBRANCH  18  27
ENDBRANCH   1  19
TORSDOF 7
ENDMDL
MODEL 5
REMARK VINA RESULT:      -7.8      1.660      2.277
REMARK  Name = 
REMARK  7 active torsions:
REMARK  status: ('A' for Active; 'I' for Inactive)
REMARK    1  A    between atoms: N_1  and  C_2
REMARK    2  A    between atoms: C_7  and  N_8
REMARK    3  A    between atoms: C_9  and  C_11
REMARK    4  A    between atoms: C_12  and  C_13
REMARK    5  A    between atoms: C_16  and  C_17
REMARK    6  A    between atoms: C_17  and  S_18
REMARK    7  A    between atoms: S_18  and  C_19
REMARK                            x       y       z     vdW  Elec       q    Type
REMARK                         _______ _______ _______ _____ _____    ______ ____
ROOT
ATOM      1  C   UNL     1       8.171   9.177  17.722  0.00  0.00    +0.000 C 
ATOM      2  C   UNL     1       8.908   9.566  18.778  0.00  0.00    +0.000 C 
ENDROOT
BRANCH   2   3
ATOM      3  C   UNL     1       9.534  10.875  18.953  0.00  0.00    +0.000 A 
ATOM      4  C   UNL     1       9.278  11.937  18.088  0.00  0.00    +0.000 A 
ATOM      5  C   UNL     1       9.856  13.185  18.317  0.00  0.00    +0.000 A 
ATOM      6  C   UNL     1      10.653  13.424  19.448  0.00  0.00    +0.000 A 
ATOM      7  C   UNL     1      10.921  12.349  20.307  0.00  0.00    +0.000 A 
ATOM      8  C   UNL     1      10.359  11.091  20.065  0.00  0.00    +0.000 A 
BRANCH   6   9
ATOM      9  C   UNL     1      11.251  14.788  19.734  0.00  0.00    +0.000 C 
BRANCH   9  10
ATOM     10  S   UNL     1       9.985  16.013  20.236  0.00  0.00    +0.000 S 
BRANCH  10  11
ATOM     11  C   UNL     1       8.931  15.149  21.374  0.00  0.00    +0.000 A 
ATOM     12  C   UNL     1       9.296  14.713  22.650  0.00  0.00    +0.000 A 
ATOM     13  C   UNL     1       8.391  13.989  23.431  0.00  0.00    +0.000 A 
ATOM     14  C   UNL     1       7.118  13.714  22.939  0.00  0.00    +0.000 A 
ATOM     15  F   UNL     1       6.264  13.002  23.680  0.00  0.00    +0.000 F 
ATOM     16  C   UNL     1       6.728  14.163  21.686  0.00  0.00    +0.000 A 
ATOM     17  C   UNL     1       7.632  14.883  20.908  0.00  0.00    +0.000 A 
ENDBRANCH  10  11
ENDBRANCH   9  10
ENDBRANCH   6   9
ENDBRANCH   2   3
BRANCH   1  19
ATOM     18  N   UNL     1       6.551   7.595  16.906  0.00  0.00    +0.000 N 
ATOM     19  C   UNL     1       7.613   7.800  17.763  0.00  0.00    +0.000 C 
ATOM     20  O   UNL     1       8.124   6.962  18.503  0.00  0.00    +0.000 OA
ATOM     21  H   UNL     1       6.351   8.300  16.215  0.00  0.00    +0.000 HD
BRANCH  18  27
ATOM     22  C   UNL     1       6.293   5.309  16.051  0.00  0.00    +0.000 A 
ATOM     23  C   UNL     1       5.573   4.098  16.058  0.00  0.00    +0.000 A 
ATOM     24  C   UNL     1       4.350   3.979  16.721  0.00  0.00    +0.000 A 
ATOM     25  C   UNL     1       3.840   5.063  17.418  0.00  0.00    +0.000 A 
ATOM     26  C   UNL     1       4.560   6.256  17.459  0.00  0.00    +0.000 A 
ATOM     27  C   UNL     1       5.801   6.388  16.815  0.00  0.00    +0.000 A 
BRANCH  22  28
ATOM     28  N   UNL     1       7.586   5.297  15.487  0.00  0.00    +0.000 N 
ATOM     29  H   UNL     1       8.260   5.823  16.035  0.00  0.00    +0.000 HD
ATOM     30  H   UNL     1       7.943   4.386  15.239  0.00  0.00    +0.000 HD
ENDBRANCH  22  28
ENDBRANCH  18  27
ENDBRANCH   1  19
TORSDOF 7
ENDMDL
MODEL 6
REMARK VINA RESULT:      -7.8      1.207      1.607
REMARK  Name = 
REMARK  7 active torsions:
REMARK  status: ('A' for Active; 'I' for Inactive)
REMARK    1  A    between atoms: N_1  and  C_2
REMARK    2  A    between atoms: C_7  and  N_8
REMARK    3  A    between atoms: C_9  and  C_11
REMARK    4  A    between atoms: C_12  and  C_13
REMARK    5  A    between atoms: C_16  and  C_17
REMARK    6  A    between atoms: C_17  and  S_18
REMARK    7  A    between atoms: S_18  and  C_19
REMARK                            x       y       z     vdW  Elec       q    Type
REMARK                         _______ _______ _______ _____ _____    ______ ____
ROOT
ATOM      1  C   UNL     1       8.245   9.074  17.720  0.00  0.00    +0.000 C 
ATOM      2  C   UNL     1       8.859   9.526  18.828  0.00  0.00    +0.000 C 
ENDROOT
BRANCH   2   3
ATOM      3  C   UNL     1       9.488  10.836  18.986  0.00  0.00    +0.000 A 
ATOM      4  C   UNL     1       9.411  11.816  17.998  0.00  0.00    +0.000 A 
ATOM      5  C   UNL     1       9.983  13.071  18.207  0.00  0.00    +0.000 A 
ATOM      6  C   UNL     1      10.589  13.403  19.429  0.00  0.00    +0.000 A 
ATOM      7  C   UNL     1      10.678  12.409  20.415  0.00  0.00    +0.000 A 
ATOM      8  C   UNL     1      10.125  11.143  20.196  0.00  0.00    +0.000 A 
BRANCH   6   9
ATOM      9  C   UNL     1      11.174  14.778  19.687  0.00  0.00    +0.000 C 
BRANCH   9  10
ATOM     10  S   UNL     1      10.724  15.983  18.384  0.00  0.00    +0.000 S 
BRANCH  10  11
ATOM     11  C   UNL     1       9.187  16.692  18.921  0.00  0.00    +0.000 A 
ATOM     12  C   UNL     1       9.046  17.691  19.889  0.00  0.00    +0.000 A 
ATOM     13  C   UNL     1       7.773  18.127  20.269  0.00  0.00    +0.000 A 
ATOM     14  C   UNL     1       6.645  17.573  19.671  0.00  0.00    +0.000 A 
ATOM     15  F   UNL     1       5.430  17.976  20.053  0.00  0.00    +0.000 F 
ATOM     16  C   UNL     1       6.766  16.602  18.688  0.00  0.00    +0.000 A 
ATOM     17  C   UNL     1       8.035  16.167  18.311  0.00  0.00    +0.000 A 
ENDBRANCH  10  11
ENDBRANCH   9  10
ENDBRANCH   6   9
ENDBRANCH   2   3
BRANCH   1  19
ATOM     18  N   UNL     1       6.675   7.471  16.848  0.00  0.00    +0.000 N 
ATOM     19  C   UNL     1       7.655   7.710  17.789  0.00  0.00    +0.000 C 
ATOM     20  O   UNL     1       8.077   6.911  18.622  0.00  0.00    +0.000 OA
ATOM     21  H   UNL     1       6.555   8.136  16.101  0.00  0.00    +0.000 HD
BRANCH  18  27
ATOM     22  C   UNL     1       6.302   5.254  15.862  0.00  0.00    +0.000 A 
ATOM     23  C   UNL     1       5.579   4.045  15.865  0.00  0.00    +0.000 A 
ATOM     24  C   UNL     1       4.442   3.875  16.657  0.00  0.00    +0.000 A 
ATOM     25  C   UNL     1       4.025   4.903  17.487  0.00  0.00    +0.000 A 
ATOM     26  C   UNL     1       4.753   6.090  17.531  0.00  0.00    +0.000 A 
ATOM     27  C   UNL     1       5.910   6.273  16.757  0.00  0.00    +0.000 A 
BRANCH  22  28
ATOM     28  N   UNL     1       7.519   5.287  15.151  0.00  0.00    +0.000 N 
ATOM     29  H   UNL     1       8.305   4.946  15.698  0.00  0.00    +0.000 HD
ATOM     30  H   UNL     1       7.498   4.866  14.234  0.00  0.00    +0.000 HD
ENDBRANCH  22  28
ENDBRANCH  18  27
ENDBRANCH   1  19
TORSDOF 7
ENDMDL
MODEL 7
REMARK VINA RESULT:      -7.7      4.194      9.365
REMARK  Name = 
REMARK  7 active torsions:
REMARK  status: ('A' for Active; 'I' for Inactive)
REMARK    1  A    between atoms: N_1  and  C_2
REMARK    2  A    between atoms: C_7  and  N_8
REMARK    3  A    between atoms: C_9  and  C_11
REMARK    4  A    between atoms: C_12  and  C_13
REMARK    5  A    between atoms: C_16  and  C_17
REMARK    6  A    between atoms: C_17  and  S_18
REMARK    7  A    between atoms: S_18  and  C_19
REMARK                            x       y       z     vdW  Elec       q    Type
REMARK                         _______ _______ _______ _____ _____    ______ ____
ROOT
ATOM      1  C   UNL     1       9.089  10.196  17.847  0.00  0.00    +0.000 C 
ATOM      2  C   UNL     1       8.772   9.215  18.710  0.00  0.00    +0.000 C 
ENDROOT
BRANCH   2   3
ATOM      3  C   UNL     1       8.177   7.925  18.363  0.00  0.00    +0.000 A 
ATOM      4  C   UNL     1       8.320   6.803  19.178  0.00  0.00    +0.000 A 
ATOM      5  C   UNL     1       7.697   5.604  18.837  0.00  0.00    +0.000 A 
ATOM      6  C   UNL     1       6.864   5.507  17.710  0.00  0.00    +0.000 A 
ATOM      7  C   UNL     1       6.735   6.634  16.886  0.00  0.00    +0.000 A 
ATOM      8  C   UNL     1       7.379   7.831  17.215  0.00  0.00    +0.000 A 
BRANCH   6   9
ATOM      9  C   UNL     1       6.143   4.222  17.353  0.00  0.00    +0.000 C 
BRANCH   9  10
ATOM     10  S   UNL     1       4.443   4.523  16.742  0.00  0.00    +0.000 S 
BRANCH  10  11
ATOM     11  C   UNL     1       3.569   5.212  18.126  0.00  0.00    +0.000 A 
ATOM     12  C   UNL     1       3.227   4.527  19.295  0.00  0.00    +0.000 A 
ATOM     13  C   UNL     1       2.485   5.166  20.293  0.00  0.00    +0.000 A 
ATOM     14  C   UNL     1       2.098   6.492  20.125  0.00  0.00    +0.000 A 
ATOM     15  F   UNL     1       1.369   7.092  21.070  0.00  0.00    +0.000 F 
ATOM     16  C   UNL     1       2.454   7.198  18.984  0.00  0.00    +0.000 A 
ATOM     17  C   UNL     1       3.192   6.559  17.990  0.00  0.00    +0.000 A 
ENDBRANCH  10  11
ENDBRANCH   9  10
ENDBRANCH   6   9
ENDBRANCH   2   3
BRANCH   1  19
ATOM     18  N   UNL     1       9.342  12.589  17.779  0.00  0.00    +0.000 N 
ATOM     19  C   UNL     1       9.703  11.423  18.421  0.00  0.00    +0.000 C 
ATOM     20  O   UNL     1      10.439  11.328  19.401  0.00  0.00    +0.000 OA
ATOM     21  H   UNL     1       8.585  12.555  17.114  0.00  0.00    +0.000 HD
BRANCH  18  27
ATOM     22  C   UNL     1      10.878  14.443  17.301  0.00  0.00    +0.000 A 
ATOM     23  C   UNL     1      11.294  15.760  17.579  0.00  0.00    +0.000 A 
ATOM     24  C   UNL     1      10.784  16.473  18.665  0.00  0.00    +0.000 A 
ATOM     25  C   UNL     1       9.822  15.892  19.476  0.00  0.00    +0.000 A 
ATOM     26  C   UNL     1       9.366  14.607  19.190  0.00  0.00    +0.000 A 
ATOM     27  C   UNL     1       9.852  13.881  18.091  0.00  0.00    +0.000 A 
BRANCH  22  28
ATOM     28  N   UNL     1      11.329  13.855  16.101  0.00  0.00    +0.000 N 
ATOM     29  H   UNL     1      12.153  13.275  16.231  0.00  0.00    +0.000 HD
ATOM     30  H   UNL     1      10.624  13.378  15.559  0.00  0.00    +0.000 HD
ENDBRANCH  22  28
ENDBRANCH  18  27
ENDBRANCH   1  19
TORSDOF 7
ENDMDL
MODEL 8
REMARK VINA RESULT:      -7.7      4.162      9.484
REMARK  Name = 
REMARK  7 active torsions:
REMARK  status: ('A' for Active; 'I' for Inactive)
REMARK    1  A    between atoms: N_1  and  C_2
REMARK    2  A    between atoms: C_7  and  N_8
REMARK    3  A    between atoms: C_9  and  C_11
REMARK    4  A    between atoms: C_12  and  C_13
REMARK    5  A    between atoms: C_16  and  C_17
REMARK    6  A    between atoms: C_17  and  S_18
REMARK    7  A    between atoms: S_18  and  C_19
REMARK                            x       y       z     vdW  Elec       q    Type
REMARK                         _______ _______ _______ _____ _____    ______ ____
ROOT
ATOM      1  C   UNL     1       8.310   9.766  18.115  0.00  0.00    +0.000 C 
ATOM      2  C   UNL     1       8.572   8.499  18.485  0.00  0.00    +0.000 C 
ENDROOT
BRANCH   2   3
ATOM      3  C   UNL     1       7.777   7.322  18.138  0.00  0.00    +0.000 A 
ATOM      4  C   UNL     1       7.185   7.174  16.885  0.00  0.00    +0.000 A 
ATOM      5  C   UNL     1       6.476   6.014  16.575  0.00  0.00    +0.000 A 
ATOM      6  C   UNL     1       6.393   4.945  17.482  0.00  0.00    +0.000 A 
ATOM      7  C   UNL     1       6.977   5.104  18.747  0.00  0.00    +0.000 A 
ATOM      8  C   UNL     1       7.668   6.278  19.066  0.00  0.00    +0.000 A 
BRANCH   6   9
ATOM      9  C   UNL     1       5.665   3.659  17.141  0.00  0.00    +0.000 C 
BRANCH   9  10
ATOM     10  S   UNL     1       3.939   3.955  16.607  0.00  0.00    +0.000 S 
BRANCH  10  11
ATOM     11  C   UNL     1       3.219   4.944  17.895  0.00  0.00    +0.000 A 
ATOM     12  C   UNL     1       3.089   6.335  17.876  0.00  0.00    +0.000 A 
ATOM     13  C   UNL     1       2.556   7.006  18.981  0.00  0.00    +0.000 A 
ATOM     14  C   UNL     1       2.142   6.283  20.096  0.00  0.00    +0.000 A 
ATOM     15  F   UNL     1       1.655   6.930  21.158  0.00  0.00    +0.000 F 
ATOM     16  C   UNL     1       2.236   4.899  20.121  0.00  0.00    +0.000 A 
ATOM     17  C   UNL     1       2.770   4.232  19.020  0.00  0.00    +0.000 A 
ENDBRANCH  10  11
ENDBRANCH   9  10
ENDBRANCH   6   9
ENDBRANCH   2   3
BRANCH   1  19
ATOM     18  N   UNL     1       9.245  11.963  17.814  0.00  0.00    +0.000 N 
ATOM     19  C   UNL     1       9.268  10.809  18.569  0.00  0.00    +0.000 C 
ATOM     20  O   UNL     1       9.968  10.598  19.556  0.00  0.00    +0.000 OA
ATOM     21  H   UNL     1       8.495  12.089  17.152  0.00  0.00    +0.000 HD
BRANCH  18  27
ATOM     22  C   UNL     1      11.509  12.910  17.854  0.00  0.00    +0.000 A 
ATOM     23  C   UNL     1      12.333  14.049  17.952  0.00  0.00    +0.000 A 
ATOM     24  C   UNL     1      11.812  15.302  18.280  0.00  0.00    +0.000 A 
ATOM     25  C   UNL     1      10.449  15.445  18.484  0.00  0.00    +0.000 A 
ATOM     26  C   UNL     1       9.612  14.339  18.348  0.00  0.00    +0.000 A 
ATOM     27  C   UNL     1      10.115  13.075  18.000  0.00  0.00    +0.000 A 
BRANCH  22  28
ATOM     28  N   UNL     1      12.092  11.720  17.372  0.00  0.00    +0.000 N 
ATOM     29  H   UNL     1      12.986  11.876  16.914  0.00  0.00    +0.000 HD
ATOM     30  H   UNL     1      12.145  10.962  18.036  0.00  0.00    +0.000 HD
ENDBRANCH  22  28
ENDBRANCH  18  27
ENDBRANCH   1  19
TORSDOF 7
ENDMDL
MODEL 9
REMARK VINA RESULT:      -7.6      4.363      9.629
REMARK  Name = 
REMARK  7 active torsions:
REMARK  status: ('A' for Active; 'I' for Inactive)
REMARK    1  A    between atoms: N_1  and  C_2
REMARK    2  A    between atoms: C_7  and  N_8
REMARK    3  A    between atoms: C_9  and  C_11
REMARK    4  A    between atoms: C_12  and  C_13
REMARK    5  A    between atoms: C_16  and  C_17
REMARK    6  A    between atoms: C_17  and  S_18
REMARK    7  A    between atoms: S_18  and  C_19
REMARK                            x       y       z     vdW  Elec       q    Type
REMARK                         _______ _______ _______ _____ _____    ______ ____
ROOT
ATOM      1  C   UNL     1       8.219   8.196  18.580  0.00  0.00    +0.000 C 
ATOM      2  C   UNL     1       7.309   7.830  17.660  0.00  0.00    +0.000 C 
ENDROOT
BRANCH   2   3
ATOM      3  C   UNL     1       6.605   6.549  17.613  0.00  0.00    +0.000 A 
ATOM      4  C   UNL     1       6.497   5.724  18.730  0.00  0.00    +0.000 A 
ATOM      5  C   UNL     1       5.775   4.533  18.658  0.00  0.00    +0.000 A 
ATOM      6  C   UNL     1       5.088   4.166  17.489  0.00  0.00    +0.000 A 
ATOM      7  C   UNL     1       5.211   4.992  16.363  0.00  0.00    +0.000 A 
ATOM      8  C   UNL     1       5.955   6.174  16.429  0.00  0.00    +0.000 A 
BRANCH   6   9
ATOM      9  C   UNL     1       4.261   2.897  17.411  0.00  0.00    +0.000 C 
BRANCH   9  10
ATOM     10  S   UNL     1       2.462   3.239  17.376  0.00  0.00    +0.000 S 
BRANCH  10  11
ATOM     11  C   UNL     1       2.246   4.683  18.388  0.00  0.00    +0.000 A 
ATOM     12  C   UNL     1       2.385   6.005  17.957  0.00  0.00    +0.000 A 
ATOM     13  C   UNL     1       2.246   7.058  18.867  0.00  0.00    +0.000 A 
ATOM     14  C   UNL     1       1.956   6.786  20.201  0.00  0.00    +0.000 A 
ATOM     15  F   UNL     1       1.847   7.794  21.071  0.00  0.00    +0.000 F 
ATOM     16  C   UNL     1       1.786   5.481  20.640  0.00  0.00    +0.000 A 
ATOM     17  C   UNL     1       1.926   4.433  19.733  0.00  0.00    +0.000 A 
ENDBRANCH  10  11
ENDBRANCH   9  10
ENDBRANCH   6   9
ENDBRANCH   2   3
BRANCH   1  19
ATOM     18  N   UNL     1       9.657   9.912  19.466  0.00  0.00    +0.000 N 
ATOM     19  C   UNL     1       8.798   9.559  18.445  0.00  0.00    +0.000 C 
ATOM     20  O   UNL     1       8.510  10.244  17.466  0.00  0.00    +0.000 OA
ATOM     21  H   UNL     1       9.960   9.195  20.106  0.00  0.00    +0.000 HD
BRANCH  18  27
ATOM     22  C   UNL     1       9.932  12.025  20.684  0.00  0.00    +0.000 A 
ATOM     23  C   UNL     1      10.633  13.237  20.843  0.00  0.00    +0.000 A 
ATOM     24  C   UNL     1      11.583  13.659  19.911  0.00  0.00    +0.000 A 
ATOM     25  C   UNL     1      11.872  12.859  18.818  0.00  0.00    +0.000 A 
ATOM     26  C   UNL     1      11.222  11.637  18.667  0.00  0.00    +0.000 A 
ATOM     27  C   UNL     1      10.278  11.186  19.604  0.00  0.00    +0.000 A 
BRANCH  22  28
ATOM     28  N   UNL     1       9.104  11.604  21.745  0.00  0.00    +0.000 N 
ATOM     29  H   UNL     1       9.219  12.168  22.583  0.00  0.00    +0.000 HD
ATOM     30  H   UNL     1       8.129  11.482  21.514  0.00  0.00    +0.000 HD
ENDBRANCH  22  28
ENDBRANCH  18  27
ENDBRANCH   1  19
TORSDOF 7
ENDMDL
