MODEL 1
REMARK VINA RESULT:      -8.9      0.000      0.000
REMARK  Name = 
REMARK  6 active torsions:
REMARK  status: ('A' for Active; 'I' for Inactive)
REMARK    1  A    between atoms: C_1  and  C_2
REMARK    2  A    between atoms: C_6  and  C_7
REMARK    3  A    between atoms: C_7  and  N_8
REMARK    4  A    between atoms: C_11  and  C_12
REMARK    5  A    between atoms: C_12  and  N_13
REMARK    6  A    between atoms: N_16  and  C_17
REMARK                            x       y       z     vdW  Elec       q    Type
REMARK                         _______ _______ _______ _____ _____    ______ ____
ROOT
ATOM      1  C   UNL     1       7.102   6.876  17.324  0.00  0.00    +0.000 C 
ENDROOT
BRANCH   1   5
ATOM      2  N   UNL     1       4.848   4.028  16.934  0.00  0.00    +0.000 NA
ATOM      3  C   UNL     1       5.276   4.847  15.798  0.00  0.00    +0.000 C 
ATOM      4  C   UNL     1       6.797   4.941  15.664  0.00  0.00    +0.000 C 
ATOM      5  C   UNL     1       7.458   5.418  16.961  0.00  0.00    +0.000 C 
ATOM      6  C   UNL     1       7.038   4.448  18.075  0.00  0.00    +0.000 C 
ATOM      7  C   UNL     1       5.516   4.328  18.201  0.00  0.00    +0.000 C 
BRANCH   2   8
ATOM      8  C   UNL     1       3.378   3.954  17.063  0.00  0.00    +0.000 C 
BRANCH   8  14
ATOM      9  C   UNL     1       1.495   2.724  21.584  0.00  0.00    +0.000 C 
ATOM     10  C   UNL     1       1.877   3.782  20.592  0.00  0.00    +0.000 A 
ATOM     11  C   UNL     1       1.730   5.140  20.891  0.00  0.00    +0.000 A 
ATOM     12  C   UNL     1       2.093   6.108  19.956  0.00  0.00    +0.000 A 
ATOM     13  C   UNL     1       2.614   5.726  18.718  0.00  0.00    +0.000 A 
ATOM     14  C   UNL     1       2.786   4.370  18.399  0.00  0.00    +0.000 A 
ATOM     15  C   UNL     1       2.400   3.408  19.345  0.00  0.00    +0.000 A 
ENDBRANCH   8  14
ENDBRANCH   2   8
ENDBRANCH   1   5
BRANCH   1  16
ATOM     16  N   UNL     1       8.042   7.499  18.244  0.00  0.00    +0.000 N 
ATOM     17  C   UNL     1       8.187   8.866  18.267  0.00  0.00    +0.000 C 
ATOM     18  O   UNL     1       7.499   9.599  17.564  0.00  0.00    +0.000 OA
ATOM     19  N   UNL     1       9.211   9.268  19.103  0.00  0.00    +0.000 N 
ATOM     20  H   UNL     1       8.364   6.964  19.035  0.00  0.00    +0.000 HD
ATOM     21  H   UNL     1       9.852   8.542  19.385  0.00  0.00    +0.000 HD
BRANCH  19  22
ATOM     22  C   UNL     1       9.624  10.607  19.305  0.00  0.00    +0.000 A 
ATOM     23  C   UNL     1       9.438  11.282  20.519  0.00  0.00    +0.000 A 
ATOM     24  C   UNL     1       9.794  12.626  20.658  0.00  0.00    +0.000 A 
ATOM     25  C   UNL     1      10.350  13.303  19.582  0.00  0.00    +0.000 A 
ATOM     26  F   UNL     1      10.660  14.598  19.726  0.00  0.00    +0.000 F 
ATOM     27  C   UNL     1      10.578  12.638  18.378  0.00  0.00    +0.000 A 
ATOM     28 CL   UNL     1      11.276  13.476  17.044  0.00  0.00    +0.000 Cl
ATOM     29  C   UNL     1      10.226  11.290  18.240  0.00  0.00    +0.000 A 
ENDBRANCH  19  22
ENDBRANCH   1  16
TORSDOF 5
ENDMDL
MODEL 2
REMARK VINA RESULT:      -8.9      1.561      2.030
REMARK  Name = 
REMARK  6 active torsions:
REMARK  status: ('A' for Active; 'I' for Inactive)
REMARK    1  A    between atoms: C_1  and  C_2
REMARK    2  A    between atoms: C_6  and  C_7
REMARK    3  A    between atoms: C_7  and  N_8
REMARK    4  A    between atoms: C_11  and  C_12
REMARK    5  A    between atoms: C_12  and  N_13
REMARK    6  A    between atoms: N_16  and  C_17
REMARK                            x       y       z     vdW  Elec       q    Type
REMARK                         _______ _______ _______ _____ _____    ______ ____
ROOT
ATOM      1  C   UNL     1       7.448   7.657  17.354  0.00  0.00    +0.000 C 
ENDROOT
BRANCH   1   5
ATOM      2  N   UNL     1       4.643   5.352  17.755  0.00  0.00    +0.000 NA
ATOM      3  C   UNL     1       5.082   5.827  16.441  0.00  0.00    +0.000 C 
ATOM      4  C   UNL     1       6.563   5.558  16.169  0.00  0.00    +0.000 C 
ATOM      5  C   UNL     1       7.461   6.115  17.278  0.00  0.00    +0.000 C 
ATOM      6  C   UNL     1       6.996   5.490  18.603  0.00  0.00    +0.000 C 
ATOM      7  C   UNL     1       5.508   5.732  18.873  0.00  0.00    +0.000 C 
BRANCH   2   8
ATOM      8  C   UNL     1       3.215   5.628  18.014  0.00  0.00    +0.000 C 
BRANCH   8  14
ATOM      9  C   UNL     1       1.903   2.941  22.083  0.00  0.00    +0.000 C 
ATOM     10  C   UNL     1       1.761   3.206  20.613  0.00  0.00    +0.000 A 
ATOM     11  C   UNL     1       0.873   2.465  19.828  0.00  0.00    +0.000 A 
ATOM     12  C   UNL     1       0.755   2.728  18.464  0.00  0.00    +0.000 A 
ATOM     13  C   UNL     1       1.517   3.740  17.876  0.00  0.00    +0.000 A 
ATOM     14  C   UNL     1       2.405   4.508  18.646  0.00  0.00    +0.000 A 
ATOM     15  C   UNL     1       2.524   4.219  20.014  0.00  0.00    +0.000 A 
ENDBRANCH   8  14
ENDBRANCH   2   8
ENDBRANCH   1   5
BRANCH   1  16
ATOM     16  N   UNL     1       8.287   8.201  18.411  0.00  0.00    +0.000 N 
ATOM     17  C   UNL     1       8.555   9.549  18.459  0.00  0.00    +0.000 C 
ATOM     18  O   UNL     1       8.058  10.334  17.658  0.00  0.00    +0.000 OA
ATOM     19  N   UNL     1       9.470   9.864  19.446  0.00  0.00    +0.000 N 
ATOM     20  H   UNL     1       8.430   7.649  19.242  0.00  0.00    +0.000 HD
ATOM     21  H   UNL     1       9.987   9.084  19.824  0.00  0.00    +0.000 HD
BRANCH  19  22
ATOM     22  C   UNL     1       9.971  11.160  19.713  0.00  0.00    +0.000 A 
ATOM     23  C   UNL     1      11.011  11.738  18.973  0.00  0.00    +0.000 A 
ATOM     24  C   UNL     1      11.527  12.992  19.310  0.00  0.00    +0.000 A 
ATOM     25  C   UNL     1      10.996  13.683  20.389  0.00  0.00    +0.000 A 
ATOM     26  F   UNL     1      11.521  14.872  20.716  0.00  0.00    +0.000 F 
ATOM     27  C   UNL     1       9.934  13.142  21.115  0.00  0.00    +0.000 A 
ATOM     28 CL   UNL     1       9.270  14.004  22.450  0.00  0.00    +0.000 Cl
ATOM     29  C   UNL     1       9.414  11.889  20.773  0.00  0.00    +0.000 A 
ENDBRANCH  19  22
ENDBRANCH   1  16
TORSDOF 5
ENDMDL
MODEL 3
REMARK VINA RESULT:      -8.6      1.454      2.412
REMARK  Name = 
REMARK  6 active torsions:
REMARK  status: ('A' for Active; 'I' for Inactive)
REMARK    1  A    between atoms: C_1  and  C_2
REMARK    2  A    between atoms: C_6  and  C_7
REMARK    3  A    between atoms: C_7  and  N_8
REMARK    4  A    between atoms: C_11  and  C_12
REMARK    5  A    between atoms: C_12  and  N_13
REMARK    6  A    between atoms: N_16  and  C_17
REMARK                            x       y       z     vdW  Elec       q    Type
REMARK                         _______ _______ _______ _____ _____    ______ ____
ROOT
ATOM      1  C   UNL     1       7.022   6.631  17.087  0.00  0.00    +0.000 C 
ENDROOT
BRANCH   1   5
ATOM      2  N   UNL     1       4.549   3.998  17.630  0.00  0.00    +0.000 NA
ATOM      3  C   UNL     1       4.825   4.549  16.301  0.00  0.00    +0.000 C 
ATOM      4  C   UNL     1       6.302   4.465  15.911  0.00  0.00    +0.000 C 
ATOM      5  C   UNL     1       7.211   5.104  16.966  0.00  0.00    +0.000 C 
ATOM      6  C   UNL     1       6.929   4.401  18.303  0.00  0.00    +0.000 C 
ATOM      7  C   UNL     1       5.447   4.457  18.690  0.00  0.00    +0.000 C 
BRANCH   2   8
ATOM      8  C   UNL     1       3.123   4.095  18.003  0.00  0.00    +0.000 C 
BRANCH   8  14
ATOM      9  C   UNL     1       2.257   9.068  17.873  0.00  0.00    +0.000 C 
ATOM     10  C   UNL     1       2.255   7.779  18.641  0.00  0.00    +0.000 A 
ATOM     11  C   UNL     1       1.822   7.730  19.970  0.00  0.00    +0.000 A 
ATOM     12  C   UNL     1       1.827   6.522  20.665  0.00  0.00    +0.000 A 
ATOM     13  C   UNL     1       2.256   5.352  20.036  0.00  0.00    +0.000 A 
ATOM     14  C   UNL     1       2.682   5.372  18.698  0.00  0.00    +0.000 A 
ATOM     15  C   UNL     1       2.687   6.599  18.017  0.00  0.00    +0.000 A 
ENDBRANCH   8  14
ENDBRANCH   2   8
ENDBRANCH   1   5
BRANCH   1  16
ATOM     16  N   UNL     1       7.878   7.253  18.086  0.00  0.00    +0.000 N 
ATOM     17  C   UNL     1       8.073   8.614  18.083  0.00  0.00    +0.000 C 
ATOM     18  O   UNL     1       7.495   9.345  17.286  0.00  0.00    +0.000 OA
ATOM     19  N   UNL     1       9.014   9.009  19.014  0.00  0.00    +0.000 N 
ATOM     20  H   UNL     1       8.091   6.735  18.924  0.00  0.00    +0.000 HD
ATOM     21  H   UNL     1       9.592   8.270  19.388  0.00  0.00    +0.000 HD
BRANCH  19  22
ATOM     22  C   UNL     1       9.454  10.338  19.219  0.00  0.00    +0.000 A 
ATOM     23  C   UNL     1      10.126  11.074  18.234  0.00  0.00    +0.000 A 
ATOM     24  C   UNL     1      10.606  12.360  18.497  0.00  0.00    +0.000 A 
ATOM     25  C   UNL     1      10.409  12.922  19.750  0.00  0.00    +0.000 A 
ATOM     26  F   UNL     1      10.902  14.144  19.993  0.00  0.00    +0.000 F 
ATOM     27  C   UNL     1       9.709  12.221  20.732  0.00  0.00    +0.000 A 
ATOM     28 CL   UNL     1       9.457  12.923  22.284  0.00  0.00    +0.000 Cl
ATOM     29  C   UNL     1       9.223  10.936  20.466  0.00  0.00    +0.000 A 
ENDBRANCH  19  22
ENDBRANCH   1  16
TORSDOF 5
ENDMDL
MODEL 4
REMARK VINA RESULT:      -8.6      0.371      1.276
REMARK  Name = 
REMARK  6 active torsions:
REMARK  status: ('A' for Active; 'I' for Inactive)
REMARK    1  A    between atoms: C_1  and  C_2
REMARK    2  A    between atoms: C_6  and  C_7
REMARK    3  A    between atoms: C_7  and  N_8
REMARK    4  A    between atoms: C_11  and  C_12
REMARK    5  A    between atoms: C_12  and  N_13
REMARK    6  A    between atoms: N_16  and  C_17
REMARK                            x       y       z     vdW  Elec       q    Type
REMARK                         _______ _______ _______ _____ _____    ______ ____
ROOT
ATOM      1  C   UNL     1       7.078   6.926  17.412  0.00  0.00    +0.000 C 
ENDROOT
BRANCH   1   5
ATOM      2  N   UNL     1       4.839   4.088  16.888  0.00  0.00    +0.000 NA
ATOM      3  C   UNL     1       5.292   4.940  15.786  0.00  0.00    +0.000 C 
ATOM      4  C   UNL     1       6.815   5.039  15.690  0.00  0.00    +0.000 C 
ATOM      5  C   UNL     1       7.445   5.480  17.015  0.00  0.00    +0.000 C 
ATOM      6  C   UNL     1       7.002   4.478  18.091  0.00  0.00    +0.000 C 
ATOM      7  C   UNL     1       5.477   4.352  18.178  0.00  0.00    +0.000 C 
BRANCH   2   8
ATOM      8  C   UNL     1       3.367   4.007  16.980  0.00  0.00    +0.000 C 
BRANCH   8  14
ATOM      9  C   UNL     1       1.657   6.988  20.681  0.00  0.00    +0.000 C 
ATOM     10  C   UNL     1       1.924   5.608  20.157  0.00  0.00    +0.000 A 
ATOM     11  C   UNL     1       1.588   4.474  20.904  0.00  0.00    +0.000 A 
ATOM     12  C   UNL     1       1.842   3.200  20.398  0.00  0.00    +0.000 A 
ATOM     13  C   UNL     1       2.425   3.049  19.139  0.00  0.00    +0.000 A 
ATOM     14  C   UNL     1       2.757   4.171  18.363  0.00  0.00    +0.000 A 
ATOM     15  C   UNL     1       2.511   5.446  18.893  0.00  0.00    +0.000 A 
ENDBRANCH   8  14
ENDBRANCH   2   8
ENDBRANCH   1   5
BRANCH   1  16
ATOM     16  N   UNL     1       8.038   7.553  18.307  0.00  0.00    +0.000 N 
ATOM     17  C   UNL     1       8.227   8.915  18.279  0.00  0.00    +0.000 C 
ATOM     18  O   UNL     1       7.561   9.642  17.550  0.00  0.00    +0.000 OA
ATOM     19  N   UNL     1       9.265   9.315  19.099  0.00  0.00    +0.000 N 
ATOM     20  H   UNL     1       8.345   7.038  19.117  0.00  0.00    +0.000 HD
ATOM     21  H   UNL     1       9.883   8.579  19.408  0.00  0.00    +0.000 HD
BRANCH  19  22
ATOM     22  C   UNL     1       9.720  10.646  19.250  0.00  0.00    +0.000 A 
ATOM     23  C   UNL     1       9.672  11.329  20.473  0.00  0.00    +0.000 A 
ATOM     24  C   UNL     1      10.066  12.666  20.569  0.00  0.00    +0.000 A 
ATOM     25  C   UNL     1      10.521  13.329  19.438  0.00  0.00    +0.000 A 
ATOM     26  F   UNL     1      10.867  14.619  19.542  0.00  0.00    +0.000 F 
ATOM     27  C   UNL     1      10.613  12.656  18.220  0.00  0.00    +0.000 A 
ATOM     28 CL   UNL     1      11.185  13.476  16.818  0.00  0.00    +0.000 Cl
ATOM     29  C   UNL     1      10.224  11.315  18.126  0.00  0.00    +0.000 A 
ENDBRANCH  19  22
ENDBRANCH   1  16
TORSDOF 5
ENDMDL
MODEL 5
REMARK VINA RESULT:      -8.5      1.795      2.334
REMARK  Name = 
REMARK  6 active torsions:
REMARK  status: ('A' for Active; 'I' for Inactive)
REMARK    1  A    between atoms: C_1  and  C_2
REMARK    2  A    between atoms: C_6  and  C_7
REMARK    3  A    between atoms: C_7  and  N_8
REMARK    4  A    between atoms: C_11  and  C_12
REMARK    5  A    between atoms: C_12  and  N_13
REMARK    6  A    between atoms: N_16  and  C_17
REMARK                            x       y       z     vdW  Elec       q    Type
REMARK                         _______ _______ _______ _____ _____    ______ ____
ROOT
ATOM      1  C   UNL     1       8.012   7.631  18.457  0.00  0.00    +0.000 C 
ENDROOT
BRANCH   1   5
ATOM      2  N   UNL     1       4.814   5.873  18.288  0.00  0.00    +0.000 NA
ATOM      3  C   UNL     1       5.116   7.029  17.441  0.00  0.00    +0.000 C 
ATOM      4  C   UNL     1       6.395   6.854  16.619  0.00  0.00    +0.000 C 
ATOM      5  C   UNL     1       7.596   6.494  17.499  0.00  0.00    +0.000 C 
ATOM      6  C   UNL     1       7.233   5.218  18.274  0.00  0.00    +0.000 C 
ATOM      7  C   UNL     1       5.939   5.374  19.081  0.00  0.00    +0.000 C 
BRANCH   2   8
ATOM      8  C   UNL     1       3.585   6.055  19.087  0.00  0.00    +0.000 C 
BRANCH   8  14
ATOM      9  C   UNL     1       1.370   2.488  21.893  0.00  0.00    +0.000 C 
ATOM     10  C   UNL     1       1.577   3.130  20.552  0.00  0.00    +0.000 A 
ATOM     11  C   UNL     1       0.904   2.667  19.418  0.00  0.00    +0.000 A 
ATOM     12  C   UNL     1       1.109   3.279  18.182  0.00  0.00    +0.000 A 
ATOM     13  C   UNL     1       1.981   4.364  18.073  0.00  0.00    +0.000 A 
ATOM     14  C   UNL     1       2.657   4.857  19.199  0.00  0.00    +0.000 A 
ATOM     15  C   UNL     1       2.453   4.219  20.433  0.00  0.00    +0.000 A 
ENDBRANCH   8  14
ENDBRANCH   2   8
ENDBRANCH   1   5
BRANCH   1  16
ATOM     16  N   UNL     1       8.098   8.935  17.818  0.00  0.00    +0.000 N 
ATOM     17  C   UNL     1       8.831   9.944  18.398  0.00  0.00    +0.000 C 
ATOM     18  O   UNL     1       9.472   9.764  19.428  0.00  0.00    +0.000 OA
ATOM     19  N   UNL     1       8.692  11.143  17.725  0.00  0.00    +0.000 N 
ATOM     20  H   UNL     1       7.864   9.007  16.841  0.00  0.00    +0.000 HD
ATOM     21  H   UNL     1       7.921  11.190  17.076  0.00  0.00    +0.000 HD
BRANCH  19  22
ATOM     22  C   UNL     1       9.292  12.367  18.104  0.00  0.00    +0.000 A 
ATOM     23  C   UNL     1      10.308  12.977  17.355  0.00  0.00    +0.000 A 
ATOM     24  C   UNL     1      10.925  14.150  17.797  0.00  0.00    +0.000 A 
ATOM     25  C   UNL     1      10.522  14.727  18.993  0.00  0.00    +0.000 A 
ATOM     26  F   UNL     1      11.145  15.836  19.416  0.00  0.00    +0.000 F 
ATOM     27  C   UNL     1       9.488  14.157  19.734  0.00  0.00    +0.000 A 
ATOM     28 CL   UNL     1       8.982  14.878  21.214  0.00  0.00    +0.000 Cl
ATOM     29  C   UNL     1       8.865  12.985  19.288  0.00  0.00    +0.000 A 
ENDBRANCH  19  22
ENDBRANCH   1  16
TORSDOF 5
ENDMDL
MODEL 6
REMARK VINA RESULT:      -8.5      1.279      1.492
REMARK  Name = 
REMARK  6 active torsions:
REMARK  status: ('A' for Active; 'I' for Inactive)
REMARK    1  A    between atoms: C_1  and  C_2
REMARK    2  A    between atoms: C_6  and  C_7
REMARK    3  A    between atoms: C_7  and  N_8
REMARK    4  A    between atoms: C_11  and  C_12
REMARK    5  A    between atoms: C_12  and  N_13
REMARK    6  A    between atoms: N_16  and  C_17
REMARK                            x       y       z     vdW  Elec       q    Type
REMARK                         _______ _______ _______ _____ _____    ______ ____
ROOT
ATOM      1  C   UNL     1       6.870   7.177  17.826  0.00  0.00    +0.000 C 
ENDROOT
BRANCH   1   5
ATOM      2  N   UNL     1       5.072   4.171  16.790  0.00  0.00    +0.000 NA
ATOM      3  C   UNL     1       5.153   5.363  15.943  0.00  0.00    +0.000 C 
ATOM      4  C   UNL     1       6.592   5.809  15.671  0.00  0.00    +0.000 C 
ATOM      5  C   UNL     1       7.387   6.004  16.966  0.00  0.00    +0.000 C 
ATOM      6  C   UNL     1       7.333   4.679  17.742  0.00  0.00    +0.000 C 
ATOM      7  C   UNL     1       5.897   4.210  17.998  0.00  0.00    +0.000 C 
BRANCH   2   8
ATOM      8  C   UNL     1       3.680   3.756  17.058  0.00  0.00    +0.000 C 
BRANCH   8  14
ATOM      9  C   UNL     1       1.656   2.849  21.595  0.00  0.00    +0.000 C 
ATOM     10  C   UNL     1       2.071   3.835  20.542  0.00  0.00    +0.000 A 
ATOM     11  C   UNL     1       1.918   5.210  20.740  0.00  0.00    +0.000 A 
ATOM     12  C   UNL     1       2.312   6.110  19.750  0.00  0.00    +0.000 A 
ATOM     13  C   UNL     1       2.870   5.641  18.559  0.00  0.00    +0.000 A 
ATOM     14  C   UNL     1       3.048   4.266  18.342  0.00  0.00    +0.000 A 
ATOM     15  C   UNL     1       2.630   3.373  19.342  0.00  0.00    +0.000 A 
ENDBRANCH   8  14
ENDBRANCH   2   8
ENDBRANCH   1   5
BRANCH   1  16
ATOM     16  N   UNL     1       7.350   8.481  17.392  0.00  0.00    +0.000 N 
ATOM     17  C   UNL     1       8.343   9.123  18.093  0.00  0.00    +0.000 C 
ATOM     18  O   UNL     1       8.890   8.602  19.059  0.00  0.00    +0.000 OA
ATOM     19  N   UNL     1       8.577  10.399  17.616  0.00  0.00    +0.000 N 
ATOM     20  H   UNL     1       7.159   8.771  16.446  0.00  0.00    +0.000 HD
ATOM     21  H   UNL     1       7.863  10.774  17.010  0.00  0.00    +0.000 HD
BRANCH  19  22
ATOM     22  C   UNL     1       9.511  11.315  18.156  0.00  0.00    +0.000 A 
ATOM     23  C   UNL     1      10.891  11.203  17.943  0.00  0.00    +0.000 A 
ATOM     24  C   UNL     1      11.788  12.086  18.550  0.00  0.00    +0.000 A 
ATOM     25  C   UNL     1      11.307  13.095  19.371  0.00  0.00    +0.000 A 
ATOM     26  F   UNL     1      12.183  13.915  19.968  0.00  0.00    +0.000 F 
ATOM     27  C   UNL     1       9.934  13.246  19.565  0.00  0.00    +0.000 A 
ATOM     28 CL   UNL     1       9.336  14.505  20.578  0.00  0.00    +0.000 Cl
ATOM     29  C   UNL     1       9.035  12.366  18.953  0.00  0.00    +0.000 A 
ENDBRANCH  19  22
ENDBRANCH   1  16
TORSDOF 5
ENDMDL
MODEL 7
REMARK VINA RESULT:      -8.4      4.918      7.458
REMARK  Name = 
REMARK  6 active torsions:
REMARK  status: ('A' for Active; 'I' for Inactive)
REMARK    1  A    between atoms: C_1  and  C_2
REMARK    2  A    between atoms: C_6  and  C_7
REMARK    3  A    between atoms: C_7  and  N_8
REMARK    4  A    between atoms: C_11  and  C_12
REMARK    5  A    between atoms: C_12  and  N_13
REMARK    6  A    between atoms: N_16  and  C_17
REMARK                            x       y       z     vdW  Elec       q    Type
REMARK                         _______ _______ _______ _____ _____    ______ ____
ROOT
ATOM      1  C   UNL     1       2.070   3.224  21.535  0.00  0.00    +0.000 C 
ENDROOT
BRANCH   1   5
ATOM      2  N   UNL     1       3.300   3.436  18.102  0.00  0.00    +0.000 NA
ATOM      3  C   UNL     1       4.194   3.522  19.259  0.00  0.00    +0.000 C 
ATOM      4  C   UNL     1       4.072   2.324  20.203  0.00  0.00    +0.000 C 
ATOM      5  C   UNL     1       2.625   2.090  20.648  0.00  0.00    +0.000 C 
ATOM      6  C   UNL     1       1.777   1.910  19.379  0.00  0.00    +0.000 C 
ATOM      7  C   UNL     1       1.912   3.094  18.414  0.00  0.00    +0.000 C 
BRANCH   2   8
ATOM      8  C   UNL     1       3.415   4.603  17.203  0.00  0.00    +0.000 C 
BRANCH   8  14
ATOM      9  C   UNL     1       7.563   7.463  17.538  0.00  0.00    +0.000 C 
ATOM     10  C   UNL     1       6.824   6.337  16.877  0.00  0.00    +0.000 A 
ATOM     11  C   UNL     1       7.412   5.591  15.851  0.00  0.00    +0.000 A 
ATOM     12  C   UNL     1       6.709   4.546  15.251  0.00  0.00    +0.000 A 
ATOM     13  C   UNL     1       5.417   4.234  15.679  0.00  0.00    +0.000 A 
ATOM     14  C   UNL     1       4.810   4.959  16.718  0.00  0.00    +0.000 A 
ATOM     15  C   UNL     1       5.525   6.017  17.299  0.00  0.00    +0.000 A 
ENDBRANCH   8  14
ENDBRANCH   2   8
ENDBRANCH   1   5
BRANCH   1  16
ATOM     16  N   UNL     1       2.619   4.535  21.225  0.00  0.00    +0.000 N 
ATOM     17  C   UNL     1       1.808   5.527  20.725  0.00  0.00    +0.000 C 
ATOM     18  O   UNL     1       0.602   5.360  20.578  0.00  0.00    +0.000 OA
ATOM     19  N   UNL     1       2.522   6.655  20.366  0.00  0.00    +0.000 N 
ATOM     20  H   UNL     1       3.504   4.794  21.633  0.00  0.00    +0.000 HD
ATOM     21  H   UNL     1       3.521   6.530  20.287  0.00  0.00    +0.000 HD
BRANCH  19  22
ATOM     22  C   UNL     1       1.971   7.822  19.789  0.00  0.00    +0.000 A 
ATOM     23  C   UNL     1       2.181   8.177  18.449  0.00  0.00    +0.000 A 
ATOM     24  C   UNL     1       1.678   9.374  17.933  0.00  0.00    +0.000 A 
ATOM     25  C   UNL     1       0.950  10.222  18.754  0.00  0.00    +0.000 A 
ATOM     26  F   UNL     1       0.500  11.379  18.250  0.00  0.00    +0.000 F 
ATOM     27  C   UNL     1       0.697   9.869  20.080  0.00  0.00    +0.000 A 
ATOM     28 CL   UNL     1      -0.213  10.920  21.097  0.00  0.00    +0.000 Cl
ATOM     29  C   UNL     1       1.196   8.668  20.595  0.00  0.00    +0.000 A 
ENDBRANCH  19  22
ENDBRANCH   1  16
TORSDOF 5
ENDMDL
MODEL 8
REMARK VINA RESULT:      -8.4      5.614      7.535
REMARK  Name = 
REMARK  6 active torsions:
REMARK  status: ('A' for Active; 'I' for Inactive)
REMARK    1  A    between atoms: C_1  and  C_2
REMARK    2  A    between atoms: C_6  and  C_7
REMARK    3  A    between atoms: C_7  and  N_8
REMARK    4  A    between atoms: C_11  and  C_12
REMARK    5  A    between atoms: C_12  and  N_13
REMARK    6  A    between atoms: N_16  and  C_17
REMARK                            x       y       z     vdW  Elec       q    Type
REMARK                         _______ _______ _______ _____ _____    ______ ____
ROOT
ATOM      1  C   UNL     1       2.050   3.241  21.476  0.00  0.00    +0.000 C 
ENDROOT
BRANCH   1   5
ATOM      2  N   UNL     1       3.506   3.528  18.138  0.00  0.00    +0.000 NA
ATOM      3  C   UNL     1       4.318   3.608  19.354  0.00  0.00    +0.000 C 
ATOM      4  C   UNL     1       4.151   2.392  20.269  0.00  0.00    +0.000 C 
ATOM      5  C   UNL     1       2.681   2.130  20.611  0.00  0.00    +0.000 C 
ATOM      6  C   UNL     1       1.924   1.959  19.284  0.00  0.00    +0.000 C 
ATOM      7  C   UNL     1       2.105   3.160  18.350  0.00  0.00    +0.000 C 
BRANCH   2   8
ATOM      8  C   UNL     1       3.664   4.711  17.267  0.00  0.00    +0.000 C 
BRANCH   8  14
ATOM      9  C   UNL     1       6.108   3.607  12.989  0.00  0.00    +0.000 C 
ATOM     10  C   UNL     1       6.110   4.246  14.346  0.00  0.00    +0.000 A 
ATOM     11  C   UNL     1       7.235   4.925  14.823  0.00  0.00    +0.000 A 
ATOM     12  C   UNL     1       7.216   5.514  16.087  0.00  0.00    +0.000 A 
ATOM     13  C   UNL     1       6.069   5.436  16.879  0.00  0.00    +0.000 A 
ATOM     14  C   UNL     1       4.922   4.773  16.417  0.00  0.00    +0.000 A 
ATOM     15  C   UNL     1       4.963   4.171  15.150  0.00  0.00    +0.000 A 
ENDBRANCH   8  14
ENDBRANCH   2   8
ENDBRANCH   1   5
BRANCH   1  16
ATOM     16  N   UNL     1       2.591   4.567  21.216  0.00  0.00    +0.000 N 
ATOM     17  C   UNL     1       1.786   5.555  20.700  0.00  0.00    +0.000 C 
ATOM     18  O   UNL     1       0.590   5.373  20.498  0.00  0.00    +0.000 OA
ATOM     19  N   UNL     1       2.496   6.701  20.397  0.00  0.00    +0.000 N 
ATOM     20  H   UNL     1       3.452   4.830  21.668  0.00  0.00    +0.000 HD
ATOM     21  H   UNL     1       3.499   6.594  20.359  0.00  0.00    +0.000 HD
BRANCH  19  22
ATOM     22  C   UNL     1       1.951   7.872  19.818  0.00  0.00    +0.000 A 
ATOM     23  C   UNL     1       2.142   8.212  18.472  0.00  0.00    +0.000 A 
ATOM     24  C   UNL     1       1.647   9.411  17.953  0.00  0.00    +0.000 A 
ATOM     25  C   UNL     1       0.947  10.277  18.780  0.00  0.00    +0.000 A 
ATOM     26  F   UNL     1       0.504  11.436  18.273  0.00  0.00    +0.000 F 
ATOM     27  C   UNL     1       0.713   9.940  20.113  0.00  0.00    +0.000 A 
ATOM     28 CL   UNL     1      -0.163  11.012  21.138  0.00  0.00    +0.000 Cl
ATOM     29  C   UNL     1       1.204   8.736  20.631  0.00  0.00    +0.000 A 
ENDBRANCH  19  22
ENDBRANCH   1  16
TORSDOF 5
ENDMDL
MODEL 9
REMARK VINA RESULT:      -8.3      1.503      1.956
REMARK  Name = 
REMARK  6 active torsions:
REMARK  status: ('A' for Active; 'I' for Inactive)
REMARK    1  A    between atoms: C_1  and  C_2
REMARK    2  A    between atoms: C_6  and  C_7
REMARK    3  A    between atoms: C_7  and  N_8
REMARK    4  A    between atoms: C_11  and  C_12
REMARK    5  A    between atoms: C_12  and  N_13
REMARK    6  A    between atoms: N_16  and  C_17
REMARK                            x       y       z     vdW  Elec       q    Type
REMARK                         _______ _______ _______ _____ _____    ______ ____
ROOT
ATOM      1  C   UNL     1       7.292   6.167  17.035  0.00  0.00    +0.000 C 
ENDROOT
BRANCH   1   5
ATOM      2  N   UNL     1       3.731   5.749  17.731  0.00  0.00    +0.000 NA
ATOM      3  C   UNL     1       4.265   6.954  17.094  0.00  0.00    +0.000 C 
ATOM      4  C   UNL     1       5.077   6.656  15.831  0.00  0.00    +0.000 C 
ATOM      5  C   UNL     1       6.191   5.637  16.092  0.00  0.00    +0.000 C 
ATOM      6  C   UNL     1       5.531   4.372  16.663  0.00  0.00    +0.000 C 
ATOM      7  C   UNL     1       4.695   4.663  17.914  0.00  0.00    +0.000 C 
BRANCH   2   8
ATOM      8  C   UNL     1       2.959   6.044  18.956  0.00  0.00    +0.000 C 
BRANCH   8  14
ATOM      9  C   UNL     1       0.263   1.776  18.830  0.00  0.00    +0.000 C 
ATOM     10  C   UNL     1       1.036   2.790  19.622  0.00  0.00    +0.000 A 
ATOM     11  C   UNL     1       1.221   2.642  21.000  0.00  0.00    +0.000 A 
ATOM     12  C   UNL     1       1.944   3.594  21.717  0.00  0.00    +0.000 A 
ATOM     13  C   UNL     1       2.495   4.696  21.061  0.00  0.00    +0.000 A 
ATOM     14  C   UNL     1       2.337   4.860  19.676  0.00  0.00    +0.000 A 
ATOM     15  C   UNL     1       1.592   3.901  18.971  0.00  0.00    +0.000 A 
ENDBRANCH   8  14
ENDBRANCH   2   8
ENDBRANCH   1   5
BRANCH   1  16
ATOM     16  N   UNL     1       7.597   7.578  16.847  0.00  0.00    +0.000 N 
ATOM     17  C   UNL     1       8.225   8.290  17.842  0.00  0.00    +0.000 C 
ATOM     18  O   UNL     1       8.594   7.755  18.883  0.00  0.00    +0.000 OA
ATOM     19  N   UNL     1       8.315   9.636  17.544  0.00  0.00    +0.000 N 
ATOM     20  H   UNL     1       7.606   7.946  15.909  0.00  0.00    +0.000 HD
ATOM     21  H   UNL     1       7.723   9.954  16.791  0.00  0.00    +0.000 HD
BRANCH  19  22
ATOM     22  C   UNL     1       8.873  10.625  18.388  0.00  0.00    +0.000 A 
ATOM     23  C   UNL     1       9.386  10.334  19.659  0.00  0.00    +0.000 A 
ATOM     24  C   UNL     1       9.866  11.348  20.493  0.00  0.00    +0.000 A 
ATOM     25  C   UNL     1       9.843  12.664  20.053  0.00  0.00    +0.000 A 
ATOM     26  F   UNL     1      10.280  13.626  20.877  0.00  0.00    +0.000 F 
ATOM     27  C   UNL     1       9.372  12.969  18.777  0.00  0.00    +0.000 A 
ATOM     28 CL   UNL     1       9.351  14.602  18.229  0.00  0.00    +0.000 Cl
ATOM     29  C   UNL     1       8.897  11.953  17.940  0.00  0.00    +0.000 A 
ENDBRANCH  19  22
ENDBRANCH   1  16
TORSDOF 5
ENDMDL
