MODEL 1
REMARK VINA RESULT:      -8.9      0.000      0.000
REMARK  Name = 
REMARK  7 active torsions:
REMARK  status: ('A' for Active; 'I' for Inactive)
REMARK    1  A    between atoms: C_1  and  C_2
REMARK    2  A    between atoms: C_2  and  O_3
REMARK    3  A    between atoms: O_3  and  C_4
REMARK    4  A    between atoms: C_4  and  C_6
REMARK    5  A    between atoms: N_8  and  C_9
REMARK    6  A    between atoms: C_18  and  C_19
REMARK    7  A    between atoms: C_23  and  C_24
REMARK                            x       y       z     vdW  Elec       q    Type
REMARK                         _______ _______ _______ _____ _____    ______ ____
ROOT
ATOM      1  C   UNL     1       5.747   5.264  17.220  0.00  0.00    +0.000 A 
ATOM      2  C   UNL     1       5.061   6.456  17.278  0.00  0.00    +0.000 A 
ATOM      3  N   UNL     1       3.892   6.214  17.974  0.00  0.00    +0.000 N 
ATOM      4  C   UNL     1       3.857   4.833  18.198  0.00  0.00    +0.000 A 
ATOM      5  N   UNL     1       5.002   4.276  17.822  0.00  0.00    +0.000 NA
ENDROOT
BRANCH   3   6
ATOM      6  C   UNL     1       2.986   7.236  18.393  0.00  0.00    +0.000 A 
ATOM      7  C   UNL     1       2.612   8.270  17.507  0.00  0.00    +0.000 A 
ATOM      8  C   UNL     1       1.768   9.306  17.916  0.00  0.00    +0.000 A 
ATOM      9  C   UNL     1       1.279   9.259  19.200  0.00  0.00    +0.000 A 
ATOM     10  C   UNL     1       1.596   8.231  20.056  0.00  0.00    +0.000 A 
ATOM     11  C   UNL     1       2.440   7.201  19.688  0.00  0.00    +0.000 A 
ATOM     12  O   UNL     1       0.999   8.372  21.271  0.00  0.00    +0.000 OA
ATOM     13  C   UNL     1       0.271   9.602  21.073  0.00  0.00    +0.000 C 
ATOM     14  O   UNL     1       0.448  10.173  19.762  0.00  0.00    +0.000 OA
ENDBRANCH   3   6
BRANCH   4  15
ATOM     15  C   UNL     1       2.733   4.060  18.742  0.00  0.00    +0.000 A 
ATOM     16  C   UNL     1       1.745   3.568  17.900  0.00  0.00    +0.000 A 
ATOM     17  C   UNL     1       0.777   2.725  18.436  0.00  0.00    +0.000 A 
ATOM     18  C   UNL     1       0.825   2.404  19.789  0.00  0.00    +0.000 A 
ATOM     19  C   UNL     1       1.818   2.971  20.578  0.00  0.00    +0.000 A 
ATOM     20  C   UNL     1       1.958   2.613  22.027  0.00  0.00    +0.000 C 
ATOM     21  N   UNL     1       2.749   3.815  20.073  0.00  0.00    +0.000 NA
ENDBRANCH   4  15
BRANCH   1  22
ATOM     22  C   UNL     1       7.034   5.040  16.566  0.00  0.00    +0.000 C 
ATOM     23  O   UNL     1       7.959   4.429  17.086  0.00  0.00    +0.000 OA
BRANCH  22  24
ATOM     24  O   UNL     1       7.102   5.679  15.361  0.00  0.00    +0.000 OA
BRANCH  24  26
ATOM     25  C   UNL     1       5.964   4.094  13.983  0.00  0.00    +0.000 C 
ATOM     26  C   UNL     1       7.273   4.828  14.225  0.00  0.00    +0.000 C 
ENDBRANCH  24  26
ENDBRANCH  22  24
ENDBRANCH   1  22
TORSDOF 5
ENDMDL
MODEL 2
REMARK VINA RESULT:      -8.8      1.152      1.702
REMARK  Name = 
REMARK  7 active torsions:
REMARK  status: ('A' for Active; 'I' for Inactive)
REMARK    1  A    between atoms: C_1  and  C_2
REMARK    2  A    between atoms: C_2  and  O_3
REMARK    3  A    between atoms: O_3  and  C_4
REMARK    4  A    between atoms: C_4  and  C_6
REMARK    5  A    between atoms: N_8  and  C_9
REMARK    6  A    between atoms: C_18  and  C_19
REMARK    7  A    between atoms: C_23  and  C_24
REMARK                            x       y       z     vdW  Elec       q    Type
REMARK                         _______ _______ _______ _____ _____    ______ ____
ROOT
ATOM      1  C   UNL     1       5.670   5.879  17.345  0.00  0.00    +0.000 A 
ATOM      2  C   UNL     1       4.890   7.010  17.426  0.00  0.00    +0.000 A 
ATOM      3  N   UNL     1       3.728   6.652  18.081  0.00  0.00    +0.000 N 
ATOM      4  C   UNL     1       3.798   5.265  18.257  0.00  0.00    +0.000 A 
ATOM      5  N   UNL     1       4.992   4.814  17.893  0.00  0.00    +0.000 NA
ENDROOT
BRANCH   3   6
ATOM      6  C   UNL     1       2.733   7.583  18.511  0.00  0.00    +0.000 A 
ATOM      7  C   UNL     1       2.226   8.554  17.618  0.00  0.00    +0.000 A 
ATOM      8  C   UNL     1       1.291   9.504  18.036  0.00  0.00    +0.000 A 
ATOM      9  C   UNL     1       0.850   9.435  19.335  0.00  0.00    +0.000 A 
ATOM     10  C   UNL     1       1.299   8.465  20.200  0.00  0.00    +0.000 A 
ATOM     11  C   UNL     1       2.234   7.521  19.824  0.00  0.00    +0.000 A 
ATOM     12  O   UNL     1       0.728   8.570  21.431  0.00  0.00    +0.000 OA
ATOM     13  C   UNL     1      -0.130   9.714  21.234  0.00  0.00    +0.000 C 
ATOM     14  O   UNL     1      -0.054  10.271  19.908  0.00  0.00    +0.000 OA
ENDBRANCH   3   6
BRANCH   4  15
ATOM     15  C   UNL     1       2.726   4.387  18.743  0.00  0.00    +0.000 A 
ATOM     16  C   UNL     1       1.761   3.904  17.870  0.00  0.00    +0.000 A 
ATOM     17  C   UNL     1       0.850   2.966  18.342  0.00  0.00    +0.000 A 
ATOM     18  C   UNL     1       0.928   2.544  19.666  0.00  0.00    +0.000 A 
ATOM     19  C   UNL     1       1.893   3.106  20.493  0.00  0.00    +0.000 A 
ATOM     20  C   UNL     1       2.067   2.646  21.909  0.00  0.00    +0.000 C 
ATOM     21  N   UNL     1       2.769   4.040  20.052  0.00  0.00    +0.000 NA
ENDBRANCH   4  15
BRANCH   1  22
ATOM     22  C   UNL     1       6.986   5.781  16.719  0.00  0.00    +0.000 C 
ATOM     23  O   UNL     1       7.469   4.728  16.322  0.00  0.00    +0.000 OA
BRANCH  22  24
ATOM     24  O   UNL     1       7.637   6.982  16.729  0.00  0.00    +0.000 OA
BRANCH  24  26
ATOM     25  C   UNL     1       8.165   8.964  17.952  0.00  0.00    +0.000 C 
ATOM     26  C   UNL     1       8.035   7.452  18.019  0.00  0.00    +0.000 C 
ENDBRANCH  24  26
ENDBRANCH  22  24
ENDBRANCH   1  22
TORSDOF 5
ENDMDL
MODEL 3
REMARK VINA RESULT:      -8.7      2.998      5.574
REMARK  Name = 
REMARK  7 active torsions:
REMARK  status: ('A' for Active; 'I' for Inactive)
REMARK    1  A    between atoms: C_1  and  C_2
REMARK    2  A    between atoms: C_2  and  O_3
REMARK    3  A    between atoms: O_3  and  C_4
REMARK    4  A    between atoms: C_4  and  C_6
REMARK    5  A    between atoms: N_8  and  C_9
REMARK    6  A    between atoms: C_18  and  C_19
REMARK    7  A    between atoms: C_23  and  C_24
REMARK                            x       y       z     vdW  Elec       q    Type
REMARK                         _______ _______ _______ _____ _____    ______ ____
ROOT
ATOM      1  C   UNL     1       6.221   4.181  14.038  0.00  0.00    +0.000 A 
ATOM      2  C   UNL     1       5.130   3.777  14.772  0.00  0.00    +0.000 A 
ATOM      3  N   UNL     1       5.188   4.443  15.981  0.00  0.00    +0.000 N 
ATOM      4  C   UNL     1       6.405   5.136  15.979  0.00  0.00    +0.000 A 
ATOM      5  N   UNL     1       6.983   5.048  14.787  0.00  0.00    +0.000 NA
ENDROOT
BRANCH   3   6
ATOM      6  C   UNL     1       4.145   4.423  16.956  0.00  0.00    +0.000 A 
ATOM      7  C   UNL     1       3.596   5.629  17.446  0.00  0.00    +0.000 A 
ATOM      8  C   UNL     1       2.612   5.628  18.437  0.00  0.00    +0.000 A 
ATOM      9  C   UNL     1       2.165   4.410  18.889  0.00  0.00    +0.000 A 
ATOM     10  C   UNL     1       2.656   3.229  18.386  0.00  0.00    +0.000 A 
ATOM     11  C   UNL     1       3.639   3.195  17.418  0.00  0.00    +0.000 A 
ATOM     12  O   UNL     1       2.071   2.143  18.962  0.00  0.00    +0.000 OA
ATOM     13  C   UNL     1       1.158   2.782  19.879  0.00  0.00    +0.000 C 
ATOM     14  O   UNL     1       1.216   4.221  19.842  0.00  0.00    +0.000 OA
ENDBRANCH   3   6
BRANCH   4  15
ATOM     15  C   UNL     1       7.011   5.849  17.111  0.00  0.00    +0.000 A 
ATOM     16  C   UNL     1       7.434   5.155  18.236  0.00  0.00    +0.000 A 
ATOM     17  C   UNL     1       8.127   5.848  19.221  0.00  0.00    +0.000 A 
ATOM     18  C   UNL     1       8.373   7.208  19.054  0.00  0.00    +0.000 A 
ATOM     19  C   UNL     1       7.879   7.845  17.923  0.00  0.00    +0.000 A 
ATOM     20  C   UNL     1       8.166   9.292  17.658  0.00  0.00    +0.000 C 
ATOM     21  N   UNL     1       7.178   7.185  16.969  0.00  0.00    +0.000 NA
ENDBRANCH   4  15
BRANCH   1  22
ATOM     22  C   UNL     1       6.576   3.725  12.696  0.00  0.00    +0.000 C 
ATOM     23  O   UNL     1       7.241   4.388  11.910  0.00  0.00    +0.000 OA
BRANCH  22  24
ATOM     24  O   UNL     1       5.991   2.526  12.404  0.00  0.00    +0.000 OA
BRANCH  24  26
ATOM     25  C   UNL     1       4.000   3.287  11.327  0.00  0.00    +0.000 C 
ATOM     26  C   UNL     1       5.277   2.478  11.167  0.00  0.00    +0.000 C 
ENDBRANCH  24  26
ENDBRANCH  22  24
ENDBRANCH   1  22
TORSDOF 5
ENDMDL
MODEL 4
REMARK VINA RESULT:      -8.4      0.852      1.479
REMARK  Name = 
REMARK  7 active torsions:
REMARK  status: ('A' for Active; 'I' for Inactive)
REMARK    1  A    between atoms: C_1  and  C_2
REMARK    2  A    between atoms: C_2  and  O_3
REMARK    3  A    between atoms: O_3  and  C_4
REMARK    4  A    between atoms: C_4  and  C_6
REMARK    5  A    between atoms: N_8  and  C_9
REMARK    6  A    between atoms: C_18  and  C_19
REMARK    7  A    between atoms: C_23  and  C_24
REMARK                            x       y       z     vdW  Elec       q    Type
REMARK                         _______ _______ _______ _____ _____    ______ ____
ROOT
ATOM      1  C   UNL     1       5.409   5.709  17.037  0.00  0.00    +0.000 A 
ATOM      2  C   UNL     1       4.689   6.858  17.271  0.00  0.00    +0.000 A 
ATOM      3  N   UNL     1       3.603   6.501  18.047  0.00  0.00    +0.000 N 
ATOM      4  C   UNL     1       3.640   5.105  18.142  0.00  0.00    +0.000 A 
ATOM      5  N   UNL     1       4.763   4.638  17.610  0.00  0.00    +0.000 NA
ENDROOT
BRANCH   3   6
ATOM      6  C   UNL     1       2.705   7.438  18.643  0.00  0.00    +0.000 A 
ATOM      7  C   UNL     1       2.314   7.299  19.993  0.00  0.00    +0.000 A 
ATOM      8  C   UNL     1       1.396   8.176  20.577  0.00  0.00    +0.000 A 
ATOM      9  C   UNL     1       0.919   9.206  19.803  0.00  0.00    +0.000 A 
ATOM     10  C   UNL     1       1.328   9.381  18.503  0.00  0.00    +0.000 A 
ATOM     11  C   UNL     1       2.222   8.524  17.891  0.00  0.00    +0.000 A 
ATOM     12  O   UNL     1       0.744  10.465  17.922  0.00  0.00    +0.000 OA
ATOM     13  C   UNL     1      -0.074  10.946  19.010  0.00  0.00    +0.000 C 
ATOM     14  O   UNL     1       0.029  10.149  20.205  0.00  0.00    +0.000 OA
ENDBRANCH   3   6
BRANCH   4  15
ATOM     15  C   UNL     1       2.603   4.236  18.711  0.00  0.00    +0.000 A 
ATOM     16  C   UNL     1       1.596   3.721  17.907  0.00  0.00    +0.000 A 
ATOM     17  C   UNL     1       0.719   2.792  18.456  0.00  0.00    +0.000 A 
ATOM     18  C   UNL     1       0.872   2.412  19.785  0.00  0.00    +0.000 A 
ATOM     19  C   UNL     1       1.875   3.005  20.542  0.00  0.00    +0.000 A 
ATOM     20  C   UNL     1       2.128   2.589  21.959  0.00  0.00    +0.000 C 
ATOM     21  N   UNL     1       2.719   3.930  20.025  0.00  0.00    +0.000 NA
ENDBRANCH   4  15
BRANCH   1  22
ATOM     22  C   UNL     1       6.635   5.604  16.248  0.00  0.00    +0.000 C 
ATOM     23  O   UNL     1       7.523   6.446  16.264  0.00  0.00    +0.000 OA
BRANCH  22  24
ATOM     24  O   UNL     1       6.610   4.512  15.428  0.00  0.00    +0.000 OA
BRANCH  24  26
ATOM     25  C   UNL     1       6.205   3.683  13.225  0.00  0.00    +0.000 C 
ATOM     26  C   UNL     1       6.866   4.777  14.047  0.00  0.00    +0.000 C 
ENDBRANCH  24  26
ENDBRANCH  22  24
ENDBRANCH   1  22
TORSDOF 5
ENDMDL
MODEL 5
REMARK VINA RESULT:      -8.3      1.092      2.059
REMARK  Name = 
REMARK  7 active torsions:
REMARK  status: ('A' for Active; 'I' for Inactive)
REMARK    1  A    between atoms: C_1  and  C_2
REMARK    2  A    between atoms: C_2  and  O_3
REMARK    3  A    between atoms: O_3  and  C_4
REMARK    4  A    between atoms: C_4  and  C_6
REMARK    5  A    between atoms: N_8  and  C_9
REMARK    6  A    between atoms: C_18  and  C_19
REMARK    7  A    between atoms: C_23  and  C_24
REMARK                            x       y       z     vdW  Elec       q    Type
REMARK                         _______ _______ _______ _____ _____    ______ ____
ROOT
ATOM      1  C   UNL     1       5.129   5.875  16.901  0.00  0.00    +0.000 A 
ATOM      2  C   UNL     1       4.414   7.013  17.197  0.00  0.00    +0.000 A 
ATOM      3  N   UNL     1       3.376   6.631  18.026  0.00  0.00    +0.000 N 
ATOM      4  C   UNL     1       3.431   5.234  18.093  0.00  0.00    +0.000 A 
ATOM      5  N   UNL     1       4.526   4.787  17.490  0.00  0.00    +0.000 NA
ENDROOT
BRANCH   3   6
ATOM      6  C   UNL     1       2.505   7.549  18.690  0.00  0.00    +0.000 A 
ATOM      7  C   UNL     1       2.207   7.391  20.061  0.00  0.00    +0.000 A 
ATOM      8  C   UNL     1       1.317   8.248  20.713  0.00  0.00    +0.000 A 
ATOM      9  C   UNL     1       0.774   9.278  19.983  0.00  0.00    +0.000 A 
ATOM     10  C   UNL     1       1.094   9.471  18.660  0.00  0.00    +0.000 A 
ATOM     11  C   UNL     1       1.958   8.634  17.982  0.00  0.00    +0.000 A 
ATOM     12  O   UNL     1       0.457  10.551  18.130  0.00  0.00    +0.000 OA
ATOM     13  C   UNL     1      -0.294  11.010  19.274  0.00  0.00    +0.000 C 
ATOM     14  O   UNL     1      -0.102  10.203  20.452  0.00  0.00    +0.000 OA
ENDBRANCH   3   6
BRANCH   4  15
ATOM     15  C   UNL     1       2.435   4.345  18.703  0.00  0.00    +0.000 A 
ATOM     16  C   UNL     1       1.412   3.802  17.938  0.00  0.00    +0.000 A 
ATOM     17  C   UNL     1       0.577   2.857  18.523  0.00  0.00    +0.000 A 
ATOM     18  C   UNL     1       0.785   2.488  19.849  0.00  0.00    +0.000 A 
ATOM     19  C   UNL     1       1.801   3.109  20.565  0.00  0.00    +0.000 A 
ATOM     20  C   UNL     1       2.114   2.708  21.975  0.00  0.00    +0.000 C 
ATOM     21  N   UNL     1       2.604   4.050  20.014  0.00  0.00    +0.000 NA
ENDBRANCH   4  15
BRANCH   1  22
ATOM     22  C   UNL     1       6.309   5.795  16.042  0.00  0.00    +0.000 C 
ATOM     23  O   UNL     1       6.257   5.552  14.844  0.00  0.00    +0.000 OA
BRANCH  22  24
ATOM     24  O   UNL     1       7.462   5.924  16.763  0.00  0.00    +0.000 OA
BRANCH  24  26
ATOM     25  C   UNL     1       7.875   5.769  19.110  0.00  0.00    +0.000 C 
ATOM     26  C   UNL     1       7.624   4.988  17.831  0.00  0.00    +0.000 C 
ENDBRANCH  24  26
ENDBRANCH  22  24
ENDBRANCH   1  22
TORSDOF 5
ENDMDL
MODEL 6
REMARK VINA RESULT:      -8.2      1.470      2.316
REMARK  Name = 
REMARK  7 active torsions:
REMARK  status: ('A' for Active; 'I' for Inactive)
REMARK    1  A    between atoms: C_1  and  C_2
REMARK    2  A    between atoms: C_2  and  O_3
REMARK    3  A    between atoms: O_3  and  C_4
REMARK    4  A    between atoms: C_4  and  C_6
REMARK    5  A    between atoms: N_8  and  C_9
REMARK    6  A    between atoms: C_18  and  C_19
REMARK    7  A    between atoms: C_23  and  C_24
REMARK                            x       y       z     vdW  Elec       q    Type
REMARK                         _______ _______ _______ _____ _____    ______ ____
ROOT
ATOM      1  C   UNL     1       5.868   4.891  15.797  0.00  0.00    +0.000 A 
ATOM      2  C   UNL     1       5.090   5.994  16.067  0.00  0.00    +0.000 A 
ATOM      3  N   UNL     1       4.331   5.688  17.180  0.00  0.00    +0.000 N 
ATOM      4  C   UNL     1       4.590   4.342  17.464  0.00  0.00    +0.000 A 
ATOM      5  N   UNL     1       5.569   3.888  16.691  0.00  0.00    +0.000 NA
ENDROOT
BRANCH   3   6
ATOM      6  C   UNL     1       3.516   6.633  17.876  0.00  0.00    +0.000 A 
ATOM      7  C   UNL     1       3.056   6.359  19.183  0.00  0.00    +0.000 A 
ATOM      8  C   UNL     1       2.216   7.248  19.857  0.00  0.00    +0.000 A 
ATOM      9  C   UNL     1       1.889   8.421  19.221  0.00  0.00    +0.000 A 
ATOM     10  C   UNL     1       2.370   8.722  17.969  0.00  0.00    +0.000 A 
ATOM     11  C   UNL     1       3.188   7.858  17.269  0.00  0.00    +0.000 A 
ATOM     12  O   UNL     1       1.933   9.933  17.529  0.00  0.00    +0.000 OA
ATOM     13  C   UNL     1       1.128  10.355  18.650  0.00  0.00    +0.000 C 
ATOM     14  O   UNL     1       1.091   9.397  19.726  0.00  0.00    +0.000 OA
ENDBRANCH   3   6
BRANCH   4  15
ATOM     15  C   UNL     1       3.890   3.501  18.443  0.00  0.00    +0.000 A 
ATOM     16  C   UNL     1       4.510   3.137  19.630  0.00  0.00    +0.000 A 
ATOM     17  C   UNL     1       3.764   2.460  20.588  0.00  0.00    +0.000 A 
ATOM     18  C   UNL     1       2.429   2.165  20.330  0.00  0.00    +0.000 A 
ATOM     19  C   UNL     1       1.889   2.520  19.100  0.00  0.00    +0.000 A 
ATOM     20  C   UNL     1       0.441   2.286  18.790  0.00  0.00    +0.000 C 
ATOM     21  N   UNL     1       2.614   3.156  18.149  0.00  0.00    +0.000 NA
ENDBRANCH   4  15
BRANCH   1  22
ATOM     22  C   UNL     1       6.821   4.755  14.698  0.00  0.00    +0.000 C 
ATOM     23  O   UNL     1       7.704   5.570  14.463  0.00  0.00    +0.000 OA
BRANCH  22  24
ATOM     24  O   UNL     1       6.536   3.669  13.920  0.00  0.00    +0.000 OA
BRANCH  24  26
ATOM     25  C   UNL     1       5.539   2.994  11.858  0.00  0.00    +0.000 C 
ATOM     26  C   UNL     1       6.570   3.900  12.510  0.00  0.00    +0.000 C 
ENDBRANCH  24  26
ENDBRANCH  22  24
ENDBRANCH   1  22
TORSDOF 5
ENDMDL
MODEL 7
REMARK VINA RESULT:      -8.1      1.327      1.872
REMARK  Name = 
REMARK  7 active torsions:
REMARK  status: ('A' for Active; 'I' for Inactive)
REMARK    1  A    between atoms: C_1  and  C_2
REMARK    2  A    between atoms: C_2  and  O_3
REMARK    3  A    between atoms: O_3  and  C_4
REMARK    4  A    between atoms: C_4  and  C_6
REMARK    5  A    between atoms: N_8  and  C_9
REMARK    6  A    between atoms: C_18  and  C_19
REMARK    7  A    between atoms: C_23  and  C_24
REMARK                            x       y       z     vdW  Elec       q    Type
REMARK                         _______ _______ _______ _____ _____    ______ ____
ROOT
ATOM      1  C   UNL     1       5.912   4.972  15.894  0.00  0.00    +0.000 A 
ATOM      2  C   UNL     1       5.101   6.058  16.128  0.00  0.00    +0.000 A 
ATOM      3  N   UNL     1       4.312   5.744  17.217  0.00  0.00    +0.000 N 
ATOM      4  C   UNL     1       4.590   4.406  17.521  0.00  0.00    +0.000 A 
ATOM      5  N   UNL     1       5.605   3.969  16.785  0.00  0.00    +0.000 NA
ENDROOT
BRANCH   3   6
ATOM      6  C   UNL     1       3.454   6.676  17.878  0.00  0.00    +0.000 A 
ATOM      7  C   UNL     1       3.083   7.883  17.245  0.00  0.00    +0.000 A 
ATOM      8  C   UNL     1       2.287   8.829  17.896  0.00  0.00    +0.000 A 
ATOM      9  C   UNL     1       1.841   8.524  19.160  0.00  0.00    +0.000 A 
ATOM     10  C   UNL     1       2.155   7.331  19.768  0.00  0.00    +0.000 A 
ATOM     11  C   UNL     1       2.951   6.382  19.158  0.00  0.00    +0.000 A 
ATOM     12  O   UNL     1       1.605   7.227  21.008  0.00  0.00    +0.000 OA
ATOM     13  C   UNL     1       0.910   8.489  21.103  0.00  0.00    +0.000 C 
ATOM     14  O   UNL     1       1.060   9.319  19.935  0.00  0.00    +0.000 OA
ENDBRANCH   3   6
BRANCH   4  15
ATOM     15  C   UNL     1       3.877   3.558  18.484  0.00  0.00    +0.000 A 
ATOM     16  C   UNL     1       4.483   3.180  19.674  0.00  0.00    +0.000 A 
ATOM     17  C   UNL     1       3.723   2.495  20.616  0.00  0.00    +0.000 A 
ATOM     18  C   UNL     1       2.390   2.207  20.340  0.00  0.00    +0.000 A 
ATOM     19  C   UNL     1       1.866   2.576  19.107  0.00  0.00    +0.000 A 
ATOM     20  C   UNL     1       0.421   2.349  18.778  0.00  0.00    +0.000 C 
ATOM     21  N   UNL     1       2.603   3.219  18.171  0.00  0.00    +0.000 NA
ENDBRANCH   4  15
BRANCH   1  22
ATOM     22  C   UNL     1       6.904   4.848  14.828  0.00  0.00    +0.000 C 
ATOM     23  O   UNL     1       7.807   5.655  14.649  0.00  0.00    +0.000 OA
BRANCH  22  24
ATOM     24  O   UNL     1       6.633   3.787  14.012  0.00  0.00    +0.000 OA
BRANCH  24  26
ATOM     25  C   UNL     1       5.641   2.975  11.997  0.00  0.00    +0.000 C 
ATOM     26  C   UNL     1       5.500   3.948  13.155  0.00  0.00    +0.000 C 
ENDBRANCH  24  26
ENDBRANCH  22  24
ENDBRANCH   1  22
TORSDOF 5
ENDMDL
MODEL 8
REMARK VINA RESULT:      -8.0      0.972      1.501
REMARK  Name = 
REMARK  7 active torsions:
REMARK  status: ('A' for Active; 'I' for Inactive)
REMARK    1  A    between atoms: C_1  and  C_2
REMARK    2  A    between atoms: C_2  and  O_3
REMARK    3  A    between atoms: O_3  and  C_4
REMARK    4  A    between atoms: C_4  and  C_6
REMARK    5  A    between atoms: N_8  and  C_9
REMARK    6  A    between atoms: C_18  and  C_19
REMARK    7  A    between atoms: C_23  and  C_24
REMARK                            x       y       z     vdW  Elec       q    Type
REMARK                         _______ _______ _______ _____ _____    ______ ____
ROOT
ATOM      1  C   UNL     1       5.353   6.011  16.981  0.00  0.00    +0.000 A 
ATOM      2  C   UNL     1       4.480   7.071  17.075  0.00  0.00    +0.000 A 
ATOM      3  N   UNL     1       3.550   6.742  18.043  0.00  0.00    +0.000 N 
ATOM      4  C   UNL     1       3.827   5.419  18.408  0.00  0.00    +0.000 A 
ATOM      5  N   UNL     1       4.953   5.010  17.836  0.00  0.00    +0.000 NA
ENDROOT
BRANCH   3   6
ATOM      6  C   UNL     1       2.573   7.650  18.554  0.00  0.00    +0.000 A 
ATOM      7  C   UNL     1       1.974   8.610  17.708  0.00  0.00    +0.000 A 
ATOM      8  C   UNL     1       1.056   9.540  18.203  0.00  0.00    +0.000 A 
ATOM      9  C   UNL     1       0.723   9.460  19.533  0.00  0.00    +0.000 A 
ATOM     10  C   UNL     1       1.262   8.499  20.356  0.00  0.00    +0.000 A 
ATOM     11  C   UNL     1       2.183   7.576  19.903  0.00  0.00    +0.000 A 
ATOM     12  O   UNL     1       0.791   8.590  21.629  0.00  0.00    +0.000 OA
ATOM     13  C   UNL     1      -0.106   9.715  21.506  0.00  0.00    +0.000 C 
ATOM     14  O   UNL     1      -0.150  10.275  20.179  0.00  0.00    +0.000 OA
ENDBRANCH   3   6
BRANCH   4  15
ATOM     15  C   UNL     1       3.010   4.557  19.271  0.00  0.00    +0.000 A 
ATOM     16  C   UNL     1       3.019   4.728  20.649  0.00  0.00    +0.000 A 
ATOM     17  C   UNL     1       2.127   3.986  21.414  0.00  0.00    +0.000 A 
ATOM     18  C   UNL     1       1.260   3.099  20.784  0.00  0.00    +0.000 A 
ATOM     19  C   UNL     1       1.340   2.948  19.405  0.00  0.00    +0.000 A 
ATOM     20  C   UNL     1       0.390   2.056  18.665  0.00  0.00    +0.000 C 
ATOM     21  N   UNL     1       2.223   3.645  18.652  0.00  0.00    +0.000 NA
ENDBRANCH   4  15
BRANCH   1  22
ATOM     22  C   UNL     1       6.494   5.910  16.074  0.00  0.00    +0.000 C 
ATOM     23  O   UNL     1       7.624   6.280  16.366  0.00  0.00    +0.000 OA
BRANCH  22  24
ATOM     24  O   UNL     1       6.117   5.451  14.844  0.00  0.00    +0.000 OA
BRANCH  24  26
ATOM     25  C   UNL     1       6.000   3.756  13.166  0.00  0.00    +0.000 C 
ATOM     26  C   UNL     1       6.348   4.059  14.614  0.00  0.00    +0.000 C 
ENDBRANCH  24  26
ENDBRANCH  22  24
ENDBRANCH   1  22
TORSDOF 5
ENDMDL
MODEL 9
REMARK VINA RESULT:      -7.9      1.205      2.063
REMARK  Name = 
REMARK  7 active torsions:
REMARK  status: ('A' for Active; 'I' for Inactive)
REMARK    1  A    between atoms: C_1  and  C_2
REMARK    2  A    between atoms: C_2  and  O_3
REMARK    3  A    between atoms: O_3  and  C_4
REMARK    4  A    between atoms: C_4  and  C_6
REMARK    5  A    between atoms: N_8  and  C_9
REMARK    6  A    between atoms: C_18  and  C_19
REMARK    7  A    between atoms: C_23  and  C_24
REMARK                            x       y       z     vdW  Elec       q    Type
REMARK                         _______ _______ _______ _____ _____    ______ ____
ROOT
ATOM      1  C   UNL     1       5.451   5.843  17.039  0.00  0.00    +0.000 A 
ATOM      2  C   UNL     1       4.591   6.916  17.098  0.00  0.00    +0.000 A 
ATOM      3  N   UNL     1       3.637   6.615  18.050  0.00  0.00    +0.000 N 
ATOM      4  C   UNL     1       3.888   5.295  18.442  0.00  0.00    +0.000 A 
ATOM      5  N   UNL     1       5.020   4.861  17.901  0.00  0.00    +0.000 NA
ENDROOT
BRANCH   3   6
ATOM      6  C   UNL     1       2.663   7.545  18.526  0.00  0.00    +0.000 A 
ATOM      7  C   UNL     1       2.105   8.509  17.657  0.00  0.00    +0.000 A 
ATOM      8  C   UNL     1       1.190   9.458  18.118  0.00  0.00    +0.000 A 
ATOM      9  C   UNL     1       0.818   9.395  19.439  0.00  0.00    +0.000 A 
ATOM     10  C   UNL     1       1.317   8.432  20.284  0.00  0.00    +0.000 A 
ATOM     11  C   UNL     1       2.234   7.489  19.864  0.00  0.00    +0.000 A 
ATOM     12  O   UNL     1       0.811   8.542  21.543  0.00  0.00    +0.000 OA
ATOM     13  C   UNL     1      -0.061   9.681  21.386  0.00  0.00    +0.000 C 
ATOM     14  O   UNL     1      -0.058  10.230  20.054  0.00  0.00    +0.000 OA
ENDBRANCH   3   6
BRANCH   4  15
ATOM     15  C   UNL     1       3.040   4.458  19.301  0.00  0.00    +0.000 A 
ATOM     16  C   UNL     1       3.040   4.635  20.677  0.00  0.00    +0.000 A 
ATOM     17  C   UNL     1       2.122   3.920  21.438  0.00  0.00    +0.000 A 
ATOM     18  C   UNL     1       1.239   3.051  20.803  0.00  0.00    +0.000 A 
ATOM     19  C   UNL     1       1.330   2.891  19.426  0.00  0.00    +0.000 A 
ATOM     20  C   UNL     1       0.366   2.019  18.680  0.00  0.00    +0.000 C 
ATOM     21  N   UNL     1       2.238   3.562  18.678  0.00  0.00    +0.000 NA
ENDBRANCH   4  15
BRANCH   1  22
ATOM     22  C   UNL     1       6.610   5.712  16.158  0.00  0.00    +0.000 C 
ATOM     23  O   UNL     1       6.772   4.773  15.390  0.00  0.00    +0.000 OA
BRANCH  22  24
ATOM     24  O   UNL     1       7.520   6.707  16.377  0.00  0.00    +0.000 OA
BRANCH  24  26
ATOM     25  C   UNL     1       8.007   8.543  17.824  0.00  0.00    +0.000 C 
ATOM     26  C   UNL     1       7.734   7.050  17.747  0.00  0.00    +0.000 C 
ENDBRANCH  24  26
ENDBRANCH  22  24
ENDBRANCH   1  22
TORSDOF 5
ENDMDL
