MODEL 1
REMARK VINA RESULT:      -7.2      0.000      0.000
REMARK  Name = 
REMARK  3 active torsions:
REMARK  status: ('A' for Active; 'I' for Inactive)
REMARK    1  A    between atoms: C_4  and  N_5
REMARK    2  A    between atoms: N_5  and  C_6
REMARK    3  A    between atoms: C_6  and  N_7
REMARK                            x       y       z     vdW  Elec       q    Type
REMARK                         _______ _______ _______ _____ _____    ______ ____
ROOT
ATOM      1  C   UNL     1       4.614   3.767  16.502  0.00  0.00    +0.000 C 
ENDROOT
BRANCH   1   2
ATOM      2  N   UNL     1       3.849   3.343  17.674  0.00  0.00    +0.000 N 
ATOM      3  C   UNL     1       3.544   2.030  17.926  0.00  0.00    +0.000 A 
ATOM      4  N   UNL     1       2.591   1.914  18.818  0.00  0.00    +0.000 NA
ATOM      5  C   UNL     1       2.348   3.194  19.247  0.00  0.00    +0.000 A 
ATOM      6  C   UNL     1       1.439   3.638  20.219  0.00  0.00    +0.000 A 
ATOM      7  C   UNL     1       1.446   4.986  20.583  0.00  0.00    +0.000 A 
ATOM      8  C   UNL     1       2.313   5.883  19.958  0.00  0.00    +0.000 A 
ATOM      9  C   UNL     1       3.169   5.474  18.924  0.00  0.00    +0.000 A 
ATOM     10  C   UNL     1       3.172   4.113  18.593  0.00  0.00    +0.000 A 
ENDBRANCH   1   2
BRANCH   1  11
ATOM     11  N   UNL     1       6.060   3.827  16.654  0.00  0.00    +0.000 N 
ATOM     12  H   UNL     1       6.460   2.939  16.934  0.00  0.00    +0.000 HD
BRANCH  11  16
ATOM     13  C   UNL     1       8.002   7.056  18.562  0.00  0.00    +0.000 A 
ATOM     14  C   UNL     1       8.007   5.783  19.119  0.00  0.00    +0.000 A 
ATOM     15  C   UNL     1       7.365   4.729  18.462  0.00  0.00    +0.000 A 
ATOM     16  C   UNL     1       6.677   4.927  17.258  0.00  0.00    +0.000 A 
ATOM     17  C   UNL     1       6.730   6.208  16.687  0.00  0.00    +0.000 A 
ATOM     18  C   UNL     1       7.373   7.264  17.341  0.00  0.00    +0.000 A 
ENDBRANCH  11  16
ENDBRANCH   1  11
TORSDOF 3
ENDMDL
MODEL 2
REMARK VINA RESULT:      -7.1      1.423      1.770
REMARK  Name = 
REMARK  3 active torsions:
REMARK  status: ('A' for Active; 'I' for Inactive)
REMARK    1  A    between atoms: C_4  and  N_5
REMARK    2  A    between atoms: N_5  and  C_6
REMARK    3  A    between atoms: C_6  and  N_7
REMARK                            x       y       z     vdW  Elec       q    Type
REMARK                         _______ _______ _______ _____ _____    ______ ____
ROOT
ATOM      1  C   UNL     1       4.971   3.342  17.622  0.00  0.00    +0.000 C 
ENDROOT
BRANCH   1   2
ATOM      2  N   UNL     1       3.556   3.277  17.984  0.00  0.00    +0.000 N 
ATOM      3  C   UNL     1       2.549   3.584  17.105  0.00  0.00    +0.000 A 
ATOM      4  N   UNL     1       1.408   3.781  17.719  0.00  0.00    +0.000 NA
ATOM      5  C   UNL     1       1.656   3.478  19.034  0.00  0.00    +0.000 A 
ATOM      6  C   UNL     1       0.770   3.495  20.122  0.00  0.00    +0.000 A 
ATOM      7  C   UNL     1       1.216   3.029  21.361  0.00  0.00    +0.000 A 
ATOM      8  C   UNL     1       2.532   2.595  21.522  0.00  0.00    +0.000 A 
ATOM      9  C   UNL     1       3.456   2.651  20.467  0.00  0.00    +0.000 A 
ATOM     10  C   UNL     1       2.985   3.092  19.223  0.00  0.00    +0.000 A 
ENDBRANCH   1   2
BRANCH   1  11
ATOM     11  N   UNL     1       5.856   4.006  18.567  0.00  0.00    +0.000 N 
ATOM     12  H   UNL     1       5.540   3.915  19.526  0.00  0.00    +0.000 HD
BRANCH  11  16
ATOM     13  C   UNL     1       7.653   7.742  17.765  0.00  0.00    +0.000 A 
ATOM     14  C   UNL     1       8.197   6.868  18.698  0.00  0.00    +0.000 A 
ATOM     15  C   UNL     1       7.589   5.632  18.938  0.00  0.00    +0.000 A 
ATOM     16  C   UNL     1       6.409   5.257  18.281  0.00  0.00    +0.000 A 
ATOM     17  C   UNL     1       5.907   6.131  17.305  0.00  0.00    +0.000 A 
ATOM     18  C   UNL     1       6.515   7.368  17.061  0.00  0.00    +0.000 A 
ENDBRANCH  11  16
ENDBRANCH   1  11
TORSDOF 3
ENDMDL
MODEL 3
REMARK VINA RESULT:      -7.1      2.484      6.562
REMARK  Name = 
REMARK  3 active torsions:
REMARK  status: ('A' for Active; 'I' for Inactive)
REMARK    1  A    between atoms: C_4  and  N_5
REMARK    2  A    between atoms: N_5  and  C_6
REMARK    3  A    between atoms: C_6  and  N_7
REMARK                            x       y       z     vdW  Elec       q    Type
REMARK                         _______ _______ _______ _____ _____    ______ ____
ROOT
ATOM      1  C   UNL     1       4.420   4.180  16.547  0.00  0.00    +0.000 C 
ENDROOT
BRANCH   1   2
ATOM      2  N   UNL     1       5.671   4.430  15.835  0.00  0.00    +0.000 N 
ATOM      3  C   UNL     1       6.715   5.126  16.389  0.00  0.00    +0.000 A 
ATOM      4  N   UNL     1       7.578   5.514  15.482  0.00  0.00    +0.000 NA
ATOM      5  C   UNL     1       7.140   4.952  14.311  0.00  0.00    +0.000 A 
ATOM      6  C   UNL     1       7.712   5.026  13.032  0.00  0.00    +0.000 A 
ATOM      7  C   UNL     1       7.155   4.268  11.999  0.00  0.00    +0.000 A 
ATOM      8  C   UNL     1       6.023   3.485  12.228  0.00  0.00    +0.000 A 
ATOM      9  C   UNL     1       5.387   3.465  13.478  0.00  0.00    +0.000 A 
ATOM     10  C   UNL     1       5.976   4.205  14.511  0.00  0.00    +0.000 A 
ENDBRANCH   1   2
BRANCH   1  11
ATOM     11  N   UNL     1       4.412   3.063  17.481  0.00  0.00    +0.000 N 
ATOM     12  H   UNL     1       4.633   2.180  17.034  0.00  0.00    +0.000 HD
BRANCH  11  16
ATOM     13  C   UNL     1       1.343   2.680  20.356  0.00  0.00    +0.000 A 
ATOM     14  C   UNL     1       1.059   2.671  18.995  0.00  0.00    +0.000 A 
ATOM     15  C   UNL     1       2.095   2.789  18.064  0.00  0.00    +0.000 A 
ATOM     16  C   UNL     1       3.427   2.954  18.467  0.00  0.00    +0.000 A 
ATOM     17  C   UNL     1       3.696   2.907  19.843  0.00  0.00    +0.000 A 
ATOM     18  C   UNL     1       2.662   2.787  20.778  0.00  0.00    +0.000 A 
ENDBRANCH  11  16
ENDBRANCH   1  11
TORSDOF 3
ENDMDL
MODEL 4
REMARK VINA RESULT:      -7.0      2.458      6.488
REMARK  Name = 
REMARK  3 active torsions:
REMARK  status: ('A' for Active; 'I' for Inactive)
REMARK    1  A    between atoms: C_4  and  N_5
REMARK    2  A    between atoms: N_5  and  C_6
REMARK    3  A    between atoms: C_6  and  N_7
REMARK                            x       y       z     vdW  Elec       q    Type
REMARK                         _______ _______ _______ _____ _____    ______ ____
ROOT
ATOM      1  C   UNL     1       4.515   4.030  16.521  0.00  0.00    +0.000 C 
ENDROOT
BRANCH   1   2
ATOM      2  N   UNL     1       5.747   4.373  15.813  0.00  0.00    +0.000 N 
ATOM      3  C   UNL     1       6.742   5.129  16.377  0.00  0.00    +0.000 A 
ATOM      4  N   UNL     1       7.577   5.586  15.476  0.00  0.00    +0.000 NA
ATOM      5  C   UNL     1       7.177   5.012  14.297  0.00  0.00    +0.000 A 
ATOM      6  C   UNL     1       7.743   5.142  13.019  0.00  0.00    +0.000 A 
ATOM      7  C   UNL     1       7.236   4.363  11.976  0.00  0.00    +0.000 A 
ATOM      8  C   UNL     1       6.159   3.504  12.193  0.00  0.00    +0.000 A 
ATOM      9  C   UNL     1       5.526   3.424  13.443  0.00  0.00    +0.000 A 
ATOM     10  C   UNL     1       6.065   4.187  14.487  0.00  0.00    +0.000 A 
ENDBRANCH   1   2
BRANCH   1  11
ATOM     11  N   UNL     1       4.029   5.001  17.491  0.00  0.00    +0.000 N 
ATOM     12  H   UNL     1       4.777   5.544  17.907  0.00  0.00    +0.000 HD
BRANCH  11  16
ATOM     13  C   UNL     1       0.950   3.873  20.152  0.00  0.00    +0.000 A 
ATOM     14  C   UNL     1       1.128   3.218  18.940  0.00  0.00    +0.000 A 
ATOM     15  C   UNL     1       2.162   3.604  18.081  0.00  0.00    +0.000 A 
ATOM     16  C   UNL     1       3.015   4.671  18.394  0.00  0.00    +0.000 A 
ATOM     17  C   UNL     1       2.850   5.283  19.646  0.00  0.00    +0.000 A 
ATOM     18  C   UNL     1       1.818   4.898  20.509  0.00  0.00    +0.000 A 
ENDBRANCH  11  16
ENDBRANCH   1  11
TORSDOF 3
ENDMDL
MODEL 5
REMARK VINA RESULT:      -7.0      1.361      2.037
REMARK  Name = 
REMARK  3 active torsions:
REMARK  status: ('A' for Active; 'I' for Inactive)
REMARK    1  A    between atoms: C_4  and  N_5
REMARK    2  A    between atoms: N_5  and  C_6
REMARK    3  A    between atoms: C_6  and  N_7
REMARK                            x       y       z     vdW  Elec       q    Type
REMARK                         _______ _______ _______ _____ _____    ______ ____
ROOT
ATOM      1  C   UNL     1       4.597   3.581  17.246  0.00  0.00    +0.000 C 
ENDROOT
BRANCH   1   2
ATOM      2  N   UNL     1       3.262   3.363  17.802  0.00  0.00    +0.000 N 
ATOM      3  C   UNL     1       2.115   3.558  17.077  0.00  0.00    +0.000 A 
ATOM      4  N   UNL     1       1.058   3.632  17.848  0.00  0.00    +0.000 NA
ATOM      5  C   UNL     1       1.519   3.359  19.110  0.00  0.00    +0.000 A 
ATOM      6  C   UNL     1       0.798   3.281  20.312  0.00  0.00    +0.000 A 
ATOM      7  C   UNL     1       1.461   2.868  21.470  0.00  0.00    +0.000 A 
ATOM      8  C   UNL     1       2.826   2.580  21.439  0.00  0.00    +0.000 A 
ATOM      9  C   UNL     1       3.581   2.734  20.266  0.00  0.00    +0.000 A 
ATOM     10  C   UNL     1       2.895   3.119  19.106  0.00  0.00    +0.000 A 
ENDBRANCH   1   2
BRANCH   1  11
ATOM     11  N   UNL     1       4.941   4.951  16.895  0.00  0.00    +0.000 N 
ATOM     12  H   UNL     1       4.868   5.128  15.899  0.00  0.00    +0.000 HD
BRANCH  11  16
ATOM     13  C   UNL     1       8.177   7.031  18.638  0.00  0.00    +0.000 A 
ATOM     14  C   UNL     1       7.518   7.532  17.522  0.00  0.00    +0.000 A 
ATOM     15  C   UNL     1       6.443   6.829  16.970  0.00  0.00    +0.000 A 
ATOM     16  C   UNL     1       6.025   5.598  17.495  0.00  0.00    +0.000 A 
ATOM     17  C   UNL     1       6.671   5.138  18.653  0.00  0.00    +0.000 A 
ATOM     18  C   UNL     1       7.746   5.840  19.208  0.00  0.00    +0.000 A 
ENDBRANCH  11  16
ENDBRANCH   1  11
TORSDOF 3
ENDMDL
MODEL 6
REMARK VINA RESULT:      -7.0      2.375      6.439
REMARK  Name = 
REMARK  3 active torsions:
REMARK  status: ('A' for Active; 'I' for Inactive)
REMARK    1  A    between atoms: C_4  and  N_5
REMARK    2  A    between atoms: N_5  and  C_6
REMARK    3  A    between atoms: C_6  and  N_7
REMARK                            x       y       z     vdW  Elec       q    Type
REMARK                         _______ _______ _______ _____ _____    ______ ____
ROOT
ATOM      1  C   UNL     1       4.365   3.878  16.531  0.00  0.00    +0.000 C 
ENDROOT
BRANCH   1   2
ATOM      2  N   UNL     1       5.621   4.244  15.878  0.00  0.00    +0.000 N 
ATOM      3  C   UNL     1       6.603   4.965  16.508  0.00  0.00    +0.000 A 
ATOM      4  N   UNL     1       7.469   5.458  15.657  0.00  0.00    +0.000 NA
ATOM      5  C   UNL     1       7.102   4.943  14.440  0.00  0.00    +0.000 A 
ATOM      6  C   UNL     1       7.709   5.128  13.188  0.00  0.00    +0.000 A 
ATOM      7  C   UNL     1       7.231   4.404  12.094  0.00  0.00    +0.000 A 
ATOM      8  C   UNL     1       6.142   3.543  12.236  0.00  0.00    +0.000 A 
ATOM      9  C   UNL     1       5.469   3.410  13.460  0.00  0.00    +0.000 A 
ATOM     10  C   UNL     1       5.980   4.119  14.555  0.00  0.00    +0.000 A 
ENDBRANCH   1   2
BRANCH   1  11
ATOM     11  N   UNL     1       3.817   4.840  17.476  0.00  0.00    +0.000 N 
ATOM     12  H   UNL     1       4.517   5.482  17.829  0.00  0.00    +0.000 HD
BRANCH  11  16
ATOM     13  C   UNL     1       1.024   3.791  20.465  0.00  0.00    +0.000 A 
ATOM     14  C   UNL     1       1.939   4.818  20.664  0.00  0.00    +0.000 A 
ATOM     15  C   UNL     1       2.846   5.153  19.654  0.00  0.00    +0.000 A 
ATOM     16  C   UNL     1       2.885   4.450  18.442  0.00  0.00    +0.000 A 
ATOM     17  C   UNL     1       1.919   3.453  18.243  0.00  0.00    +0.000 A 
ATOM     18  C   UNL     1       1.008   3.117  19.250  0.00  0.00    +0.000 A 
ENDBRANCH  11  16
ENDBRANCH   1  11
TORSDOF 3
ENDMDL
MODEL 7
REMARK VINA RESULT:      -7.0      0.622      1.350
REMARK  Name = 
REMARK  3 active torsions:
REMARK  status: ('A' for Active; 'I' for Inactive)
REMARK    1  A    between atoms: C_4  and  N_5
REMARK    2  A    between atoms: N_5  and  C_6
REMARK    3  A    between atoms: C_6  and  N_7
REMARK                            x       y       z     vdW  Elec       q    Type
REMARK                         _______ _______ _______ _____ _____    ______ ____
ROOT
ATOM      1  C   UNL     1       4.526   3.729  16.659  0.00  0.00    +0.000 C 
ENDROOT
BRANCH   1   2
ATOM      2  N   UNL     1       3.920   3.679  17.989  0.00  0.00    +0.000 N 
ATOM      3  C   UNL     1       3.725   2.506  18.672  0.00  0.00    +0.000 A 
ATOM      4  N   UNL     1       2.883   2.654  19.666  0.00  0.00    +0.000 NA
ATOM      5  C   UNL     1       2.611   3.998  19.702  0.00  0.00    +0.000 A 
ATOM      6  C   UNL     1       1.787   4.704  20.592  0.00  0.00    +0.000 A 
ATOM      7  C   UNL     1       1.751   6.098  20.515  0.00  0.00    +0.000 A 
ATOM      8  C   UNL     1       2.489   6.772  19.541  0.00  0.00    +0.000 A 
ATOM      9  C   UNL     1       3.251   6.079  18.589  0.00  0.00    +0.000 A 
ATOM     10  C   UNL     1       3.302   4.683  18.699  0.00  0.00    +0.000 A 
ENDBRANCH   1   2
BRANCH   1  11
ATOM     11  N   UNL     1       5.977   3.823  16.606  0.00  0.00    +0.000 N 
ATOM     12  H   UNL     1       6.430   2.924  16.730  0.00  0.00    +0.000 HD
BRANCH  11  16
ATOM     13  C   UNL     1       7.940   7.098  18.410  0.00  0.00    +0.000 A 
ATOM     14  C   UNL     1       7.187   7.259  17.253  0.00  0.00    +0.000 A 
ATOM     15  C   UNL     1       6.538   6.160  16.682  0.00  0.00    +0.000 A 
ATOM     16  C   UNL     1       6.655   4.875  17.228  0.00  0.00    +0.000 A 
ATOM     17  C   UNL     1       7.377   4.745  18.425  0.00  0.00    +0.000 A 
ATOM     18  C   UNL     1       8.025   5.843  19.000  0.00  0.00    +0.000 A 
ENDBRANCH  11  16
ENDBRANCH   1  11
TORSDOF 3
ENDMDL
MODEL 8
REMARK VINA RESULT:      -7.0      2.110      5.810
REMARK  Name = 
REMARK  3 active torsions:
REMARK  status: ('A' for Active; 'I' for Inactive)
REMARK    1  A    between atoms: C_4  and  N_5
REMARK    2  A    between atoms: N_5  and  C_6
REMARK    3  A    between atoms: C_6  and  N_7
REMARK                            x       y       z     vdW  Elec       q    Type
REMARK                         _______ _______ _______ _____ _____    ______ ____
ROOT
ATOM      1  C   UNL     1       3.510   6.681  18.528  0.00  0.00    +0.000 C 
ENDROOT
BRANCH   1   2
ATOM      2  N   UNL     1       4.640   5.779  18.316  0.00  0.00    +0.000 N 
ATOM      3  C   UNL     1       5.349   5.220  19.348  0.00  0.00    +0.000 A 
ATOM      4  N   UNL     1       6.496   4.732  18.944  0.00  0.00    +0.000 NA
ATOM      5  C   UNL     1       6.482   4.875  17.580  0.00  0.00    +0.000 A 
ATOM      6  C   UNL     1       7.457   4.491  16.646  0.00  0.00    +0.000 A 
ATOM      7  C   UNL     1       7.176   4.628  15.285  0.00  0.00    +0.000 A 
ATOM      8  C   UNL     1       5.964   5.176  14.864  0.00  0.00    +0.000 A 
ATOM      9  C   UNL     1       5.013   5.644  15.784  0.00  0.00    +0.000 A 
ATOM     10  C   UNL     1       5.296   5.471  17.145  0.00  0.00    +0.000 A 
ENDBRANCH   1   2
BRANCH   1  11
ATOM     11  N   UNL     1       2.183   6.134  18.283  0.00  0.00    +0.000 N 
ATOM     12  H   UNL     1       1.465   6.849  18.265  0.00  0.00    +0.000 HD
BRANCH  11  16
ATOM     13  C   UNL     1       0.965   2.474  20.000  0.00  0.00    +0.000 A 
ATOM     14  C   UNL     1       1.095   2.614  18.624  0.00  0.00    +0.000 A 
ATOM     15  C   UNL     1       1.510   3.833  18.081  0.00  0.00    +0.000 A 
ATOM     16  C   UNL     1       1.769   4.947  18.893  0.00  0.00    +0.000 A 
ATOM     17  C   UNL     1       1.683   4.767  20.282  0.00  0.00    +0.000 A 
ATOM     18  C   UNL     1       1.269   3.547  20.828  0.00  0.00    +0.000 A 
ENDBRANCH  11  16
ENDBRANCH   1  11
TORSDOF 3
ENDMDL
MODEL 9
REMARK VINA RESULT:      -6.9      1.221      5.571
REMARK  Name = 
REMARK  3 active torsions:
REMARK  status: ('A' for Active; 'I' for Inactive)
REMARK    1  A    between atoms: C_4  and  N_5
REMARK    2  A    between atoms: N_5  and  C_6
REMARK    3  A    between atoms: C_6  and  N_7
REMARK                            x       y       z     vdW  Elec       q    Type
REMARK                         _______ _______ _______ _____ _____    ______ ____
ROOT
ATOM      1  C   UNL     1       4.689   3.551  16.824  0.00  0.00    +0.000 C 
ENDROOT
BRANCH   1   2
ATOM      2  N   UNL     1       5.214   4.915  16.838  0.00  0.00    +0.000 N 
ATOM      3  C   UNL     1       4.896   5.843  15.880  0.00  0.00    +0.000 A 
ATOM      4  N   UNL     1       5.719   6.863  15.896  0.00  0.00    +0.000 NA
ATOM      5  C   UNL     1       6.531   6.646  16.979  0.00  0.00    +0.000 A 
ATOM      6  C   UNL     1       7.573   7.447  17.471  0.00  0.00    +0.000 A 
ATOM      7  C   UNL     1       8.193   7.086  18.669  0.00  0.00    +0.000 A 
ATOM      8  C   UNL     1       7.809   5.925  19.342  0.00  0.00    +0.000 A 
ATOM      9  C   UNL     1       6.829   5.067  18.822  0.00  0.00    +0.000 A 
ATOM     10  C   UNL     1       6.195   5.459  17.635  0.00  0.00    +0.000 A 
ENDBRANCH   1   2
BRANCH   1  11
ATOM     11  N   UNL     1       4.428   2.939  18.119  0.00  0.00    +0.000 N 
ATOM     12  H   UNL     1       4.680   1.957  18.142  0.00  0.00    +0.000 HD
BRANCH  11  16
ATOM     13  C   UNL     1       0.847   3.689  20.226  0.00  0.00    +0.000 A 
ATOM     14  C   UNL     1       0.897   2.749  19.205  0.00  0.00    +0.000 A 
ATOM     15  C   UNL     1       2.097   2.511  18.530  0.00  0.00    +0.000 A 
ATOM     16  C   UNL     1       3.262   3.229  18.832  0.00  0.00    +0.000 A 
ATOM     17  C   UNL     1       3.203   4.136  19.902  0.00  0.00    +0.000 A 
ATOM     18  C   UNL     1       2.003   4.374  20.581  0.00  0.00    +0.000 A 
ENDBRANCH  11  16
ENDBRANCH   1  11
TORSDOF 3
ENDMDL
