MODEL 1
REMARK VINA RESULT:      -8.1      0.000      0.000
REMARK  Name = 
REMARK  1 active torsions:
REMARK  status: ('A' for Active; 'I' for Inactive)
REMARK    1  A    between atoms: C_13  and  C_14
REMARK                            x       y       z     vdW  Elec       q    Type
REMARK                         _______ _______ _______ _____ _____    ______ ____
ROOT
ATOM      1 CL   UNL     1       1.101   2.628  22.437  0.00  0.00    +0.000 Cl
ATOM      2  C   UNL     1       2.139   2.751  21.058  0.00  0.00    +0.000 A 
ATOM      3  C   UNL     1       3.327   2.029  21.010  0.00  0.00    +0.000 A 
ATOM      4  C   UNL     1       4.150   2.121  19.887  0.00  0.00    +0.000 A 
ATOM      5  C   UNL     1       3.825   2.992  18.830  0.00  0.00    +0.000 A 
ATOM      6  C   UNL     1       2.644   3.736  18.905  0.00  0.00    +0.000 A 
ATOM      7  C   UNL     1       1.794   3.602  20.010  0.00  0.00    +0.000 A 
ATOM      8  C   UNL     1       2.358   4.780  17.855  0.00  0.00    +0.000 C 
ATOM      9  O   UNL     1       1.937   5.999  18.493  0.00  0.00    +0.000 OA
ATOM     10  C   UNL     1       3.090   6.836  18.683  0.00  0.00    +0.000 C 
ATOM     11  C   UNL     1       4.277   6.146  18.043  0.00  0.00    +0.000 C 
ATOM     12  C   UNL     1       3.599   5.195  17.071  0.00  0.00    +0.000 C 
ATOM     13  C   UNL     1       4.429   4.003  16.602  0.00  0.00    +0.000 C 
ATOM     14  N   UNL     1       4.660   3.049  17.716  0.00  0.00    +0.000 N 
ATOM     15  H   UNL     1       5.632   3.018  18.006  0.00  0.00    +0.000 HD
ENDROOT
BRANCH  13  16
ATOM     16  C   UNL     1       5.726   4.443  15.918  0.00  0.00    +0.000 A 
ATOM     17  C   UNL     1       6.484   5.530  16.342  0.00  0.00    +0.000 A 
ATOM     18  N   UNL     1       7.569   5.596  15.530  0.00  0.00    +0.000 N 
ATOM     19  C   UNL     1       7.185   5.074  14.324  0.00  0.00    +0.000 A 
ATOM     20  C   UNL     1       7.534   5.414  13.023  0.00  0.00    +0.000 A 
ATOM     21  C   UNL     1       7.149   4.528  12.028  0.00  0.00    +0.000 A 
ATOM     22  C   UNL     1       6.566   3.305  12.366  0.00  0.00    +0.000 A 
ATOM     23 BR   UNL     1       6.332   2.016  11.001  0.00  0.00    +0.000 Br
ATOM     24  C   UNL     1       6.140   3.025  13.680  0.00  0.00    +0.000 A 
ATOM     25  C   UNL     1       6.324   4.028  14.659  0.00  0.00    +0.000 A 
ATOM     26  H   UNL     1       8.507   5.447  15.895  0.00  0.00    +0.000 HD
ENDBRANCH  13  16
TORSDOF 1
ENDMDL
MODEL 2
REMARK VINA RESULT:      -7.7      5.539      7.951
REMARK  Name = 
REMARK  1 active torsions:
REMARK  status: ('A' for Active; 'I' for Inactive)
REMARK    1  A    between atoms: C_13  and  C_14
REMARK                            x       y       z     vdW  Elec       q    Type
REMARK                         _______ _______ _______ _____ _____    ______ ____
ROOT
ATOM      1 CL   UNL     1      -3.648  13.628  20.019  0.00  0.00    +0.000 Cl
ATOM      2  C   UNL     1      -2.483  12.379  19.749  0.00  0.00    +0.000 A 
ATOM      3  C   UNL     1      -2.607  11.532  18.653  0.00  0.00    +0.000 A 
ATOM      4  C   UNL     1      -1.653  10.537  18.433  0.00  0.00    +0.000 A 
ATOM      5  C   UNL     1      -0.603  10.337  19.348  0.00  0.00    +0.000 A 
ATOM      6  C   UNL     1      -0.506  11.175  20.462  0.00  0.00    +0.000 A 
ATOM      7  C   UNL     1      -1.435  12.206  20.653  0.00  0.00    +0.000 A 
ATOM      8  C   UNL     1       0.522  10.881  21.526  0.00  0.00    +0.000 C 
ATOM      9  O   UNL     1      -0.095  10.958  22.823  0.00  0.00    +0.000 OA
ATOM     10  C   UNL     1      -0.529   9.641  23.202  0.00  0.00    +0.000 C 
ATOM     11  C   UNL     1      -0.073   8.675  22.128  0.00  0.00    +0.000 C 
ATOM     12  C   UNL     1       1.052   9.452  21.464  0.00  0.00    +0.000 C 
ATOM     13  C   UNL     1       1.429   9.020  20.050  0.00  0.00    +0.000 C 
ATOM     14  N   UNL     1       0.343   9.346  19.092  0.00  0.00    +0.000 N 
ATOM     15  H   UNL     1      -0.112   8.516  18.723  0.00  0.00    +0.000 HD
ENDROOT
BRANCH  13  16
ATOM     16  C   UNL     1       1.849   7.549  19.994  0.00  0.00    +0.000 A 
ATOM     17  C   UNL     1       1.646   6.655  21.040  0.00  0.00    +0.000 A 
ATOM     18  N   UNL     1       2.108   5.449  20.624  0.00  0.00    +0.000 N 
ATOM     19  C   UNL     1       3.111   5.703  19.728  0.00  0.00    +0.000 A 
ATOM     20  C   UNL     1       4.304   5.040  19.471  0.00  0.00    +0.000 A 
ATOM     21  C   UNL     1       4.990   5.423  18.327  0.00  0.00    +0.000 A 
ATOM     22  C   UNL     1       4.414   6.329  17.435  0.00  0.00    +0.000 A 
ATOM     23 BR   UNL     1       5.252   6.590  15.758  0.00  0.00    +0.000 Br
ATOM     24  C   UNL     1       3.251   7.054  17.762  0.00  0.00    +0.000 A 
ATOM     25  C   UNL     1       2.674   6.833  19.033  0.00  0.00    +0.000 A 
ATOM     26  H   UNL     1       1.478   4.660  20.500  0.00  0.00    +0.000 HD
ENDBRANCH  13  16
TORSDOF 1
ENDMDL
MODEL 3
REMARK VINA RESULT:      -7.6      5.931      8.084
REMARK  Name = 
REMARK  1 active torsions:
REMARK  status: ('A' for Active; 'I' for Inactive)
REMARK    1  A    between atoms: C_13  and  C_14
REMARK                            x       y       z     vdW  Elec       q    Type
REMARK                         _______ _______ _______ _____ _____    ______ ____
ROOT
ATOM      1 CL   UNL     1      -2.568  13.520  23.376  0.00  0.00    +0.000 Cl
ATOM      2  C   UNL     1      -1.746  12.251  22.537  0.00  0.00    +0.000 A 
ATOM      3  C   UNL     1      -1.194  11.188  23.244  0.00  0.00    +0.000 A 
ATOM      4  C   UNL     1      -0.547  10.160  22.558  0.00  0.00    +0.000 A 
ATOM      5  C   UNL     1      -0.386  10.220  21.161  0.00  0.00    +0.000 A 
ATOM      6  C   UNL     1      -0.919  11.309  20.465  0.00  0.00    +0.000 A 
ATOM      7  C   UNL     1      -1.613  12.315  21.150  0.00  0.00    +0.000 A 
ATOM      8  C   UNL     1      -0.627  11.464  18.993  0.00  0.00    +0.000 C 
ATOM      9  O   UNL     1      -0.228  12.819  18.724  0.00  0.00    +0.000 OA
ATOM     10  C   UNL     1       1.207  12.892  18.782  0.00  0.00    +0.000 C 
ATOM     11  C   UNL     1       1.736  11.491  19.003  0.00  0.00    +0.000 C 
ATOM     12  C   UNL     1       0.569  10.637  18.532  0.00  0.00    +0.000 C 
ATOM     13  C   UNL     1       0.531   9.202  19.046  0.00  0.00    +0.000 C 
ATOM     14  N   UNL     1       0.250   9.170  20.504  0.00  0.00    +0.000 N 
ATOM     15  H   UNL     1       1.047   8.849  21.046  0.00  0.00    +0.000 HD
ENDROOT
BRANCH  13  16
ATOM     16  C   UNL     1       1.795   8.425  18.668  0.00  0.00    +0.000 A 
ATOM     17  C   UNL     1       2.583   8.737  17.565  0.00  0.00    +0.000 A 
ATOM     18  N   UNL     1       3.625   7.867  17.565  0.00  0.00    +0.000 N 
ATOM     19  C   UNL     1       3.174   6.719  18.158  0.00  0.00    +0.000 A 
ATOM     20  C   UNL     1       3.457   5.382  17.907  0.00  0.00    +0.000 A 
ATOM     21  C   UNL     1       3.011   4.468  18.851  0.00  0.00    +0.000 A 
ATOM     22  C   UNL     1       2.436   4.915  20.042  0.00  0.00    +0.000 A 
ATOM     23 BR   UNL     1       2.118   3.650  21.413  0.00  0.00    +0.000 Br
ATOM     24  C   UNL     1       2.078   6.264  20.232  0.00  0.00    +0.000 A 
ATOM     25  C   UNL     1       2.322   7.165  19.171  0.00  0.00    +0.000 A 
ATOM     26  H   UNL     1       4.579   8.191  17.702  0.00  0.00    +0.000 HD
ENDBRANCH  13  16
TORSDOF 1
ENDMDL
MODEL 4
REMARK VINA RESULT:      -7.5      4.857      7.982
REMARK  Name = 
REMARK  1 active torsions:
REMARK  status: ('A' for Active; 'I' for Inactive)
REMARK    1  A    between atoms: C_13  and  C_14
REMARK                            x       y       z     vdW  Elec       q    Type
REMARK                         _______ _______ _______ _____ _____    ______ ____
ROOT
ATOM      1 CL   UNL     1       6.695   3.641  14.977  0.00  0.00    +0.000 Cl
ATOM      2  C   UNL     1       5.699   4.757  15.846  0.00  0.00    +0.000 A 
ATOM      3  C   UNL     1       6.101   6.079  16.002  0.00  0.00    +0.000 A 
ATOM      4  C   UNL     1       5.284   6.976  16.691  0.00  0.00    +0.000 A 
ATOM      5  C   UNL     1       4.087   6.541  17.289  0.00  0.00    +0.000 A 
ATOM      6  C   UNL     1       3.709   5.202  17.151  0.00  0.00    +0.000 A 
ATOM      7  C   UNL     1       4.506   4.315  16.416  0.00  0.00    +0.000 A 
ATOM      8  C   UNL     1       2.511   4.688  17.910  0.00  0.00    +0.000 C 
ATOM      9  O   UNL     1       2.846   3.443  18.548  0.00  0.00    +0.000 OA
ATOM     10  C   UNL     1       3.286   3.722  19.888  0.00  0.00    +0.000 C 
ATOM     11  C   UNL     1       3.125   5.208  20.131  0.00  0.00    +0.000 C 
ATOM     12  C   UNL     1       2.105   5.591  19.070  0.00  0.00    +0.000 C 
ATOM     13  C   UNL     1       2.053   7.065  18.683  0.00  0.00    +0.000 C 
ATOM     14  N   UNL     1       3.285   7.465  17.956  0.00  0.00    +0.000 N 
ATOM     15  H   UNL     1       3.862   8.106  18.492  0.00  0.00    +0.000 HD
ENDROOT
BRANCH  13  16
ATOM     16  C   UNL     1       1.758   7.963  19.887  0.00  0.00    +0.000 A 
ATOM     17  C   UNL     1       1.803   7.516  21.204  0.00  0.00    +0.000 A 
ATOM     18  N   UNL     1       1.521   8.583  21.993  0.00  0.00    +0.000 N 
ATOM     19  C   UNL     1       0.710   9.407  21.261  0.00  0.00    +0.000 A 
ATOM     20  C   UNL     1      -0.356  10.216  21.635  0.00  0.00    +0.000 A 
ATOM     21  C   UNL     1      -0.817  11.111  20.680  0.00  0.00    +0.000 A 
ATOM     22  C   UNL     1      -0.134  11.260  19.472  0.00  0.00    +0.000 A 
ATOM     23 BR   UNL     1      -0.624  12.692  18.335  0.00  0.00    +0.000 Br
ATOM     24  C   UNL     1       0.883  10.367  19.080  0.00  0.00    +0.000 A 
ATOM     25  C   UNL     1       1.200   9.305  19.958  0.00  0.00    +0.000 A 
ATOM     26  H   UNL     1       2.217   8.961  22.632  0.00  0.00    +0.000 HD
ENDBRANCH  13  16
TORSDOF 1
ENDMDL
MODEL 5
REMARK VINA RESULT:      -7.4      4.855      7.438
REMARK  Name = 
REMARK  1 active torsions:
REMARK  status: ('A' for Active; 'I' for Inactive)
REMARK    1  A    between atoms: C_13  and  C_14
REMARK                            x       y       z     vdW  Elec       q    Type
REMARK                         _______ _______ _______ _____ _____    ______ ____
ROOT
ATOM      1 CL   UNL     1       4.084   0.453  18.559  0.00  0.00    +0.000 Cl
ATOM      2  C   UNL     1       3.404   2.027  18.787  0.00  0.00    +0.000 A 
ATOM      3  C   UNL     1       2.029   2.215  18.688  0.00  0.00    +0.000 A 
ATOM      4  C   UNL     1       1.487   3.485  18.890  0.00  0.00    +0.000 A 
ATOM      5  C   UNL     1       2.322   4.592  19.126  0.00  0.00    +0.000 A 
ATOM      6  C   UNL     1       3.704   4.395  19.194  0.00  0.00    +0.000 A 
ATOM      7  C   UNL     1       4.243   3.110  19.042  0.00  0.00    +0.000 A 
ATOM      8  C   UNL     1       4.620   5.589  19.297  0.00  0.00    +0.000 C 
ATOM      9  O   UNL     1       5.697   5.450  18.353  0.00  0.00    +0.000 OA
ATOM     10  C   UNL     1       5.328   6.127  17.139  0.00  0.00    +0.000 C 
ATOM     11  C   UNL     1       3.994   6.805  17.370  0.00  0.00    +0.000 C 
ATOM     12  C   UNL     1       3.947   6.895  18.887  0.00  0.00    +0.000 C 
ATOM     13  C   UNL     1       2.567   7.071  19.511  0.00  0.00    +0.000 C 
ATOM     14  N   UNL     1       1.749   5.844  19.340  0.00  0.00    +0.000 N 
ATOM     15  H   UNL     1       0.967   5.983  18.707  0.00  0.00    +0.000 HD
ENDROOT
BRANCH  13  16
ATOM     16  C   UNL     1       1.863   8.330  18.998  0.00  0.00    +0.000 A 
ATOM     17  C   UNL     1       2.160   8.928  17.777  0.00  0.00    +0.000 A 
ATOM     18  N   UNL     1       1.323   9.988  17.643  0.00  0.00    +0.000 N 
ATOM     19  C   UNL     1       1.040  10.424  18.909  0.00  0.00    +0.000 A 
ATOM     20  C   UNL     1       0.833  11.700  19.418  0.00  0.00    +0.000 A 
ATOM     21  C   UNL     1       0.328  11.778  20.708  0.00  0.00    +0.000 A 
ATOM     22  C   UNL     1      -0.068  10.618  21.376  0.00  0.00    +0.000 A 
ATOM     23 BR   UNL     1      -1.016  10.801  23.003  0.00  0.00    +0.000 Br
ATOM     24  C   UNL     1       0.236   9.335  20.879  0.00  0.00    +0.000 A 
ATOM     25  C   UNL     1       0.961   9.254  19.668  0.00  0.00    +0.000 A 
ATOM     26  H   UNL     1       0.620  10.012  16.908  0.00  0.00    +0.000 HD
ENDBRANCH  13  16
TORSDOF 1
ENDMDL
MODEL 6
REMARK VINA RESULT:      -7.4      6.884     10.014
REMARK  Name = 
REMARK  1 active torsions:
REMARK  status: ('A' for Active; 'I' for Inactive)
REMARK    1  A    between atoms: C_13  and  C_14
REMARK                            x       y       z     vdW  Elec       q    Type
REMARK                         _______ _______ _______ _____ _____    ______ ____
ROOT
ATOM      1 CL   UNL     1       2.946   4.355  17.483  0.00  0.00    +0.000 Cl
ATOM      2  C   UNL     1       2.460   5.549  18.636  0.00  0.00    +0.000 A 
ATOM      3  C   UNL     1       2.006   5.164  19.893  0.00  0.00    +0.000 A 
ATOM      4  C   UNL     1       1.631   6.134  20.823  0.00  0.00    +0.000 A 
ATOM      5  C   UNL     1       1.642   7.498  20.479  0.00  0.00    +0.000 A 
ATOM      6  C   UNL     1       2.071   7.871  19.202  0.00  0.00    +0.000 A 
ATOM      7  C   UNL     1       2.496   6.898  18.288  0.00  0.00    +0.000 A 
ATOM      8  C   UNL     1       1.947   9.310  18.768  0.00  0.00    +0.000 C 
ATOM      9  O   UNL     1       1.367   9.367  17.454  0.00  0.00    +0.000 OA
ATOM     10  C   UNL     1      -0.056   9.525  17.589  0.00  0.00    +0.000 C 
ATOM     11  C   UNL     1      -0.368   9.673  19.064  0.00  0.00    +0.000 C 
ATOM     12  C   UNL     1       0.974  10.111  19.627  0.00  0.00    +0.000 C 
ATOM     13  C   UNL     1       1.183   9.892  21.122  0.00  0.00    +0.000 C 
ATOM     14  N   UNL     1       1.278   8.444  21.435  0.00  0.00    +0.000 N 
ATOM     15  H   UNL     1       0.483   8.110  21.972  0.00  0.00    +0.000 HD
ENDROOT
BRANCH  13  16
ATOM     16  C   UNL     1       0.125  10.613  21.960  0.00  0.00    +0.000 A 
ATOM     17  C   UNL     1      -0.687   9.967  22.887  0.00  0.00    +0.000 A 
ATOM     18  N   UNL     1      -1.470  10.919  23.457  0.00  0.00    +0.000 N 
ATOM     19  C   UNL     1      -1.636  11.901  22.519  0.00  0.00    +0.000 A 
ATOM     20  C   UNL     1      -2.721  12.717  22.225  0.00  0.00    +0.000 A 
ATOM     21  C   UNL     1      -2.481  13.779  21.365  0.00  0.00    +0.000 A 
ATOM     22  C   UNL     1      -1.180  14.062  20.948  0.00  0.00    +0.000 A 
ATOM     23 BR   UNL     1      -0.868  15.683  20.022  0.00  0.00    +0.000 Br
ATOM     24  C   UNL     1      -0.115  13.169  21.182  0.00  0.00    +0.000 A 
ATOM     25  C   UNL     1      -0.405  11.965  21.864  0.00  0.00    +0.000 A 
ATOM     26  H   UNL     1      -1.386  11.142  24.446  0.00  0.00    +0.000 HD
ENDBRANCH  13  16
TORSDOF 1
ENDMDL
MODEL 7
REMARK VINA RESULT:      -7.4      4.021      7.154
REMARK  Name = 
REMARK  1 active torsions:
REMARK  status: ('A' for Active; 'I' for Inactive)
REMARK    1  A    between atoms: C_13  and  C_14
REMARK                            x       y       z     vdW  Elec       q    Type
REMARK                         _______ _______ _______ _____ _____    ______ ____
ROOT
ATOM      1 CL   UNL     1       7.827   5.822  11.880  0.00  0.00    +0.000 Cl
ATOM      2  C   UNL     1       7.136   5.056  13.268  0.00  0.00    +0.000 A 
ATOM      3  C   UNL     1       6.432   3.864  13.131  0.00  0.00    +0.000 A 
ATOM      4  C   UNL     1       5.891   3.244  14.257  0.00  0.00    +0.000 A 
ATOM      5  C   UNL     1       5.992   3.847  15.525  0.00  0.00    +0.000 A 
ATOM      6  C   UNL     1       6.676   5.060  15.645  0.00  0.00    +0.000 A 
ATOM      7  C   UNL     1       7.262   5.655  14.520  0.00  0.00    +0.000 A 
ATOM      8  C   UNL     1       6.664   5.792  16.964  0.00  0.00    +0.000 C 
ATOM      9  O   UNL     1       6.362   7.180  16.740  0.00  0.00    +0.000 OA
ATOM     10  C   UNL     1       4.944   7.368  16.885  0.00  0.00    +0.000 C 
ATOM     11  C   UNL     1       4.342   6.048  17.317  0.00  0.00    +0.000 C 
ATOM     12  C   UNL     1       5.549   5.326  17.895  0.00  0.00    +0.000 C 
ATOM     13  C   UNL     1       5.448   3.807  17.986  0.00  0.00    +0.000 C 
ATOM     14  N   UNL     1       5.455   3.195  16.633  0.00  0.00    +0.000 N 
ATOM     15  H   UNL     1       4.564   2.773  16.392  0.00  0.00    +0.000 HD
ENDROOT
BRANCH  13  16
ATOM     16  C   UNL     1       4.253   3.362  18.832  0.00  0.00    +0.000 A 
ATOM     17  C   UNL     1       3.727   2.075  18.795  0.00  0.00    +0.000 A 
ATOM     18  N   UNL     1       2.709   2.038  19.693  0.00  0.00    +0.000 N 
ATOM     19  C   UNL     1       2.201   3.306  19.758  0.00  0.00    +0.000 A 
ATOM     20  C   UNL     1       0.902   3.769  19.929  0.00  0.00    +0.000 A 
ATOM     21  C   UNL     1       0.757   5.124  20.189  0.00  0.00    +0.000 A 
ATOM     22  C   UNL     1       1.883   5.921  20.399  0.00  0.00    +0.000 A 
ATOM     23 BR   UNL     1       1.627   7.684  21.038  0.00  0.00    +0.000 Br
ATOM     24  C   UNL     1       3.184   5.452  20.130  0.00  0.00    +0.000 A 
ATOM     25  C   UNL     1       3.320   4.134  19.639  0.00  0.00    +0.000 A 
ATOM     26  H   UNL     1       2.760   1.447  20.519  0.00  0.00    +0.000 HD
ENDBRANCH  13  16
TORSDOF 1
ENDMDL
MODEL 8
REMARK VINA RESULT:      -7.3      9.549     12.193
REMARK  Name = 
REMARK  1 active torsions:
REMARK  status: ('A' for Active; 'I' for Inactive)
REMARK    1  A    between atoms: C_13  and  C_14
REMARK                            x       y       z     vdW  Elec       q    Type
REMARK                         _______ _______ _______ _____ _____    ______ ____
ROOT
ATOM      1 CL   UNL     1       3.658  14.312  21.200  0.00  0.00    +0.000 Cl
ATOM      2  C   UNL     1       2.283  13.924  20.224  0.00  0.00    +0.000 A 
ATOM      3  C   UNL     1       1.331  14.897  19.940  0.00  0.00    +0.000 A 
ATOM      4  C   UNL     1       0.233  14.581  19.138  0.00  0.00    +0.000 A 
ATOM      5  C   UNL     1       0.043  13.267  18.670  0.00  0.00    +0.000 A 
ATOM      6  C   UNL     1       0.991  12.291  18.989  0.00  0.00    +0.000 A 
ATOM      7  C   UNL     1       2.119  12.623  19.751  0.00  0.00    +0.000 A 
ATOM      8  C   UNL     1       0.726  10.852  18.623  0.00  0.00    +0.000 C 
ATOM      9  O   UNL     1       1.009  10.009  19.754  0.00  0.00    +0.000 OA
ATOM     10  C   UNL     1      -0.210   9.807  20.489  0.00  0.00    +0.000 C 
ATOM     11  C   UNL     1      -1.331  10.478  19.723  0.00  0.00    +0.000 C 
ATOM     12  C   UNL     1      -0.743  10.572  18.325  0.00  0.00    +0.000 C 
ATOM     13  C   UNL     1      -1.368  11.611  17.398  0.00  0.00    +0.000 C 
ATOM     14  N   UNL     1      -1.055  12.987  17.859  0.00  0.00    +0.000 N 
ATOM     15  H   UNL     1      -1.875  13.479  18.199  0.00  0.00    +0.000 HD
ENDROOT
BRANCH  13  16
ATOM     16  C   UNL     1      -2.868  11.376  17.204  0.00  0.00    +0.000 A 
ATOM     17  C   UNL     1      -3.422  10.916  16.014  0.00  0.00    +0.000 A 
ATOM     18  N   UNL     1      -4.758  10.797  16.221  0.00  0.00    +0.000 N 
ATOM     19  C   UNL     1      -5.092  11.730  17.165  0.00  0.00    +0.000 A 
ATOM     20  C   UNL     1      -6.228  12.513  17.322  0.00  0.00    +0.000 A 
ATOM     21  C   UNL     1      -6.350  13.190  18.527  0.00  0.00    +0.000 A 
ATOM     22  C   UNL     1      -5.432  12.964  19.554  0.00  0.00    +0.000 A 
ATOM     23 BR   UNL     1      -5.807  13.681  21.265  0.00  0.00    +0.000 Br
ATOM     24  C   UNL     1      -4.243  12.241  19.339  0.00  0.00    +0.000 A 
ATOM     25  C   UNL     1      -4.002  11.741  18.039  0.00  0.00    +0.000 A 
ATOM     26  H   UNL     1      -5.214   9.888  16.194  0.00  0.00    +0.000 HD
ENDBRANCH  13  16
TORSDOF 1
ENDMDL
MODEL 9
REMARK VINA RESULT:      -7.3      4.852      6.734
REMARK  Name = 
REMARK  1 active torsions:
REMARK  status: ('A' for Active; 'I' for Inactive)
REMARK    1  A    between atoms: C_13  and  C_14
REMARK                            x       y       z     vdW  Elec       q    Type
REMARK                         _______ _______ _______ _____ _____    ______ ____
ROOT
ATOM      1 CL   UNL     1      -1.697  12.236  23.219  0.00  0.00    +0.000 Cl
ATOM      2  C   UNL     1      -0.820  11.025  22.350  0.00  0.00    +0.000 A 
ATOM      3  C   UNL     1      -0.093  10.059  23.037  0.00  0.00    +0.000 A 
ATOM      4  C   UNL     1       0.597   9.076  22.328  0.00  0.00    +0.000 A 
ATOM      5  C   UNL     1       0.623   9.091  20.921  0.00  0.00    +0.000 A 
ATOM      6  C   UNL     1      -0.086  10.086  20.242  0.00  0.00    +0.000 A 
ATOM      7  C   UNL     1      -0.821  11.042  20.956  0.00  0.00    +0.000 A 
ATOM      8  C   UNL     1       0.053  10.206  18.745  0.00  0.00    +0.000 C 
ATOM      9  O   UNL     1       0.275  11.583  18.393  0.00  0.00    +0.000 OA
ATOM     10  C   UNL     1       1.692  11.810  18.312  0.00  0.00    +0.000 C 
ATOM     11  C   UNL     1       2.389  10.484  18.530  0.00  0.00    +0.000 C 
ATOM     12  C   UNL     1       1.285   9.492  18.200  0.00  0.00    +0.000 C 
ATOM     13  C   UNL     1       1.452   8.084  18.764  0.00  0.00    +0.000 C 
ATOM     14  N   UNL     1       1.309   8.086  20.242  0.00  0.00    +0.000 N 
ATOM     15  H   UNL     1       2.181   7.876  20.717  0.00  0.00    +0.000 HD
ENDROOT
BRANCH  13  16
ATOM     16  C   UNL     1       2.753   7.429  18.295  0.00  0.00    +0.000 A 
ATOM     17  C   UNL     1       3.502   7.901  17.221  0.00  0.00    +0.000 A 
ATOM     18  N   UNL     1       4.594   7.101  17.121  0.00  0.00    +0.000 N 
ATOM     19  C   UNL     1       4.224   5.873  17.598  0.00  0.00    +0.000 A 
ATOM     20  C   UNL     1       4.583   4.589  17.208  0.00  0.00    +0.000 A 
ATOM     21  C   UNL     1       4.210   3.558  18.058  0.00  0.00    +0.000 A 
ATOM     22  C   UNL     1       3.630   3.845  19.295  0.00  0.00    +0.000 A 
ATOM     23 BR   UNL     1       3.413   2.430  20.533  0.00  0.00    +0.000 Br
ATOM     24  C   UNL     1       3.193   5.143  19.626  0.00  0.00    +0.000 A 
ATOM     25  C   UNL     1       3.364   6.160  18.660  0.00  0.00    +0.000 A 
ATOM     26  H   UNL     1       5.530   7.468  17.279  0.00  0.00    +0.000 HD
ENDBRANCH  13  16
TORSDOF 1
ENDMDL
