MODEL 1
REMARK VINA RESULT:      -5.8      0.000      0.000
REMARK  Name = 
REMARK  8 active torsions:
REMARK  status: ('A' for Active; 'I' for Inactive)
REMARK    1  A    between atoms: C_1  and  O_2
REMARK    2  A    between atoms: O_2  and  C_3
REMARK    3  A    between atoms: C_6  and  O_7
REMARK    4  A    between atoms: O_7  and  C_8
REMARK    5  A    between atoms: C_9  and  C_10
REMARK    6  A    between atoms: C_10  and  C_11
REMARK    7  A    between atoms: C_11  and  C_12
REMARK    8  A    between atoms: C_11  and  N_13
REMARK                            x       y       z     vdW  Elec       q    Type
REMARK                         _______ _______ _______ _____ _____    ______ ____
ROOT
ATOM      1  C   UNL     1       5.565   4.298  15.267  0.00  0.00    +0.000 A 
ATOM      2  C   UNL     1       6.893   4.600  15.547  0.00  0.00    +0.000 A 
ATOM      3  C   UNL     1       7.313   4.773  16.863  0.00  0.00    +0.000 A 
ATOM      4  C   UNL     1       6.420   4.615  17.932  0.00  0.00    +0.000 A 
ATOM      5  C   UNL     1       5.064   4.350  17.673  0.00  0.00    +0.000 A 
ATOM      6  C   UNL     1       4.656   4.193  16.326  0.00  0.00    +0.000 A 
ENDROOT
BRANCH   1   8
ATOM      7  C   UNL     1       6.382   3.796  13.090  0.00  0.00    +0.000 C 
ATOM      8  O   UNL     1       5.292   4.112  13.943  0.00  0.00    +0.000 OA
ENDBRANCH   1   8
BRANCH   4   9
ATOM      9  O   UNL     1       6.815   4.727  19.238  0.00  0.00    +0.000 OA
ATOM     10  C   UNL     1       7.822   5.694  19.515  0.00  0.00    +0.000 C 
ENDBRANCH   4   9
BRANCH   5  11
ATOM     11  C   UNL     1       4.005   4.074  18.733  0.00  0.00    +0.000 C 
BRANCH  11  12
ATOM     12  C   UNL     1       3.831   2.666  19.342  0.00  0.00    +0.000 C 
ATOM     13  C   UNL     1       3.417   1.619  18.309  0.00  0.00    +0.000 C 
BRANCH  12  14
ATOM     14  N   UNL     1       5.107   2.242  19.956  0.00  0.00    +0.000 NA
ATOM     15  H   UNL     1       5.116   2.503  20.941  0.00  0.00    +0.000 HD
ATOM     16  H   UNL     1       5.873   2.758  19.521  0.00  0.00    +0.000 HD
ENDBRANCH  12  14
ENDBRANCH  11  12
ENDBRANCH   5  11
TORSDOF 5
ENDMDL
MODEL 2
REMARK VINA RESULT:      -5.6      2.572      4.555
REMARK  Name = 
REMARK  8 active torsions:
REMARK  status: ('A' for Active; 'I' for Inactive)
REMARK    1  A    between atoms: C_1  and  O_2
REMARK    2  A    between atoms: O_2  and  C_3
REMARK    3  A    between atoms: C_6  and  O_7
REMARK    4  A    between atoms: O_7  and  C_8
REMARK    5  A    between atoms: C_9  and  C_10
REMARK    6  A    between atoms: C_10  and  C_11
REMARK    7  A    between atoms: C_11  and  C_12
REMARK    8  A    between atoms: C_11  and  N_13
REMARK                            x       y       z     vdW  Elec       q    Type
REMARK                         _______ _______ _______ _____ _____    ______ ____
ROOT
ATOM      1  C   UNL     1       2.806   3.925  18.472  0.00  0.00    +0.000 A 
ATOM      2  C   UNL     1       3.530   4.192  19.628  0.00  0.00    +0.000 A 
ATOM      3  C   UNL     1       4.912   4.358  19.571  0.00  0.00    +0.000 A 
ATOM      4  C   UNL     1       5.596   4.293  18.348  0.00  0.00    +0.000 A 
ATOM      5  C   UNL     1       4.891   3.983  17.172  0.00  0.00    +0.000 A 
ATOM      6  C   UNL     1       3.489   3.804  17.257  0.00  0.00    +0.000 A 
ENDROOT
BRANCH   1   8
ATOM      7  C   UNL     1       0.977   3.872  19.993  0.00  0.00    +0.000 C 
ATOM      8  O   UNL     1       1.457   3.826  18.657  0.00  0.00    +0.000 OA
ENDBRANCH   1   8
BRANCH   4   9
ATOM      9  O   UNL     1       6.944   4.503  18.253  0.00  0.00    +0.000 OA
ATOM     10  C   UNL     1       7.458   5.645  18.930  0.00  0.00    +0.000 C 
ENDBRANCH   4   9
BRANCH   5  11
ATOM     11  C   UNL     1       5.488   3.960  15.770  0.00  0.00    +0.000 C 
BRANCH  11  12
ATOM     12  C   UNL     1       5.973   5.257  15.087  0.00  0.00    +0.000 C 
ATOM     13  C   UNL     1       5.254   6.504  15.602  0.00  0.00    +0.000 C 
BRANCH  12  14
ATOM     14  N   UNL     1       7.422   5.419  15.323  0.00  0.00    +0.000 NA
ATOM     15  H   UNL     1       7.580   5.730  16.280  0.00  0.00    +0.000 HD
ATOM     16  H   UNL     1       7.776   6.165  14.723  0.00  0.00    +0.000 HD
ENDBRANCH  12  14
ENDBRANCH  11  12
ENDBRANCH   5  11
TORSDOF 5
ENDMDL
MODEL 3
REMARK VINA RESULT:      -5.6      2.477      4.495
REMARK  Name = 
REMARK  8 active torsions:
REMARK  status: ('A' for Active; 'I' for Inactive)
REMARK    1  A    between atoms: C_1  and  O_2
REMARK    2  A    between atoms: O_2  and  C_3
REMARK    3  A    between atoms: C_6  and  O_7
REMARK    4  A    between atoms: O_7  and  C_8
REMARK    5  A    between atoms: C_9  and  C_10
REMARK    6  A    between atoms: C_10  and  C_11
REMARK    7  A    between atoms: C_11  and  C_12
REMARK    8  A    between atoms: C_11  and  N_13
REMARK                            x       y       z     vdW  Elec       q    Type
REMARK                         _______ _______ _______ _____ _____    ______ ____
ROOT
ATOM      1  C   UNL     1       3.533   3.150  18.449  0.00  0.00    +0.000 A 
ATOM      2  C   UNL     1       4.141   3.819  19.504  0.00  0.00    +0.000 A 
ATOM      3  C   UNL     1       5.139   4.760  19.261  0.00  0.00    +0.000 A 
ATOM      4  C   UNL     1       5.526   5.077  17.951  0.00  0.00    +0.000 A 
ATOM      5  C   UNL     1       4.955   4.385  16.869  0.00  0.00    +0.000 A 
ATOM      6  C   UNL     1       3.953   3.421  17.142  0.00  0.00    +0.000 A 
ENDROOT
BRANCH   1   8
ATOM      7  C   UNL     1       1.312   2.848  19.247  0.00  0.00    +0.000 C 
ATOM      8  O   UNL     1       2.544   2.286  18.819  0.00  0.00    +0.000 OA
ENDBRANCH   1   8
BRANCH   4   9
ATOM      9  O   UNL     1       6.465   6.033  17.677  0.00  0.00    +0.000 OA
ATOM     10  C   UNL     1       7.609   6.060  18.525  0.00  0.00    +0.000 C 
ENDBRANCH   4   9
BRANCH   5  11
ATOM     11  C   UNL     1       5.219   4.681  15.398  0.00  0.00    +0.000 C 
BRANCH  11  12
ATOM     12  C   UNL     1       6.523   4.219  14.712  0.00  0.00    +0.000 C 
ATOM     13  C   UNL     1       6.328   3.877  13.235  0.00  0.00    +0.000 C 
BRANCH  12  14
ATOM     14  N   UNL     1       7.533   5.293  14.816  0.00  0.00    +0.000 NA
ATOM     15  H   UNL     1       8.403   4.909  15.183  0.00  0.00    +0.000 HD
ATOM     16  H   UNL     1       7.218   5.981  15.501  0.00  0.00    +0.000 HD
ENDBRANCH  12  14
ENDBRANCH  11  12
ENDBRANCH   5  11
TORSDOF 5
ENDMDL
MODEL 4
REMARK VINA RESULT:      -5.6      2.662      4.519
REMARK  Name = 
REMARK  8 active torsions:
REMARK  status: ('A' for Active; 'I' for Inactive)
REMARK    1  A    between atoms: C_1  and  O_2
REMARK    2  A    between atoms: O_2  and  C_3
REMARK    3  A    between atoms: C_6  and  O_7
REMARK    4  A    between atoms: O_7  and  C_8
REMARK    5  A    between atoms: C_9  and  C_10
REMARK    6  A    between atoms: C_10  and  C_11
REMARK    7  A    between atoms: C_11  and  C_12
REMARK    8  A    between atoms: C_11  and  N_13
REMARK                            x       y       z     vdW  Elec       q    Type
REMARK                         _______ _______ _______ _____ _____    ______ ____
ROOT
ATOM      1  C   UNL     1       3.720   3.958  18.120  0.00  0.00    +0.000 A 
ATOM      2  C   UNL     1       4.194   4.925  18.999  0.00  0.00    +0.000 A 
ATOM      3  C   UNL     1       5.078   5.906  18.557  0.00  0.00    +0.000 A 
ATOM      4  C   UNL     1       5.480   5.962  17.214  0.00  0.00    +0.000 A 
ATOM      5  C   UNL     1       5.046   4.972  16.316  0.00  0.00    +0.000 A 
ATOM      6  C   UNL     1       4.160   3.975  16.792  0.00  0.00    +0.000 A 
ENDROOT
BRANCH   1   8
ATOM      7  C   UNL     1       3.148   1.699  18.597  0.00  0.00    +0.000 C 
ATOM      8  O   UNL     1       2.830   3.081  18.668  0.00  0.00    +0.000 OA
ENDBRANCH   1   8
BRANCH   4   9
ATOM      9  O   UNL     1       6.305   6.945  16.738  0.00  0.00    +0.000 OA
ATOM     10  C   UNL     1       7.502   7.179  17.473  0.00  0.00    +0.000 C 
ENDBRANCH   4   9
BRANCH   5  11
ATOM     11  C   UNL     1       5.336   4.955  14.820  0.00  0.00    +0.000 C 
BRANCH  11  12
ATOM     12  C   UNL     1       6.640   4.342  14.266  0.00  0.00    +0.000 C 
ATOM     13  C   UNL     1       6.483   3.797  12.846  0.00  0.00    +0.000 C 
BRANCH  12  14
ATOM     14  N   UNL     1       7.698   5.374  14.259  0.00  0.00    +0.000 NA
ATOM     15  H   UNL     1       7.733   5.833  15.168  0.00  0.00    +0.000 HD
ATOM     16  H   UNL     1       7.449   6.100  13.586  0.00  0.00    +0.000 HD
ENDBRANCH  12  14
ENDBRANCH  11  12
ENDBRANCH   5  11
TORSDOF 5
ENDMDL
MODEL 5
REMARK VINA RESULT:      -5.5      2.997      4.460
REMARK  Name = 
REMARK  8 active torsions:
REMARK  status: ('A' for Active; 'I' for Inactive)
REMARK    1  A    between atoms: C_1  and  O_2
REMARK    2  A    between atoms: O_2  and  C_3
REMARK    3  A    between atoms: C_6  and  O_7
REMARK    4  A    between atoms: O_7  and  C_8
REMARK    5  A    between atoms: C_9  and  C_10
REMARK    6  A    between atoms: C_10  and  C_11
REMARK    7  A    between atoms: C_11  and  C_12
REMARK    8  A    between atoms: C_11  and  N_13
REMARK                            x       y       z     vdW  Elec       q    Type
REMARK                         _______ _______ _______ _____ _____    ______ ____
ROOT
ATOM      1  C   UNL     1       3.075   5.115  18.041  0.00  0.00    +0.000 A 
ATOM      2  C   UNL     1       3.043   6.505  18.005  0.00  0.00    +0.000 A 
ATOM      3  C   UNL     1       4.139   7.223  17.534  0.00  0.00    +0.000 A 
ATOM      4  C   UNL     1       5.281   6.564  17.056  0.00  0.00    +0.000 A 
ATOM      5  C   UNL     1       5.353   5.162  17.119  0.00  0.00    +0.000 A 
ATOM      6  C   UNL     1       4.232   4.453  17.617  0.00  0.00    +0.000 A 
ENDROOT
BRANCH   1   8
ATOM      7  C   UNL     1       1.604   3.247  17.975  0.00  0.00    +0.000 C 
ATOM      8  O   UNL     1       1.924   4.533  18.485  0.00  0.00    +0.000 OA
ENDBRANCH   1   8
BRANCH   4   9
ATOM      9  O   UNL     1       6.352   7.240  16.538  0.00  0.00    +0.000 OA
ATOM     10  C   UNL     1       7.313   7.718  17.474  0.00  0.00    +0.000 C 
ENDBRANCH   4   9
BRANCH   5  11
ATOM     11  C   UNL     1       6.492   4.314  16.564  0.00  0.00    +0.000 C 
BRANCH  11  12
ATOM     12  C   UNL     1       6.753   4.224  15.045  0.00  0.00    +0.000 C 
ATOM     13  C   UNL     1       5.468   4.259  14.219  0.00  0.00    +0.000 C 
BRANCH  12  14
ATOM     14  N   UNL     1       7.609   5.356  14.631  0.00  0.00    +0.000 NA
ATOM     15  H   UNL     1       8.582   5.055  14.602  0.00  0.00    +0.000 HD
ATOM     16  H   UNL     1       7.561   6.086  15.343  0.00  0.00    +0.000 HD
ENDBRANCH  12  14
ENDBRANCH  11  12
ENDBRANCH   5  11
TORSDOF 5
ENDMDL
MODEL 6
REMARK VINA RESULT:      -5.4      2.262      2.984
REMARK  Name = 
REMARK  8 active torsions:
REMARK  status: ('A' for Active; 'I' for Inactive)
REMARK    1  A    between atoms: C_1  and  O_2
REMARK    2  A    between atoms: O_2  and  C_3
REMARK    3  A    between atoms: C_6  and  O_7
REMARK    4  A    between atoms: O_7  and  C_8
REMARK    5  A    between atoms: C_9  and  C_10
REMARK    6  A    between atoms: C_10  and  C_11
REMARK    7  A    between atoms: C_11  and  C_12
REMARK    8  A    between atoms: C_11  and  N_13
REMARK                            x       y       z     vdW  Elec       q    Type
REMARK                         _______ _______ _______ _____ _____    ______ ____
ROOT
ATOM      1  C   UNL     1       5.399   5.490  16.221  0.00  0.00    +0.000 A 
ATOM      2  C   UNL     1       4.922   6.637  16.845  0.00  0.00    +0.000 A 
ATOM      3  C   UNL     1       3.798   6.577  17.666  0.00  0.00    +0.000 A 
ATOM      4  C   UNL     1       3.146   5.360  17.907  0.00  0.00    +0.000 A 
ATOM      5  C   UNL     1       3.585   4.194  17.256  0.00  0.00    +0.000 A 
ATOM      6  C   UNL     1       4.720   4.282  16.413  0.00  0.00    +0.000 A 
ENDROOT
BRANCH   1   8
ATOM      7  C   UNL     1       6.761   4.775  14.406  0.00  0.00    +0.000 C 
ATOM      8  O   UNL     1       6.528   5.676  15.478  0.00  0.00    +0.000 OA
ENDBRANCH   1   8
BRANCH   4   9
ATOM      9  O   UNL     1       2.073   5.259  18.749  0.00  0.00    +0.000 OA
ATOM     10  C   UNL     1       2.210   5.870  20.028  0.00  0.00    +0.000 C 
ENDBRANCH   4   9
BRANCH   5  11
ATOM     11  C   UNL     1       3.025   2.795  17.486  0.00  0.00    +0.000 C 
BRANCH  11  12
ATOM     12  C   UNL     1       3.210   2.073  18.838  0.00  0.00    +0.000 C 
ATOM     13  C   UNL     1       4.399   2.605  19.637  0.00  0.00    +0.000 C 
BRANCH  12  14
ATOM     14  N   UNL     1       1.986   2.241  19.649  0.00  0.00    +0.000 NA
ATOM     15  H   UNL     1       1.766   1.365  20.121  0.00  0.00    +0.000 HD
ATOM     16  H   UNL     1       1.199   2.430  19.027  0.00  0.00    +0.000 HD
ENDBRANCH  12  14
ENDBRANCH  11  12
ENDBRANCH   5  11
TORSDOF 5
ENDMDL
MODEL 7
REMARK VINA RESULT:      -5.4      2.691      3.209
REMARK  Name = 
REMARK  8 active torsions:
REMARK  status: ('A' for Active; 'I' for Inactive)
REMARK    1  A    between atoms: C_1  and  O_2
REMARK    2  A    between atoms: O_2  and  C_3
REMARK    3  A    between atoms: C_6  and  O_7
REMARK    4  A    between atoms: O_7  and  C_8
REMARK    5  A    between atoms: C_9  and  C_10
REMARK    6  A    between atoms: C_10  and  C_11
REMARK    7  A    between atoms: C_11  and  C_12
REMARK    8  A    between atoms: C_11  and  N_13
REMARK                            x       y       z     vdW  Elec       q    Type
REMARK                         _______ _______ _______ _____ _____    ______ ____
ROOT
ATOM      1  C   UNL     1       4.958   4.566  16.360  0.00  0.00    +0.000 A 
ATOM      2  C   UNL     1       5.273   5.907  16.551  0.00  0.00    +0.000 A 
ATOM      3  C   UNL     1       4.442   6.723  17.314  0.00  0.00    +0.000 A 
ATOM      4  C   UNL     1       3.294   6.208  17.932  0.00  0.00    +0.000 A 
ATOM      5  C   UNL     1       2.933   4.866  17.721  0.00  0.00    +0.000 A 
ATOM      6  C   UNL     1       3.785   4.058  16.928  0.00  0.00    +0.000 A 
ENDROOT
BRANCH   1   8
ATOM      7  C   UNL     1       6.548   4.563  14.590  0.00  0.00    +0.000 C 
ATOM      8  O   UNL     1       5.874   3.867  15.628  0.00  0.00    +0.000 OA
ENDBRANCH   1   8
BRANCH   4   9
ATOM      9  O   UNL     1       2.487   6.971  18.730  0.00  0.00    +0.000 OA
ATOM     10  C   UNL     1       2.209   8.291  18.273  0.00  0.00    +0.000 C 
ENDBRANCH   4   9
BRANCH   5  11
ATOM     11  C   UNL     1       1.765   4.154  18.392  0.00  0.00    +0.000 C 
BRANCH  11  12
ATOM     12  C   UNL     1       1.992   2.928  19.303  0.00  0.00    +0.000 C 
ATOM     13  C   UNL     1       1.471   3.140  20.724  0.00  0.00    +0.000 C 
BRANCH  12  14
ATOM     14  N   UNL     1       1.305   1.756  18.721  0.00  0.00    +0.000 NA
ATOM     15  H   UNL     1       1.717   0.901  19.090  0.00  0.00    +0.000 HD
ATOM     16  H   UNL     1       1.474   1.738  17.714  0.00  0.00    +0.000 HD
ENDBRANCH  12  14
ENDBRANCH  11  12
ENDBRANCH   5  11
TORSDOF 5
ENDMDL
MODEL 8
REMARK VINA RESULT:      -5.4      2.745      3.932
REMARK  Name = 
REMARK  8 active torsions:
REMARK  status: ('A' for Active; 'I' for Inactive)
REMARK    1  A    between atoms: C_1  and  O_2
REMARK    2  A    between atoms: O_2  and  C_3
REMARK    3  A    between atoms: C_6  and  O_7
REMARK    4  A    between atoms: O_7  and  C_8
REMARK    5  A    between atoms: C_9  and  C_10
REMARK    6  A    between atoms: C_10  and  C_11
REMARK    7  A    between atoms: C_11  and  C_12
REMARK    8  A    between atoms: C_11  and  N_13
REMARK                            x       y       z     vdW  Elec       q    Type
REMARK                         _______ _______ _______ _____ _____    ______ ____
ROOT
ATOM      1  C   UNL     1       3.027   6.779  18.033  0.00  0.00    +0.000 A 
ATOM      2  C   UNL     1       4.159   7.233  17.365  0.00  0.00    +0.000 A 
ATOM      3  C   UNL     1       5.008   6.332  16.727  0.00  0.00    +0.000 A 
ATOM      4  C   UNL     1       4.725   4.959  16.714  0.00  0.00    +0.000 A 
ATOM      5  C   UNL     1       3.609   4.472  17.416  0.00  0.00    +0.000 A 
ATOM      6  C   UNL     1       2.768   5.405  18.071  0.00  0.00    +0.000 A 
ENDROOT
BRANCH   1   8
ATOM      7  C   UNL     1       2.069   8.946  17.813  0.00  0.00    +0.000 C 
ATOM      8  O   UNL     1       2.258   7.765  18.579  0.00  0.00    +0.000 OA
ENDBRANCH   1   8
BRANCH   4   9
ATOM      9  O   UNL     1       5.511   4.056  16.053  0.00  0.00    +0.000 OA
ATOM     10  C   UNL     1       6.761   4.537  15.569  0.00  0.00    +0.000 C 
ENDBRANCH   4   9
BRANCH   5  11
ATOM     11  C   UNL     1       3.137   3.023  17.421  0.00  0.00    +0.000 C 
BRANCH  11  12
ATOM     12  C   UNL     1       3.214   2.161  18.700  0.00  0.00    +0.000 C 
ATOM     13  C   UNL     1       1.842   1.891  19.317  0.00  0.00    +0.000 C 
BRANCH  12  14
ATOM     14  N   UNL     1       3.846   0.866  18.375  0.00  0.00    +0.000 NA
ATOM     15  H   UNL     1       4.749   0.800  18.842  0.00  0.00    +0.000 HD
ATOM     16  H   UNL     1       4.045   0.834  17.374  0.00  0.00    +0.000 HD
ENDBRANCH  12  14
ENDBRANCH  11  12
ENDBRANCH   5  11
TORSDOF 5
ENDMDL
MODEL 9
REMARK VINA RESULT:      -5.4      2.156      2.728
REMARK  Name = 
REMARK  8 active torsions:
REMARK  status: ('A' for Active; 'I' for Inactive)
REMARK    1  A    between atoms: C_1  and  O_2
REMARK    2  A    between atoms: O_2  and  C_3
REMARK    3  A    between atoms: C_6  and  O_7
REMARK    4  A    between atoms: O_7  and  C_8
REMARK    5  A    between atoms: C_9  and  C_10
REMARK    6  A    between atoms: C_10  and  C_11
REMARK    7  A    between atoms: C_11  and  C_12
REMARK    8  A    between atoms: C_11  and  N_13
REMARK                            x       y       z     vdW  Elec       q    Type
REMARK                         _______ _______ _______ _____ _____    ______ ____
ROOT
ATOM      1  C   UNL     1       5.970   5.520  16.255  0.00  0.00    +0.000 A 
ATOM      2  C   UNL     1       5.337   6.739  16.467  0.00  0.00    +0.000 A 
ATOM      3  C   UNL     1       4.196   6.812  17.261  0.00  0.00    +0.000 A 
ATOM      4  C   UNL     1       3.681   5.669  17.890  0.00  0.00    +0.000 A 
ATOM      5  C   UNL     1       4.279   4.418  17.659  0.00  0.00    +0.000 A 
ATOM      6  C   UNL     1       5.430   4.367  16.835  0.00  0.00    +0.000 A 
ENDROOT
BRANCH   1   8
ATOM      7  C   UNL     1       7.134   4.820  14.302  0.00  0.00    +0.000 C 
ATOM      8  O   UNL     1       7.100   5.592  15.493  0.00  0.00    +0.000 OA
ENDBRANCH   1   8
BRANCH   4   9
ATOM      9  O   UNL     1       2.593   5.717  18.718  0.00  0.00    +0.000 OA
ATOM     10  C   UNL     1       2.437   6.901  19.493  0.00  0.00    +0.000 C 
ENDBRANCH   4   9
BRANCH   5  11
ATOM     11  C   UNL     1       3.878   3.113  18.336  0.00  0.00    +0.000 C 
BRANCH  11  12
ATOM     12  C   UNL     1       4.223   2.843  19.817  0.00  0.00    +0.000 C 
ATOM     13  C   UNL     1       2.983   2.718  20.701  0.00  0.00    +0.000 C 
BRANCH  12  14
ATOM     14  N   UNL     1       4.998   1.589  19.914  0.00  0.00    +0.000 NA
ATOM     15  H   UNL     1       5.494   1.425  19.039  0.00  0.00    +0.000 HD
ATOM     16  H   UNL     1       4.352   0.806  20.023  0.00  0.00    +0.000 HD
ENDBRANCH  12  14
ENDBRANCH  11  12
ENDBRANCH   5  11
TORSDOF 5
ENDMDL
