MODEL 1
REMARK VINA RESULT:      -6.5      0.000      0.000
REMARK  Name = 
REMARK  12 active torsions:
REMARK  status: ('A' for Active; 'I' for Inactive)
REMARK    1  A    between atoms: C_1  and  N_2
REMARK    2  A    between atoms: C_4  and  S_5
REMARK    3  A    between atoms: S_5  and  N_6
REMARK    4  A    between atoms: N_11  and  C_12
REMARK    5  A    between atoms: C_12  and  C_14
REMARK    6  A    between atoms: C_14  and  N_15
REMARK    7  A    between atoms: N_15  and  C_16
REMARK    8  A    between atoms: N_15  and  C_20
REMARK    9  A    between atoms: C_16  and  C_17
REMARK   10  A    between atoms: C_17  and  O_19
REMARK   11  A    between atoms: C_20  and  C_21
REMARK   12  A    between atoms: C_21  and  O_23
REMARK                            x       y       z     vdW  Elec       q    Type
REMARK                         _______ _______ _______ _____ _____    ______ ____
ROOT
ATOM      1  C   UNL     1       3.836   4.805  17.973  0.00  0.00    +0.000 C 
ATOM      2  O   UNL     1       3.323   3.704  17.772  0.00  0.00    +0.000 OA
ENDROOT
BRANCH   1   9
ATOM      3  C   UNL     1       1.780   4.459  20.466  0.00  0.00    +0.000 C 
ATOM      4  N   UNL     1       2.007   5.868  20.198  0.00  0.00    +0.000 N 
ATOM      5  N   UNL     1       1.469   6.759  21.118  0.00  0.00    +0.000 NA
ATOM      6  C   UNL     1       1.469   7.954  20.587  0.00  0.00    +0.000 A 
ATOM      7  S   UNL     1       1.997   8.084  18.918  0.00  0.00    +0.000 S 
ATOM      8  C   UNL     1       2.482   6.382  19.003  0.00  0.00    +0.000 A 
ATOM      9  N   UNL     1       3.172   5.997  17.996  0.00  0.00    +0.000 NA
BRANCH   6  10
ATOM     10  S   UNL     1       0.972   9.388  21.523  0.00  0.00    +0.000 S 
ATOM     11  O   UNL     1       1.834   9.438  22.674  0.00  0.00    +0.000 OA
ATOM     12  O   UNL     1       0.869  10.477  20.572  0.00  0.00    +0.000 OA
BRANCH  10  13
ATOM     13  N   UNL     1      -0.592   9.129  22.116  0.00  0.00    +0.000 NA
ATOM     14  H   UNL     1      -0.618   8.464  22.885  0.00  0.00    +0.000 HD
ATOM     15  H   UNL     1      -1.285   8.991  21.383  0.00  0.00    +0.000 HD
ENDBRANCH  10  13
ENDBRANCH   6  10
ENDBRANCH   1   9
BRANCH   1  16
ATOM     16  C   UNL     1       5.303   4.899  18.438  0.00  0.00    +0.000 C 
BRANCH  16  17
ATOM     17  N   UNL     1       6.270   4.547  17.361  0.00  0.00    +0.000 NA
BRANCH  17  18
ATOM     18  C   UNL     1       6.054   5.305  16.107  0.00  0.00    +0.000 C 
BRANCH  18  19
ATOM     19  C   UNL     1       6.817   4.735  14.918  0.00  0.00    +0.000 C 
ATOM     20  O   UNL     1       7.767   5.313  14.400  0.00  0.00    +0.000 OA
BRANCH  19  21
ATOM     21  O   UNL     1       6.345   3.552  14.470  0.00  0.00    +0.000 OA
ATOM     22  H   UNL     1       6.003   3.585  13.549  0.00  0.00    +0.000 HD
ENDBRANCH  19  21
ENDBRANCH  18  19
ENDBRANCH  17  18
BRANCH  17  23
ATOM     23  C   UNL     1       7.653   4.649  17.893  0.00  0.00    +0.000 C 
BRANCH  23  24
ATOM     24  C   UNL     1       7.858   5.831  18.840  0.00  0.00    +0.000 C 
ATOM     25  O   UNL     1       7.956   6.996  18.482  0.00  0.00    +0.000 OA
BRANCH  24  26
ATOM     26  O   UNL     1       7.890   5.473  20.150  0.00  0.00    +0.000 OA
ATOM     27  H   UNL     1       8.530   5.986  20.696  0.00  0.00    +0.000 HD
ENDBRANCH  24  26
ENDBRANCH  23  24
ENDBRANCH  17  23
ENDBRANCH  16  17
ENDBRANCH   1  16
TORSDOF 11
ENDMDL
MODEL 2
REMARK VINA RESULT:      -6.3      2.782      4.021
REMARK  Name = 
REMARK  12 active torsions:
REMARK  status: ('A' for Active; 'I' for Inactive)
REMARK    1  A    between atoms: C_1  and  N_2
REMARK    2  A    between atoms: C_4  and  S_5
REMARK    3  A    between atoms: S_5  and  N_6
REMARK    4  A    between atoms: N_11  and  C_12
REMARK    5  A    between atoms: C_12  and  C_14
REMARK    6  A    between atoms: C_14  and  N_15
REMARK    7  A    between atoms: N_15  and  C_16
REMARK    8  A    between atoms: N_15  and  C_20
REMARK    9  A    between atoms: C_16  and  C_17
REMARK   10  A    between atoms: C_17  and  O_19
REMARK   11  A    between atoms: C_20  and  C_21
REMARK   12  A    between atoms: C_21  and  O_23
REMARK                            x       y       z     vdW  Elec       q    Type
REMARK                         _______ _______ _______ _____ _____    ______ ____
ROOT
ATOM      1  C   UNL     1       4.637   5.224  18.721  0.00  0.00    +0.000 C 
ATOM      2  O   UNL     1       5.474   5.352  19.614  0.00  0.00    +0.000 OA
ENDROOT
BRANCH   1   9
ATOM      3  C   UNL     1       2.101   5.480  20.738  0.00  0.00    +0.000 C 
ATOM      4  N   UNL     1       2.284   6.721  20.006  0.00  0.00    +0.000 N 
ATOM      5  N   UNL     1       1.492   7.790  20.407  0.00  0.00    +0.000 NA
ATOM      6  C   UNL     1       1.529   8.707  19.476  0.00  0.00    +0.000 A 
ATOM      7  S   UNL     1       2.410   8.316  18.009  0.00  0.00    +0.000 S 
ATOM      8  C   UNL     1       2.980   6.844  18.815  0.00  0.00    +0.000 A 
ATOM      9  N   UNL     1       3.904   6.235  18.172  0.00  0.00    +0.000 NA
BRANCH   6  10
ATOM     10  S   UNL     1       0.737  10.288  19.696  0.00  0.00    +0.000 S 
ATOM     11  O   UNL     1       1.456  11.220  18.868  0.00  0.00    +0.000 OA
ATOM     12  O   UNL     1      -0.686  10.051  19.558  0.00  0.00    +0.000 OA
BRANCH  10  13
ATOM     13  N   UNL     1       0.978  10.794  21.294  0.00  0.00    +0.000 NA
ATOM     14  H   UNL     1       1.917  11.150  21.458  0.00  0.00    +0.000 HD
ATOM     15  H   UNL     1       0.623  10.136  21.984  0.00  0.00    +0.000 HD
ENDBRANCH  10  13
ENDBRANCH   6  10
ENDBRANCH   1   9
BRANCH   1  16
ATOM     16  C   UNL     1       4.496   3.878  17.983  0.00  0.00    +0.000 C 
BRANCH  16  17
ATOM     17  N   UNL     1       3.634   2.910  18.715  0.00  0.00    +0.000 NA
BRANCH  17  18
ATOM     18  C   UNL     1       2.553   2.337  17.881  0.00  0.00    +0.000 C 
BRANCH  18  19
ATOM     19  C   UNL     1       1.231   3.083  18.009  0.00  0.00    +0.000 C 
ATOM     20  O   UNL     1       1.020   4.160  17.460  0.00  0.00    +0.000 OA
BRANCH  19  21
ATOM     21  O   UNL     1       0.319   2.469  18.793  0.00  0.00    +0.000 OA
ATOM     22  H   UNL     1      -0.596   2.502  18.439  0.00  0.00    +0.000 HD
ENDBRANCH  19  21
ENDBRANCH  18  19
ENDBRANCH  17  18
BRANCH  17  23
ATOM     23  C   UNL     1       4.491   1.888  19.369  0.00  0.00    +0.000 C 
BRANCH  23  24
ATOM     24  C   UNL     1       4.405   1.904  20.895  0.00  0.00    +0.000 C 
ATOM     25  O   UNL     1       3.450   2.329  21.530  0.00  0.00    +0.000 OA
BRANCH  24  26
ATOM     26  O   UNL     1       5.492   1.362  21.503  0.00  0.00    +0.000 OA
ATOM     27  H   UNL     1       5.738   1.792  22.354  0.00  0.00    +0.000 HD
ENDBRANCH  24  26
ENDBRANCH  23  24
ENDBRANCH  17  23
ENDBRANCH  16  17
ENDBRANCH   1  16
TORSDOF 11
ENDMDL
MODEL 3
REMARK VINA RESULT:      -6.3      2.907      4.389
REMARK  Name = 
REMARK  12 active torsions:
REMARK  status: ('A' for Active; 'I' for Inactive)
REMARK    1  A    between atoms: C_1  and  N_2
REMARK    2  A    between atoms: C_4  and  S_5
REMARK    3  A    between atoms: S_5  and  N_6
REMARK    4  A    between atoms: N_11  and  C_12
REMARK    5  A    between atoms: C_12  and  C_14
REMARK    6  A    between atoms: C_14  and  N_15
REMARK    7  A    between atoms: N_15  and  C_16
REMARK    8  A    between atoms: N_15  and  C_20
REMARK    9  A    between atoms: C_16  and  C_17
REMARK   10  A    between atoms: C_17  and  O_19
REMARK   11  A    between atoms: C_20  and  C_21
REMARK   12  A    between atoms: C_21  and  O_23
REMARK                            x       y       z     vdW  Elec       q    Type
REMARK                         _______ _______ _______ _____ _____    ______ ____
ROOT
ATOM      1  C   UNL     1       4.187   6.009  18.194  0.00  0.00    +0.000 C 
ATOM      2  O   UNL     1       5.189   6.146  18.897  0.00  0.00    +0.000 OA
ENDROOT
BRANCH   1   9
ATOM      3  C   UNL     1       1.966   6.309  20.548  0.00  0.00    +0.000 C 
ATOM      4  N   UNL     1       2.054   7.541  19.784  0.00  0.00    +0.000 N 
ATOM      5  N   UNL     1       1.336   8.621  20.282  0.00  0.00    +0.000 NA
ATOM      6  C   UNL     1       1.248   9.529  19.345  0.00  0.00    +0.000 A 
ATOM      7  S   UNL     1       1.907   9.115  17.772  0.00  0.00    +0.000 S 
ATOM      8  C   UNL     1       2.574   7.646  18.504  0.00  0.00    +0.000 A 
ATOM      9  N   UNL     1       3.392   7.022  17.743  0.00  0.00    +0.000 NA
BRANCH   6  10
ATOM     10  S   UNL     1       0.508  11.120  19.658  0.00  0.00    +0.000 S 
ATOM     11  O   UNL     1      -0.399  10.936  20.760  0.00  0.00    +0.000 OA
ATOM     12  O   UNL     1       1.598  12.075  19.690  0.00  0.00    +0.000 OA
BRANCH  10  13
ATOM     13  N   UNL     1      -0.448  11.541  18.326  0.00  0.00    +0.000 NA
ATOM     14  H   UNL     1      -0.104  12.364  17.837  0.00  0.00    +0.000 HD
ATOM     15  H   UNL     1      -1.446  11.522  18.521  0.00  0.00    +0.000 HD
ENDBRANCH  10  13
ENDBRANCH   6  10
ENDBRANCH   1   9
BRANCH   1  16
ATOM     16  C   UNL     1       3.861   4.635  17.575  0.00  0.00    +0.000 C 
BRANCH  16  17
ATOM     17  N   UNL     1       2.997   3.800  18.454  0.00  0.00    +0.000 NA
BRANCH  17  18
ATOM     18  C   UNL     1       1.591   3.724  17.995  0.00  0.00    +0.000 C 
BRANCH  18  19
ATOM     19  C   UNL     1       0.723   2.816  18.857  0.00  0.00    +0.000 C 
ATOM     20  O   UNL     1       0.167   1.815  18.416  0.00  0.00    +0.000 OA
BRANCH  19  21
ATOM     21  O   UNL     1       0.601   3.217  20.140  0.00  0.00    +0.000 OA
ATOM     22  H   UNL     1      -0.330   3.330  20.434  0.00  0.00    +0.000 HD
ENDBRANCH  19  21
ENDBRANCH  18  19
ENDBRANCH  17  18
BRANCH  17  23
ATOM     23  C   UNL     1       3.636   2.474  18.650  0.00  0.00    +0.000 C 
BRANCH  23  24
ATOM     24  C   UNL     1       4.076   2.215  20.091  0.00  0.00    +0.000 C 
ATOM     25  O   UNL     1       3.397   2.463  21.077  0.00  0.00    +0.000 OA
BRANCH  24  26
ATOM     26  O   UNL     1       5.304   1.640  20.185  0.00  0.00    +0.000 OA
ATOM     27  H   UNL     1       5.540   1.060  19.425  0.00  0.00    +0.000 HD
ENDBRANCH  24  26
ENDBRANCH  23  24
ENDBRANCH  17  23
ENDBRANCH  16  17
ENDBRANCH   1  16
TORSDOF 11
ENDMDL
MODEL 4
REMARK VINA RESULT:      -6.3      0.968      1.374
REMARK  Name = 
REMARK  12 active torsions:
REMARK  status: ('A' for Active; 'I' for Inactive)
REMARK    1  A    between atoms: C_1  and  N_2
REMARK    2  A    between atoms: C_4  and  S_5
REMARK    3  A    between atoms: S_5  and  N_6
REMARK    4  A    between atoms: N_11  and  C_12
REMARK    5  A    between atoms: C_12  and  C_14
REMARK    6  A    between atoms: C_14  and  N_15
REMARK    7  A    between atoms: N_15  and  C_16
REMARK    8  A    between atoms: N_15  and  C_20
REMARK    9  A    between atoms: C_16  and  C_17
REMARK   10  A    between atoms: C_17  and  O_19
REMARK   11  A    between atoms: C_20  and  C_21
REMARK   12  A    between atoms: C_21  and  O_23
REMARK                            x       y       z     vdW  Elec       q    Type
REMARK                         _______ _______ _______ _____ _____    ______ ____
ROOT
ATOM      1  C   UNL     1       3.889   5.063  18.132  0.00  0.00    +0.000 C 
ATOM      2  O   UNL     1       3.391   3.953  18.319  0.00  0.00    +0.000 OA
ENDROOT
BRANCH   1   9
ATOM      3  C   UNL     1       1.839   5.445  20.626  0.00  0.00    +0.000 C 
ATOM      4  N   UNL     1       2.038   6.712  19.945  0.00  0.00    +0.000 N 
ATOM      5  N   UNL     1       1.482   7.828  20.556  0.00  0.00    +0.000 NA
ATOM      6  C   UNL     1       1.458   8.808  19.690  0.00  0.00    +0.000 A 
ATOM      7  S   UNL     1       1.984   8.438  18.057  0.00  0.00    +0.000 S 
ATOM      8  C   UNL     1       2.503   6.851  18.647  0.00  0.00    +0.000 A 
ATOM      9  N   UNL     1       3.200   6.193  17.798  0.00  0.00    +0.000 NA
BRANCH   6  10
ATOM     10  S   UNL     1       0.932  10.447  20.154  0.00  0.00    +0.000 S 
ATOM     11  O   UNL     1       1.164  10.561  21.570  0.00  0.00    +0.000 OA
ATOM     12  O   UNL     1       1.523  11.350  19.187  0.00  0.00    +0.000 OA
BRANCH  10  13
ATOM     13  N   UNL     1      -0.743  10.556  19.939  0.00  0.00    +0.000 NA
ATOM     14  H   UNL     1      -1.235   9.715  20.232  0.00  0.00    +0.000 HD
ATOM     15  H   UNL     1      -1.012  10.938  19.035  0.00  0.00    +0.000 HD
ENDBRANCH  10  13
ENDBRANCH   6  10
ENDBRANCH   1   9
BRANCH   1  16
ATOM     16  C   UNL     1       5.370   5.313  18.476  0.00  0.00    +0.000 C 
BRANCH  16  17
ATOM     17  N   UNL     1       6.295   4.828  17.415  0.00  0.00    +0.000 NA
BRANCH  17  18
ATOM     18  C   UNL     1       6.154   5.558  16.134  0.00  0.00    +0.000 C 
BRANCH  18  19
ATOM     19  C   UNL     1       6.832   4.858  14.962  0.00  0.00    +0.000 C 
ATOM     20  O   UNL     1       6.427   3.796  14.499  0.00  0.00    +0.000 OA
BRANCH  19  21
ATOM     21  O   UNL     1       7.926   5.493  14.492  0.00  0.00    +0.000 OA
ATOM     22  H   UNL     1       7.727   6.335  14.026  0.00  0.00    +0.000 HD
ENDBRANCH  19  21
ENDBRANCH  18  19
ENDBRANCH  17  18
BRANCH  17  23
ATOM     23  C   UNL     1       7.682   4.811  17.945  0.00  0.00    +0.000 C 
BRANCH  23  24
ATOM     24  C   UNL     1       7.881   5.710  19.165  0.00  0.00    +0.000 C 
ATOM     25  O   UNL     1       7.671   5.367  20.320  0.00  0.00    +0.000 OA
BRANCH  24  26
ATOM     26  O   UNL     1       8.356   6.945  18.854  0.00  0.00    +0.000 OA
ATOM     27  H   UNL     1       7.843   7.413  18.155  0.00  0.00    +0.000 HD
ENDBRANCH  24  26
ENDBRANCH  23  24
ENDBRANCH  17  23
ENDBRANCH  16  17
ENDBRANCH   1  16
TORSDOF 11
ENDMDL
MODEL 5
REMARK VINA RESULT:      -6.2      2.786      7.853
REMARK  Name = 
REMARK  12 active torsions:
REMARK  status: ('A' for Active; 'I' for Inactive)
REMARK    1  A    between atoms: C_1  and  N_2
REMARK    2  A    between atoms: C_4  and  S_5
REMARK    3  A    between atoms: S_5  and  N_6
REMARK    4  A    between atoms: N_11  and  C_12
REMARK    5  A    between atoms: C_12  and  C_14
REMARK    6  A    between atoms: C_14  and  N_15
REMARK    7  A    between atoms: N_15  and  C_16
REMARK    8  A    between atoms: N_15  and  C_20
REMARK    9  A    between atoms: C_16  and  C_17
REMARK   10  A    between atoms: C_17  and  O_19
REMARK   11  A    between atoms: C_20  and  C_21
REMARK   12  A    between atoms: C_21  and  O_23
REMARK                            x       y       z     vdW  Elec       q    Type
REMARK                         _______ _______ _______ _____ _____    ______ ____
ROOT
ATOM      1  C   UNL     1       2.145   6.495  20.281  0.00  0.00    +0.000 C 
ATOM      2  O   UNL     1       1.198   5.867  20.755  0.00  0.00    +0.000 OA
ENDROOT
BRANCH   1   9
ATOM      3  C   UNL     1       1.915   4.606  17.646  0.00  0.00    +0.000 C 
ATOM      4  N   UNL     1       3.293   5.017  17.846  0.00  0.00    +0.000 N 
ATOM      5  N   UNL     1       4.183   4.689  16.831  0.00  0.00    +0.000 NA
ATOM      6  C   UNL     1       5.401   4.825  17.286  0.00  0.00    +0.000 A 
ATOM      7  S   UNL     1       5.575   5.237  18.984  0.00  0.00    +0.000 S 
ATOM      8  C   UNL     1       3.820   5.471  19.045  0.00  0.00    +0.000 A 
ATOM      9  N   UNL     1       3.414   6.017  20.129  0.00  0.00    +0.000 NA
BRANCH   6  10
ATOM     10  S   UNL     1       6.819   4.618  16.226  0.00  0.00    +0.000 S 
ATOM     11  O   UNL     1       6.873   5.789  15.390  0.00  0.00    +0.000 OA
ATOM     12  O   UNL     1       7.914   4.218  17.086  0.00  0.00    +0.000 OA
BRANCH  10  13
ATOM     13  N   UNL     1       6.530   3.311  15.190  0.00  0.00    +0.000 NA
ATOM     14  H   UNL     1       6.693   2.411  15.634  0.00  0.00    +0.000 HD
ATOM     15  H   UNL     1       6.934   3.432  14.263  0.00  0.00    +0.000 HD
ENDBRANCH  10  13
ENDBRANCH   6  10
ENDBRANCH   1   9
BRANCH   1  16
ATOM     16  C   UNL     1       1.906   7.859  19.605  0.00  0.00    +0.000 C 
BRANCH  16  17
ATOM     17  N   UNL     1       1.001   8.739  20.394  0.00  0.00    +0.000 NA
BRANCH  17  18
ATOM     18  C   UNL     1       1.355   8.810  21.831  0.00  0.00    +0.000 C 
BRANCH  18  19
ATOM     19  C   UNL     1       0.175   9.165  22.727  0.00  0.00    +0.000 C 
ATOM     20  O   UNL     1       0.206  10.094  23.529  0.00  0.00    +0.000 OA
BRANCH  19  21
ATOM     21  O   UNL     1      -0.897   8.359  22.580  0.00  0.00    +0.000 OA
ATOM     22  H   UNL     1      -1.756   8.807  22.743  0.00  0.00    +0.000 HD
ENDBRANCH  19  21
ENDBRANCH  18  19
ENDBRANCH  17  18
BRANCH  17  23
ATOM     23  C   UNL     1       0.910  10.066  19.733  0.00  0.00    +0.000 C 
BRANCH  23  24
ATOM     24  C   UNL     1       0.612   9.984  18.236  0.00  0.00    +0.000 C 
ATOM     25  O   UNL     1      -0.488   9.737  17.762  0.00  0.00    +0.000 OA
BRANCH  24  26
ATOM     26  O   UNL     1       1.693  10.248  17.456  0.00  0.00    +0.000 OA
ATOM     27  H   UNL     1       2.499   9.734  17.692  0.00  0.00    +0.000 HD
ENDBRANCH  24  26
ENDBRANCH  23  24
ENDBRANCH  17  23
ENDBRANCH  16  17
ENDBRANCH   1  16
TORSDOF 11
ENDMDL
MODEL 6
REMARK VINA RESULT:      -6.2      2.089      3.261
REMARK  Name = 
REMARK  12 active torsions:
REMARK  status: ('A' for Active; 'I' for Inactive)
REMARK    1  A    between atoms: C_1  and  N_2
REMARK    2  A    between atoms: C_4  and  S_5
REMARK    3  A    between atoms: S_5  and  N_6
REMARK    4  A    between atoms: N_11  and  C_12
REMARK    5  A    between atoms: C_12  and  C_14
REMARK    6  A    between atoms: C_14  and  N_15
REMARK    7  A    between atoms: N_15  and  C_16
REMARK    8  A    between atoms: N_15  and  C_20
REMARK    9  A    between atoms: C_16  and  C_17
REMARK   10  A    between atoms: C_17  and  O_19
REMARK   11  A    between atoms: C_20  and  C_21
REMARK   12  A    between atoms: C_21  and  O_23
REMARK                            x       y       z     vdW  Elec       q    Type
REMARK                         _______ _______ _______ _____ _____    ______ ____
ROOT
ATOM      1  C   UNL     1       4.481   6.526  17.522  0.00  0.00    +0.000 C 
ATOM      2  O   UNL     1       5.538   6.602  18.148  0.00  0.00    +0.000 OA
ENDROOT
BRANCH   1   9
ATOM      3  C   UNL     1       2.301   6.015  19.878  0.00  0.00    +0.000 C 
ATOM      4  N   UNL     1       2.262   7.403  19.454  0.00  0.00    +0.000 N 
ATOM      5  N   UNL     1       1.465   8.252  20.213  0.00  0.00    +0.000 NA
ATOM      6  C   UNL     1       1.275   9.356  19.539  0.00  0.00    +0.000 A 
ATOM      7  S   UNL     1       1.929   9.417  17.911  0.00  0.00    +0.000 S 
ATOM      8  C   UNL     1       2.739   7.877  18.243  0.00  0.00    +0.000 A 
ATOM      9  N   UNL     1       3.589   7.544  17.346  0.00  0.00    +0.000 NA
BRANCH   6  10
ATOM     10  S   UNL     1       0.407  10.741  20.250  0.00  0.00    +0.000 S 
ATOM     11  O   UNL     1       0.809  11.901  19.498  0.00  0.00    +0.000 OA
ATOM     12  O   UNL     1      -0.977  10.330  20.378  0.00  0.00    +0.000 OA
BRANCH  10  13
ATOM     13  N   UNL     1       0.976  10.981  21.826  0.00  0.00    +0.000 NA
ATOM     14  H   UNL     1       1.956  11.251  21.856  0.00  0.00    +0.000 HD
ATOM     15  H   UNL     1       0.693  10.250  22.475  0.00  0.00    +0.000 HD
ENDBRANCH  10  13
ENDBRANCH   6  10
ENDBRANCH   1   9
BRANCH   1  16
ATOM     16  C   UNL     1       4.172   5.273  16.679  0.00  0.00    +0.000 C 
BRANCH  16  17
ATOM     17  N   UNL     1       5.057   4.124  17.015  0.00  0.00    +0.000 NA
BRANCH  17  18
ATOM     18  C   UNL     1       4.331   2.973  17.598  0.00  0.00    +0.000 C 
BRANCH  18  19
ATOM     19  C   UNL     1       4.455   2.886  19.114  0.00  0.00    +0.000 C 
ATOM     20  O   UNL     1       3.837   2.064  19.785  0.00  0.00    +0.000 OA
BRANCH  19  21
ATOM     21  O   UNL     1       5.284   3.802  19.658  0.00  0.00    +0.000 OA
ATOM     22  H   UNL     1       5.421   4.596  19.096  0.00  0.00    +0.000 HD
ENDBRANCH  19  21
ENDBRANCH  18  19
ENDBRANCH  17  18
BRANCH  17  23
ATOM     23  C   UNL     1       5.877   3.774  15.827  0.00  0.00    +0.000 C 
BRANCH  23  24
ATOM     24  C   UNL     1       7.148   4.613  15.693  0.00  0.00    +0.000 C 
ATOM     25  O   UNL     1       7.510   5.160  14.661  0.00  0.00    +0.000 OA
BRANCH  24  26
ATOM     26  O   UNL     1       7.842   4.731  16.855  0.00  0.00    +0.000 OA
ATOM     27  H   UNL     1       8.487   4.004  17.018  0.00  0.00    +0.000 HD
ENDBRANCH  24  26
ENDBRANCH  23  24
ENDBRANCH  17  23
ENDBRANCH  16  17
ENDBRANCH   1  16
TORSDOF 11
ENDMDL
MODEL 7
REMARK VINA RESULT:      -6.2      1.090      1.249
REMARK  Name = 
REMARK  12 active torsions:
REMARK  status: ('A' for Active; 'I' for Inactive)
REMARK    1  A    between atoms: C_1  and  N_2
REMARK    2  A    between atoms: C_4  and  S_5
REMARK    3  A    between atoms: S_5  and  N_6
REMARK    4  A    between atoms: N_11  and  C_12
REMARK    5  A    between atoms: C_12  and  C_14
REMARK    6  A    between atoms: C_14  and  N_15
REMARK    7  A    between atoms: N_15  and  C_16
REMARK    8  A    between atoms: N_15  and  C_20
REMARK    9  A    between atoms: C_16  and  C_17
REMARK   10  A    between atoms: C_17  and  O_19
REMARK   11  A    between atoms: C_20  and  C_21
REMARK   12  A    between atoms: C_21  and  O_23
REMARK                            x       y       z     vdW  Elec       q    Type
REMARK                         _______ _______ _______ _____ _____    ______ ____
ROOT
ATOM      1  C   UNL     1       4.046   4.497  18.588  0.00  0.00    +0.000 C 
ATOM      2  O   UNL     1       4.520   3.983  19.601  0.00  0.00    +0.000 OA
ENDROOT
BRANCH   1   9
ATOM      3  C   UNL     1       1.449   4.168  20.515  0.00  0.00    +0.000 C 
ATOM      4  N   UNL     1       1.803   5.571  20.389  0.00  0.00    +0.000 N 
ATOM      5  N   UNL     1       1.110   6.452  21.209  0.00  0.00    +0.000 NA
ATOM      6  C   UNL     1       1.294   7.668  20.763  0.00  0.00    +0.000 A 
ATOM      7  S   UNL     1       2.204   7.838  19.272  0.00  0.00    +0.000 S 
ATOM      8  C   UNL     1       2.570   6.108  19.367  0.00  0.00    +0.000 A 
ATOM      9  N   UNL     1       3.456   5.726  18.526  0.00  0.00    +0.000 NA
BRANCH   6  10
ATOM     10  S   UNL     1       0.666   9.086  21.641  0.00  0.00    +0.000 S 
ATOM     11  O   UNL     1       1.686   9.465  22.583  0.00  0.00    +0.000 OA
ATOM     12  O   UNL     1       0.153   9.992  20.633  0.00  0.00    +0.000 OA
BRANCH  10  13
ATOM     13  N   UNL     1      -0.670   8.601  22.562  0.00  0.00    +0.000 NA
ATOM     14  H   UNL     1      -0.579   8.841  23.546  0.00  0.00    +0.000 HD
ATOM     15  H   UNL     1      -0.977   7.652  22.360  0.00  0.00    +0.000 HD
ENDBRANCH  10  13
ENDBRANCH   6  10
ENDBRANCH   1   9
BRANCH   1  16
ATOM     16  C   UNL     1       4.280   3.846  17.210  0.00  0.00    +0.000 C 
BRANCH  16  17
ATOM     17  N   UNL     1       5.536   4.312  16.561  0.00  0.00    +0.000 NA
BRANCH  17  18
ATOM     18  C   UNL     1       5.346   4.749  15.159  0.00  0.00    +0.000 C 
BRANCH  18  19
ATOM     19  C   UNL     1       6.569   4.512  14.282  0.00  0.00    +0.000 C 
ATOM     20  O   UNL     1       7.573   5.216  14.338  0.00  0.00    +0.000 OA
BRANCH  19  21
ATOM     21  O   UNL     1       6.446   3.478  13.423  0.00  0.00    +0.000 OA
ATOM     22  H   UNL     1       7.123   3.471  12.711  0.00  0.00    +0.000 HD
ENDBRANCH  19  21
ENDBRANCH  18  19
ENDBRANCH  17  18
BRANCH  17  23
ATOM     23  C   UNL     1       6.182   5.334  17.425  0.00  0.00    +0.000 C 
BRANCH  23  24
ATOM     24  C   UNL     1       7.504   4.870  18.035  0.00  0.00    +0.000 C 
ATOM     25  O   UNL     1       7.880   5.149  19.165  0.00  0.00    +0.000 OA
BRANCH  24  26
ATOM     26  O   UNL     1       8.231   4.074  17.208  0.00  0.00    +0.000 OA
ATOM     27  H   UNL     1       9.096   3.784  17.580  0.00  0.00    +0.000 HD
ENDBRANCH  24  26
ENDBRANCH  23  24
ENDBRANCH  17  23
ENDBRANCH  16  17
ENDBRANCH   1  16
TORSDOF 11
ENDMDL
MODEL 8
REMARK VINA RESULT:      -6.1      2.775      4.341
REMARK  Name = 
REMARK  12 active torsions:
REMARK  status: ('A' for Active; 'I' for Inactive)
REMARK    1  A    between atoms: C_1  and  N_2
REMARK    2  A    between atoms: C_4  and  S_5
REMARK    3  A    between atoms: S_5  and  N_6
REMARK    4  A    between atoms: N_11  and  C_12
REMARK    5  A    between atoms: C_12  and  C_14
REMARK    6  A    between atoms: C_14  and  N_15
REMARK    7  A    between atoms: N_15  and  C_16
REMARK    8  A    between atoms: N_15  and  C_20
REMARK    9  A    between atoms: C_16  and  C_17
REMARK   10  A    between atoms: C_17  and  O_19
REMARK   11  A    between atoms: C_20  and  C_21
REMARK   12  A    between atoms: C_21  and  O_23
REMARK                            x       y       z     vdW  Elec       q    Type
REMARK                         _______ _______ _______ _____ _____    ______ ____
ROOT
ATOM      1  C   UNL     1       4.142   5.958  18.005  0.00  0.00    +0.000 C 
ATOM      2  O   UNL     1       5.118   6.013  18.753  0.00  0.00    +0.000 OA
ENDROOT
BRANCH   1   9
ATOM      3  C   UNL     1       2.059   6.121  20.496  0.00  0.00    +0.000 C 
ATOM      4  N   UNL     1       2.125   7.402  19.815  0.00  0.00    +0.000 N 
ATOM      5  N   UNL     1       1.454   8.454  20.426  0.00  0.00    +0.000 NA
ATOM      6  C   UNL     1       1.329   9.426  19.561  0.00  0.00    +0.000 A 
ATOM      7  S   UNL     1       1.894   9.115  17.928  0.00  0.00    +0.000 S 
ATOM      8  C   UNL     1       2.575   7.590  18.519  0.00  0.00    +0.000 A 
ATOM      9  N   UNL     1       3.339   7.010  17.671  0.00  0.00    +0.000 NA
BRANCH   6  10
ATOM     10  S   UNL     1       0.634  11.000  20.024  0.00  0.00    +0.000 S 
ATOM     11  O   UNL     1       1.004  11.218  21.398  0.00  0.00    +0.000 OA
ATOM     12  O   UNL     1       0.981  11.925  18.963  0.00  0.00    +0.000 OA
BRANCH  10  13
ATOM     13  N   UNL     1      -1.054  10.871  20.004  0.00  0.00    +0.000 NA
ATOM     14  H   UNL     1      -1.389  10.181  19.337  0.00  0.00    +0.000 HD
ATOM     15  H   UNL     1      -1.529  11.771  19.994  0.00  0.00    +0.000 HD
ENDBRANCH  10  13
ENDBRANCH   6  10
ENDBRANCH   1   9
BRANCH   1  16
ATOM     16  C   UNL     1       3.863   4.677  17.194  0.00  0.00    +0.000 C 
BRANCH  16  17
ATOM     17  N   UNL     1       3.261   3.594  18.020  0.00  0.00    +0.000 NA
BRANCH  17  18
ATOM     18  C   UNL     1       3.888   3.456  19.355  0.00  0.00    +0.000 C 
BRANCH  18  19
ATOM     19  C   UNL     1       4.445   2.063  19.619  0.00  0.00    +0.000 C 
ATOM     20  O   UNL     1       5.112   1.792  20.614  0.00  0.00    +0.000 OA
BRANCH  19  21
ATOM     21  O   UNL     1       4.161   1.158  18.658  0.00  0.00    +0.000 OA
ATOM     22  H   UNL     1       3.326   1.342  18.175  0.00  0.00    +0.000 HD
ENDBRANCH  19  21
ENDBRANCH  18  19
ENDBRANCH  17  18
BRANCH  17  23
ATOM     23  C   UNL     1       1.788   3.775  18.066  0.00  0.00    +0.000 C 
BRANCH  23  24
ATOM     24  C   UNL     1       1.073   2.748  18.944  0.00  0.00    +0.000 C 
ATOM     25  O   UNL     1       0.455   3.020  19.964  0.00  0.00    +0.000 OA
BRANCH  24  26
ATOM     26  O   UNL     1       1.154   1.480  18.465  0.00  0.00    +0.000 OA
ATOM     27  H   UNL     1       1.326   1.421  17.496  0.00  0.00    +0.000 HD
ENDBRANCH  24  26
ENDBRANCH  23  24
ENDBRANCH  17  23
ENDBRANCH  16  17
ENDBRANCH   1  16
TORSDOF 11
ENDMDL
MODEL 9
REMARK VINA RESULT:      -6.1      1.419      3.111
REMARK  Name = 
REMARK  12 active torsions:
REMARK  status: ('A' for Active; 'I' for Inactive)
REMARK    1  A    between atoms: C_1  and  N_2
REMARK    2  A    between atoms: C_4  and  S_5
REMARK    3  A    between atoms: S_5  and  N_6
REMARK    4  A    between atoms: N_11  and  C_12
REMARK    5  A    between atoms: C_12  and  C_14
REMARK    6  A    between atoms: C_14  and  N_15
REMARK    7  A    between atoms: N_15  and  C_16
REMARK    8  A    between atoms: N_15  and  C_20
REMARK    9  A    between atoms: C_16  and  C_17
REMARK   10  A    between atoms: C_17  and  O_19
REMARK   11  A    between atoms: C_20  and  C_21
REMARK   12  A    between atoms: C_21  and  O_23
REMARK                            x       y       z     vdW  Elec       q    Type
REMARK                         _______ _______ _______ _____ _____    ______ ____
ROOT
ATOM      1  C   UNL     1       3.145   4.694  18.254  0.00  0.00    +0.000 C 
ATOM      2  O   UNL     1       2.351   4.455  17.344  0.00  0.00    +0.000 OA
ENDROOT
BRANCH   1   9
ATOM      3  C   UNL     1       3.221   7.854  17.497  0.00  0.00    +0.000 C 
ATOM      4  N   UNL     1       2.409   7.644  18.682  0.00  0.00    +0.000 N 
ATOM      5  N   UNL     1       1.709   8.750  19.148  0.00  0.00    +0.000 NA
ATOM      6  C   UNL     1       1.301   8.502  20.365  0.00  0.00    +0.000 A 
ATOM      7  S   UNL     1       1.819   6.987  21.084  0.00  0.00    +0.000 S 
ATOM      8  C   UNL     1       2.475   6.530  19.503  0.00  0.00    +0.000 A 
ATOM      9  N   UNL     1       2.836   5.304  19.435  0.00  0.00    +0.000 NA
BRANCH   6  10
ATOM     10  S   UNL     1       0.251   9.643  21.245  0.00  0.00    +0.000 S 
ATOM     11  O   UNL     1      -0.583   8.845  22.105  0.00  0.00    +0.000 OA
ATOM     12  O   UNL     1       1.120  10.690  21.745  0.00  0.00    +0.000 OA
BRANCH  10  13
ATOM     13  N   UNL     1      -0.789  10.384  20.133  0.00  0.00    +0.000 NA
ATOM     14  H   UNL     1      -0.521  11.341  19.919  0.00  0.00    +0.000 HD
ATOM     15  H   UNL     1      -1.774  10.230  20.336  0.00  0.00    +0.000 HD
ENDBRANCH  10  13
ENDBRANCH   6  10
ENDBRANCH   1   9
BRANCH   1  16
ATOM     16  C   UNL     1       4.571   4.110  18.207  0.00  0.00    +0.000 C 
BRANCH  16  17
ATOM     17  N   UNL     1       5.599   5.134  17.873  0.00  0.00    +0.000 NA
BRANCH  17  18
ATOM     18  C   UNL     1       6.970   4.744  18.275  0.00  0.00    +0.000 C 
BRANCH  18  19
ATOM     19  C   UNL     1       7.690   5.815  19.084  0.00  0.00    +0.000 C 
ATOM     20  O   UNL     1       8.068   6.875  18.594  0.00  0.00    +0.000 OA
BRANCH  19  21
ATOM     21  O   UNL     1       7.896   5.491  20.378  0.00  0.00    +0.000 OA
ATOM     22  H   UNL     1       7.109   5.624  20.951  0.00  0.00    +0.000 HD
ENDBRANCH  19  21
ENDBRANCH  18  19
ENDBRANCH  17  18
BRANCH  17  23
ATOM     23  C   UNL     1       5.476   5.501  16.439  0.00  0.00    +0.000 C 
BRANCH  23  24
ATOM     24  C   UNL     1       6.438   4.738  15.529  0.00  0.00    +0.000 C 
ATOM     25  O   UNL     1       6.247   3.603  15.115  0.00  0.00    +0.000 OA
BRANCH  24  26
ATOM     26  O   UNL     1       7.538   5.457  15.182  0.00  0.00    +0.000 OA
ATOM     27  H   UNL     1       8.294   5.370  15.808  0.00  0.00    +0.000 HD
ENDBRANCH  24  26
ENDBRANCH  23  24
ENDBRANCH  17  23
ENDBRANCH  16  17
ENDBRANCH   1  16
TORSDOF 11
ENDMDL
