MODEL 1
REMARK VINA RESULT:      -7.5      0.000      0.000
REMARK  Name = 
REMARK  5 active torsions:
REMARK  status: ('A' for Active; 'I' for Inactive)
REMARK    1  A    between atoms: C_2  and  C_3
REMARK    2  A    between atoms: C_20  and  O_21
REMARK    3  A    between atoms: O_21  and  C_22
REMARK    4  A    between atoms: C_22  and  C_23
REMARK    5  A    between atoms: C_23  and  N_24
REMARK                            x       y       z     vdW  Elec       q    Type
REMARK                         _______ _______ _______ _____ _____    ______ ____
ROOT
ATOM      1  C   UNL     1      -1.193  12.834  22.799  0.00  0.00    +0.000 A 
ATOM      2  C   UNL     1      -0.205  13.050  21.920  0.00  0.00    +0.000 A 
ATOM      3  N   UNL     1      -0.782  12.275  20.999  0.00  0.00    +0.000 N 
ATOM      4  C   UNL     1      -0.484  11.144  21.559  0.00  0.00    +0.000 A 
ATOM      5  C   UNL     1      -0.935  11.141  23.086  0.00  0.00    +0.000 A 
ATOM      6  C   UNL     1      -0.693   9.682  23.281  0.00  0.00    +0.000 A 
ATOM      7  C   UNL     1       0.065   8.601  22.510  0.00  0.00    +0.000 A 
ATOM      8  C   UNL     1       0.550   8.975  21.292  0.00  0.00    +0.000 A 
ATOM      9  C   UNL     1       1.387   8.379  20.093  0.00  0.00    +0.000 A 
ATOM     10  C   UNL     1       2.035   7.127  19.794  0.00  0.00    +0.000 A 
ATOM     11  C   UNL     1       2.768   6.901  18.593  0.00  0.00    +0.000 A 
ATOM     12  C   UNL     1       2.884   7.893  17.641  0.00  0.00    +0.000 A 
ATOM     13  C   UNL     1       2.256   9.120  17.866  0.00  0.00    +0.000 A 
ATOM     14  C   UNL     1       1.512   9.363  19.058  0.00  0.00    +0.000 A 
ATOM     15  N   UNL     1       0.834  10.533  19.427  0.00  0.00    +0.000 N 
ATOM     16  C   UNL     1       0.326  10.223  20.700  0.00  0.00    +0.000 A 
ATOM     17  C   UNL     1       0.823  11.714  18.540  0.00  0.00    +0.000 C 
ATOM     18  C   UNL     1       0.154  12.883  19.189  0.00  0.00    +0.000 C 
ATOM     19  C   UNL     1      -1.174  12.367  19.639  0.00  0.00    +0.000 C 
ENDROOT
BRANCH   1  21
ATOM     20  O   UNL     1      -0.750  14.891  24.168  0.00  0.00    +0.000 OA
ATOM     21  C   UNL     1      -1.454  14.315  23.300  0.00  0.00    +0.000 C 
ENDBRANCH   1  21
BRANCH  18  22
ATOM     22  O   UNL     1      -0.052  14.142  18.615  0.00  0.00    +0.000 OA
BRANCH  22  23
ATOM     23  C   UNL     1       1.060  15.008  18.994  0.00  0.00    +0.000 C 
BRANCH  23  24
ATOM     24  C   UNL     1       0.451  16.092  19.800  0.00  0.00    +0.000 C 
BRANCH  24  25
ATOM     25  N   UNL     1       0.353  17.270  18.953  0.00  0.00    +0.000 NA
ATOM     26  C   UNL     1       1.398  17.206  17.946  0.00  0.00    +0.000 C 
ATOM     27  C   UNL     1       1.369  18.421  17.040  0.00  0.00    +0.000 C 
ATOM     28  C   UNL     1      -0.009  18.595  16.413  0.00  0.00    +0.000 C 
ATOM     29  C   UNL     1      -1.091  18.631  17.488  0.00  0.00    +0.000 C 
ATOM     30  C   UNL     1      -0.992  17.412  18.398  0.00  0.00    +0.000 C 
ENDBRANCH  24  25
ENDBRANCH  23  24
ENDBRANCH  22  23
ENDBRANCH  18  22
TORSDOF 5
ENDMDL
MODEL 2
REMARK VINA RESULT:      -7.4      3.907      8.266
REMARK  Name = 
REMARK  5 active torsions:
REMARK  status: ('A' for Active; 'I' for Inactive)
REMARK    1  A    between atoms: C_2  and  C_3
REMARK    2  A    between atoms: C_20  and  O_21
REMARK    3  A    between atoms: O_21  and  C_22
REMARK    4  A    between atoms: C_22  and  C_23
REMARK    5  A    between atoms: C_23  and  N_24
REMARK                            x       y       z     vdW  Elec       q    Type
REMARK                         _______ _______ _______ _____ _____    ______ ____
ROOT
ATOM      1  C   UNL     1      -3.474  10.631  16.095  0.00  0.00    +0.000 A 
ATOM      2  C   UNL     1      -2.332  11.195  16.513  0.00  0.00    +0.000 A 
ATOM      3  N   UNL     1      -2.384  10.558  17.686  0.00  0.00    +0.000 N 
ATOM      4  C   UNL     1      -3.323  11.289  18.202  0.00  0.00    +0.000 A 
ATOM      5  C   UNL     1      -4.571  11.374  17.218  0.00  0.00    +0.000 A 
ATOM      6  C   UNL     1      -5.471  12.016  18.218  0.00  0.00    +0.000 A 
ATOM      7  C   UNL     1      -5.266  12.723  19.559  0.00  0.00    +0.000 A 
ATOM      8  C   UNL     1      -4.000  12.678  20.061  0.00  0.00    +0.000 A 
ATOM      9  C   UNL     1      -3.177  13.200  21.305  0.00  0.00    +0.000 A 
ATOM     10  C   UNL     1      -3.446  14.001  22.472  0.00  0.00    +0.000 A 
ATOM     11  C   UNL     1      -2.445  14.335  23.430  0.00  0.00    +0.000 A 
ATOM     12  C   UNL     1      -1.149  13.889  23.280  0.00  0.00    +0.000 A 
ATOM     13  C   UNL     1      -0.835  13.087  22.180  0.00  0.00    +0.000 A 
ATOM     14  C   UNL     1      -1.824  12.736  21.214  0.00  0.00    +0.000 A 
ATOM     15  N   UNL     1      -1.663  11.950  20.064  0.00  0.00    +0.000 N 
ATOM     16  C   UNL     1      -2.940  11.976  19.477  0.00  0.00    +0.000 A 
ATOM     17  C   UNL     1      -0.352  11.362  19.724  0.00  0.00    +0.000 C 
ATOM     18  C   UNL     1      -0.383  10.676  18.397  0.00  0.00    +0.000 C 
ATOM     19  C   UNL     1      -1.541   9.736  18.476  0.00  0.00    +0.000 C 
ENDROOT
BRANCH   1  21
ATOM     20  O   UNL     1      -3.859  10.101  13.672  0.00  0.00    +0.000 OA
ATOM     21  C   UNL     1      -3.053  10.193  14.631  0.00  0.00    +0.000 C 
ENDBRANCH   1  21
BRANCH  18  22
ATOM     22  O   UNL     1       0.676   9.993  17.793  0.00  0.00    +0.000 OA
BRANCH  22  23
ATOM     23  C   UNL     1       1.399   9.257  18.827  0.00  0.00    +0.000 C 
BRANCH  23  24
ATOM     24  C   UNL     1       2.460   8.515  18.106  0.00  0.00    +0.000 C 
BRANCH  24  25
ATOM     25  N   UNL     1       2.341   7.112  18.469  0.00  0.00    +0.000 NA
ATOM     26  C   UNL     1       3.467   6.390  17.904  0.00  0.00    +0.000 C 
ATOM     27  C   UNL     1       3.394   4.910  18.225  0.00  0.00    +0.000 C 
ATOM     28  C   UNL     1       3.277   4.687  19.728  0.00  0.00    +0.000 C 
ATOM     29  C   UNL     1       2.106   5.478  20.301  0.00  0.00    +0.000 C 
ATOM     30  C   UNL     1       2.203   6.950  19.915  0.00  0.00    +0.000 C 
ENDBRANCH  24  25
ENDBRANCH  23  24
ENDBRANCH  22  23
ENDBRANCH  18  22
TORSDOF 5
ENDMDL
MODEL 3
REMARK VINA RESULT:      -6.9      5.319     10.171
REMARK  Name = 
REMARK  5 active torsions:
REMARK  status: ('A' for Active; 'I' for Inactive)
REMARK    1  A    between atoms: C_2  and  C_3
REMARK    2  A    between atoms: C_20  and  O_21
REMARK    3  A    between atoms: O_21  and  C_22
REMARK    4  A    between atoms: C_22  and  C_23
REMARK    5  A    between atoms: C_23  and  N_24
REMARK                            x       y       z     vdW  Elec       q    Type
REMARK                         _______ _______ _______ _____ _____    ______ ____
ROOT
ATOM      1  C   UNL     1       3.289   3.290  18.774  0.00  0.00    +0.000 A 
ATOM      2  C   UNL     1       3.110   4.152  17.763  0.00  0.00    +0.000 A 
ATOM      3  N   UNL     1       3.808   5.106  18.383  0.00  0.00    +0.000 N 
ATOM      4  C   UNL     1       2.892   5.414  19.248  0.00  0.00    +0.000 A 
ATOM      5  C   UNL     1       2.369   4.110  19.997  0.00  0.00    +0.000 A 
ATOM      6  C   UNL     1       1.592   4.863  21.023  0.00  0.00    +0.000 A 
ATOM      7  C   UNL     1       1.096   6.303  21.160  0.00  0.00    +0.000 A 
ATOM      8  C   UNL     1       1.541   7.173  20.209  0.00  0.00    +0.000 A 
ATOM      9  C   UNL     1       1.387   8.690  19.797  0.00  0.00    +0.000 A 
ATOM     10  C   UNL     1       0.651   9.832  20.276  0.00  0.00    +0.000 A 
ATOM     11  C   UNL     1       0.701  11.108  19.643  0.00  0.00    +0.000 A 
ATOM     12  C   UNL     1       1.479  11.309  18.522  0.00  0.00    +0.000 A 
ATOM     13  C   UNL     1       2.235  10.243  18.026  0.00  0.00    +0.000 A 
ATOM     14  C   UNL     1       2.204   8.961  18.650  0.00  0.00    +0.000 A 
ATOM     15  N   UNL     1       2.897   7.803  18.271  0.00  0.00    +0.000 N 
ATOM     16  C   UNL     1       2.459   6.847  19.204  0.00  0.00    +0.000 A 
ATOM     17  C   UNL     1       3.798   7.806  17.101  0.00  0.00    +0.000 C 
ATOM     18  C   UNL     1       4.325   6.439  16.808  0.00  0.00    +0.000 C 
ATOM     19  C   UNL     1       4.903   5.963  18.101  0.00  0.00    +0.000 C 
ENDROOT
BRANCH   1  21
ATOM     20  O   UNL     1       3.932   0.878  18.503  0.00  0.00    +0.000 OA
ATOM     21  C   UNL     1       3.694   1.988  17.964  0.00  0.00    +0.000 C 
ENDBRANCH   1  21
BRANCH  18  22
ATOM     22  O   UNL     1       5.222   6.098  15.792  0.00  0.00    +0.000 OA
BRANCH  22  23
ATOM     23  C   UNL     1       6.578   6.177  16.329  0.00  0.00    +0.000 C 
BRANCH  23  24
ATOM     24  C   UNL     1       7.311   5.054  15.700  0.00  0.00    +0.000 C 
BRANCH  24  25
ATOM     25  N   UNL     1       6.838   4.929  14.331  0.00  0.00    +0.000 NA
ATOM     26  C   UNL     1       7.939   5.221  13.430  0.00  0.00    +0.000 C 
ATOM     27  C   UNL     1       7.507   5.132  11.979  0.00  0.00    +0.000 C 
ATOM     28  C   UNL     1       6.879   3.776  11.684  0.00  0.00    +0.000 C 
ATOM     29  C   UNL     1       5.745   3.481  12.660  0.00  0.00    +0.000 C 
ATOM     30  C   UNL     1       6.219   3.625  14.102  0.00  0.00    +0.000 C 
ENDBRANCH  24  25
ENDBRANCH  23  24
ENDBRANCH  22  23
ENDBRANCH  18  22
TORSDOF 5
ENDMDL
MODEL 4
REMARK VINA RESULT:      -6.9      2.357      2.968
REMARK  Name = 
REMARK  5 active torsions:
REMARK  status: ('A' for Active; 'I' for Inactive)
REMARK    1  A    between atoms: C_2  and  C_3
REMARK    2  A    between atoms: C_20  and  O_21
REMARK    3  A    between atoms: O_21  and  C_22
REMARK    4  A    between atoms: C_22  and  C_23
REMARK    5  A    between atoms: C_23  and  N_24
REMARK                            x       y       z     vdW  Elec       q    Type
REMARK                         _______ _______ _______ _____ _____    ______ ____
ROOT
ATOM      1  C   UNL     1      -0.700  13.213  22.333  0.00  0.00    +0.000 A 
ATOM      2  C   UNL     1       0.403  13.134  21.576  0.00  0.00    +0.000 A 
ATOM      3  N   UNL     1      -0.210  12.367  20.670  0.00  0.00    +0.000 N 
ATOM      4  C   UNL     1      -0.204  11.280  21.376  0.00  0.00    +0.000 A 
ATOM      5  C   UNL     1      -0.813  11.551  22.823  0.00  0.00    +0.000 A 
ATOM      6  C   UNL     1      -0.885  10.109  23.195  0.00  0.00    +0.000 A 
ATOM      7  C   UNL     1      -0.274   8.820  22.646  0.00  0.00    +0.000 A 
ATOM      8  C   UNL     1       0.406   8.943  21.471  0.00  0.00    +0.000 A 
ATOM      9  C   UNL     1       1.238   8.059  20.461  0.00  0.00    +0.000 A 
ATOM     10  C   UNL     1       1.657   6.683  20.379  0.00  0.00    +0.000 A 
ATOM     11  C   UNL     1       2.459   6.178  19.315  0.00  0.00    +0.000 A 
ATOM     12  C   UNL     1       2.873   7.005  18.291  0.00  0.00    +0.000 A 
ATOM     13  C   UNL     1       2.477   8.345  18.304  0.00  0.00    +0.000 A 
ATOM     14  C   UNL     1       1.668   8.866  19.357  0.00  0.00    +0.000 A 
ATOM     15  N   UNL     1       1.197  10.178  19.511  0.00  0.00    +0.000 N 
ATOM     16  C   UNL     1       0.499  10.127  20.731  0.00  0.00    +0.000 A 
ATOM     17  C   UNL     1       1.516  11.220  18.515  0.00  0.00    +0.000 C 
ATOM     18  C   UNL     1       1.023  12.563  18.947  0.00  0.00    +0.000 C 
ATOM     19  C   UNL     1      -0.422  12.359  19.267  0.00  0.00    +0.000 C 
ENDROOT
BRANCH   1  21
ATOM     20  O   UNL     1      -0.144  15.288  23.631  0.00  0.00    +0.000 OA
ATOM     21  C   UNL     1      -0.718  14.768  22.642  0.00  0.00    +0.000 C 
ENDBRANCH   1  21
BRANCH  18  22
ATOM     22  O   UNL     1       1.132  13.757  18.226  0.00  0.00    +0.000 OA
BRANCH  22  23
ATOM     23  C   UNL     1       2.548  14.093  18.105  0.00  0.00    +0.000 C 
BRANCH  23  24
ATOM     24  C   UNL     1       2.959  14.538  19.457  0.00  0.00    +0.000 C 
BRANCH  24  25
ATOM     25  N   UNL     1       4.393  14.774  19.427  0.00  0.00    +0.000 NA
ATOM     26  C   UNL     1       4.857  14.644  18.057  0.00  0.00    +0.000 C 
ATOM     27  C   UNL     1       6.355  14.855  17.957  0.00  0.00    +0.000 C 
ATOM     28  C   UNL     1       6.755  16.194  18.564  0.00  0.00    +0.000 C 
ATOM     29  C   UNL     1       6.232  16.317  19.991  0.00  0.00    +0.000 C 
ATOM     30  C   UNL     1       4.731  16.054  20.045  0.00  0.00    +0.000 C 
ENDBRANCH  24  25
ENDBRANCH  23  24
ENDBRANCH  22  23
ENDBRANCH  18  22
TORSDOF 5
ENDMDL
MODEL 5
REMARK VINA RESULT:      -6.8      3.141      6.127
REMARK  Name = 
REMARK  5 active torsions:
REMARK  status: ('A' for Active; 'I' for Inactive)
REMARK    1  A    between atoms: C_2  and  C_3
REMARK    2  A    between atoms: C_20  and  O_21
REMARK    3  A    between atoms: O_21  and  C_22
REMARK    4  A    between atoms: C_22  and  C_23
REMARK    5  A    between atoms: C_23  and  N_24
REMARK                            x       y       z     vdW  Elec       q    Type
REMARK                         _______ _______ _______ _____ _____    ______ ____
ROOT
ATOM      1  C   UNL     1       0.130  10.137  18.248  0.00  0.00    +0.000 A 
ATOM      2  C   UNL     1       0.087  11.391  18.718  0.00  0.00    +0.000 A 
ATOM      3  N   UNL     1      -0.754  11.051  19.698  0.00  0.00    +0.000 N 
ATOM      4  C   UNL     1      -1.808  10.941  18.950  0.00  0.00    +0.000 A 
ATOM      5  C   UNL     1      -1.513   9.992  17.705  0.00  0.00    +0.000 A 
ATOM      6  C   UNL     1      -2.939   9.905  17.279  0.00  0.00    +0.000 A 
ATOM      7  C   UNL     1      -4.211  10.692  17.596  0.00  0.00    +0.000 A 
ATOM      8  C   UNL     1      -4.097  11.626  18.582  0.00  0.00    +0.000 A 
ATOM      9  C   UNL     1      -4.971  12.717  19.316  0.00  0.00    +0.000 A 
ATOM     10  C   UNL     1      -6.322  13.210  19.220  0.00  0.00    +0.000 A 
ATOM     11  C   UNL     1      -6.821  14.267  20.035  0.00  0.00    +0.000 A 
ATOM     12  C   UNL     1      -6.016  14.872  20.977  0.00  0.00    +0.000 A 
ATOM     13  C   UNL     1      -4.704  14.418  21.133  0.00  0.00    +0.000 A 
ATOM     14  C   UNL     1      -4.187  13.357  20.332  0.00  0.00    +0.000 A 
ATOM     15  N   UNL     1      -2.902  12.799  20.367  0.00  0.00    +0.000 N 
ATOM     16  C   UNL     1      -2.942  11.834  19.345  0.00  0.00    +0.000 A 
ATOM     17  C   UNL     1      -1.886  13.294  21.317  0.00  0.00    +0.000 C 
ATOM     18  C   UNL     1      -0.558  12.647  21.090  0.00  0.00    +0.000 C 
ATOM     19  C   UNL     1      -0.836  11.179  21.108  0.00  0.00    +0.000 C 
ENDROOT
BRANCH   1  21
ATOM     20  O   UNL     1       2.209   9.075  17.323  0.00  0.00    +0.000 OA
ATOM     21  C   UNL     1       1.693   9.969  18.040  0.00  0.00    +0.000 C 
ENDBRANCH   1  21
BRANCH  18  22
ATOM     22  O   UNL     1       0.607  12.866  21.831  0.00  0.00    +0.000 OA
BRANCH  22  23
ATOM     23  C   UNL     1       1.262  14.066  21.315  0.00  0.00    +0.000 C 
BRANCH  23  24
ATOM     24  C   UNL     1       2.366  13.569  20.461  0.00  0.00    +0.000 C 
BRANCH  24  25
ATOM     25  N   UNL     1       2.898  14.703  19.724  0.00  0.00    +0.000 NA
ATOM     26  C   UNL     1       3.573  14.210  18.536  0.00  0.00    +0.000 C 
ATOM     27  C   UNL     1       4.175  15.344  17.729  0.00  0.00    +0.000 C 
ATOM     28  C   UNL     1       3.117  16.385  17.386  0.00  0.00    +0.000 C 
ATOM     29  C   UNL     1       2.404  16.866  18.646  0.00  0.00    +0.000 C 
ATOM     30  C   UNL     1       1.855  15.687  19.443  0.00  0.00    +0.000 C 
ENDBRANCH  24  25
ENDBRANCH  23  24
ENDBRANCH  22  23
ENDBRANCH  18  22
TORSDOF 5
ENDMDL
MODEL 6
REMARK VINA RESULT:      -6.7      3.293      8.009
REMARK  Name = 
REMARK  5 active torsions:
REMARK  status: ('A' for Active; 'I' for Inactive)
REMARK    1  A    between atoms: C_2  and  C_3
REMARK    2  A    between atoms: C_20  and  O_21
REMARK    3  A    between atoms: O_21  and  C_22
REMARK    4  A    between atoms: C_22  and  C_23
REMARK    5  A    between atoms: C_23  and  N_24
REMARK                            x       y       z     vdW  Elec       q    Type
REMARK                         _______ _______ _______ _____ _____    ______ ____
ROOT
ATOM      1  C   UNL     1      -2.185  10.811  18.649  0.00  0.00    +0.000 A 
ATOM      2  C   UNL     1      -1.152  10.884  17.798  0.00  0.00    +0.000 A 
ATOM      3  N   UNL     1      -0.267  10.955  18.796  0.00  0.00    +0.000 N 
ATOM      4  C   UNL     1      -0.517  12.186  19.120  0.00  0.00    +0.000 A 
ATOM      5  C   UNL     1      -2.079  12.399  19.343  0.00  0.00    +0.000 A 
ATOM      6  C   UNL     1      -1.933  13.762  19.930  0.00  0.00    +0.000 A 
ATOM      7  C   UNL     1      -0.814  14.802  19.978  0.00  0.00    +0.000 A 
ATOM      8  C   UNL     1       0.392  14.395  19.491  0.00  0.00    +0.000 A 
ATOM      9  C   UNL     1       1.847  14.959  19.247  0.00  0.00    +0.000 A 
ATOM     10  C   UNL     1       2.522  16.218  19.433  0.00  0.00    +0.000 A 
ATOM     11  C   UNL     1       3.884  16.428  19.071  0.00  0.00    +0.000 A 
ATOM     12  C   UNL     1       4.633  15.409  18.521  0.00  0.00    +0.000 A 
ATOM     13  C   UNL     1       4.037  14.158  18.339  0.00  0.00    +0.000 A 
ATOM     14  C   UNL     1       2.678  13.926  18.702  0.00  0.00    +0.000 A 
ATOM     15  N   UNL     1       1.945  12.738  18.578  0.00  0.00    +0.000 N 
ATOM     16  C   UNL     1       0.668  13.098  19.044  0.00  0.00    +0.000 A 
ATOM     17  C   UNL     1       2.564  11.518  18.022  0.00  0.00    +0.000 C 
ATOM     18  C   UNL     1       1.567  10.416  17.864  0.00  0.00    +0.000 C 
ATOM     19  C   UNL     1       0.917  10.289  19.203  0.00  0.00    +0.000 C 
ENDROOT
BRANCH   1  21
ATOM     20  O   UNL     1      -3.248   9.536  16.765  0.00  0.00    +0.000 OA
ATOM     21  C   UNL     1      -3.003   9.620  17.995  0.00  0.00    +0.000 C 
ENDBRANCH   1  21
BRANCH  18  22
ATOM     22  O   UNL     1       1.828   9.125  17.396  0.00  0.00    +0.000 OA
BRANCH  22  23
ATOM     23  C   UNL     1       2.238   8.299  18.528  0.00  0.00    +0.000 C 
BRANCH  23  24
ATOM     24  C   UNL     1       3.085   7.233  17.943  0.00  0.00    +0.000 C 
BRANCH  24  25
ATOM     25  N   UNL     1       2.824   6.008  18.681  0.00  0.00    +0.000 NA
ATOM     26  C   UNL     1       2.208   6.352  19.951  0.00  0.00    +0.000 C 
ATOM     27  C   UNL     1       1.930   5.117  20.786  0.00  0.00    +0.000 C 
ATOM     28  C   UNL     1       1.089   4.115  20.004  0.00  0.00    +0.000 C 
ATOM     29  C   UNL     1       1.741   3.791  18.664  0.00  0.00    +0.000 C 
ATOM     30  C   UNL     1       2.040   5.067  17.884  0.00  0.00    +0.000 C 
ENDBRANCH  24  25
ENDBRANCH  23  24
ENDBRANCH  22  23
ENDBRANCH  18  22
TORSDOF 5
ENDMDL
MODEL 7
REMARK VINA RESULT:      -6.7      1.756      2.623
REMARK  Name = 
REMARK  5 active torsions:
REMARK  status: ('A' for Active; 'I' for Inactive)
REMARK    1  A    between atoms: C_2  and  C_3
REMARK    2  A    between atoms: C_20  and  O_21
REMARK    3  A    between atoms: O_21  and  C_22
REMARK    4  A    between atoms: C_22  and  C_23
REMARK    5  A    between atoms: C_23  and  N_24
REMARK                            x       y       z     vdW  Elec       q    Type
REMARK                         _______ _______ _______ _____ _____    ______ ____
ROOT
ATOM      1  C   UNL     1      -1.367  13.230  22.839  0.00  0.00    +0.000 A 
ATOM      2  C   UNL     1      -0.369  13.448  21.972  0.00  0.00    +0.000 A 
ATOM      3  N   UNL     1      -0.945  12.689  21.036  0.00  0.00    +0.000 N 
ATOM      4  C   UNL     1      -0.663  11.548  21.585  0.00  0.00    +0.000 A 
ATOM      5  C   UNL     1      -1.128  11.531  23.108  0.00  0.00    +0.000 A 
ATOM      6  C   UNL     1      -0.901  10.069  23.288  0.00  0.00    +0.000 A 
ATOM      7  C   UNL     1      -0.147   8.989  22.511  0.00  0.00    +0.000 A 
ATOM      8  C   UNL     1       0.352   9.373  21.302  0.00  0.00    +0.000 A 
ATOM      9  C   UNL     1       1.194   8.783  20.103  0.00  0.00    +0.000 A 
ATOM     10  C   UNL     1       1.833   7.529  19.794  0.00  0.00    +0.000 A 
ATOM     11  C   UNL     1       2.574   7.310  18.597  0.00  0.00    +0.000 A 
ATOM     12  C   UNL     1       2.709   8.311  17.658  0.00  0.00    +0.000 A 
ATOM     13  C   UNL     1       2.090   9.542  17.893  0.00  0.00    +0.000 A 
ATOM     14  C   UNL     1       1.338   9.778  19.081  0.00  0.00    +0.000 A 
ATOM     15  N   UNL     1       0.669  10.951  19.457  0.00  0.00    +0.000 N 
ATOM     16  C   UNL     1       0.146  10.630  20.723  0.00  0.00    +0.000 A 
ATOM     17  C   UNL     1       0.676  12.142  18.585  0.00  0.00    +0.000 C 
ATOM     18  C   UNL     1       0.013  13.310  19.241  0.00  0.00    +0.000 C 
ATOM     19  C   UNL     1      -1.323  12.801  19.673  0.00  0.00    +0.000 C 
ENDROOT
BRANCH   1  21
ATOM     20  O   UNL     1      -2.119  15.618  22.648  0.00  0.00    +0.000 OA
ATOM     21  C   UNL     1      -1.618  14.708  23.355  0.00  0.00    +0.000 C 
ENDBRANCH   1  21
BRANCH  18  22
ATOM     22  O   UNL     1      -0.176  14.577  18.681  0.00  0.00    +0.000 OA
BRANCH  22  23
ATOM     23  C   UNL     1       0.724  15.514  19.349  0.00  0.00    +0.000 C 
BRANCH  23  24
ATOM     24  C   UNL     1       1.873  15.671  18.428  0.00  0.00    +0.000 C 
BRANCH  24  25
ATOM     25  N   UNL     1       3.058  15.906  19.237  0.00  0.00    +0.000 NA
ATOM     26  C   UNL     1       3.451  14.653  19.859  0.00  0.00    +0.000 C 
ATOM     27  C   UNL     1       4.672  14.831  20.741  0.00  0.00    +0.000 C 
ATOM     28  C   UNL     1       5.819  15.456  19.957  0.00  0.00    +0.000 C 
ATOM     29  C   UNL     1       5.374  16.754  19.290  0.00  0.00    +0.000 C 
ATOM     30  C   UNL     1       4.120  16.531  18.451  0.00  0.00    +0.000 C 
ENDBRANCH  24  25
ENDBRANCH  23  24
ENDBRANCH  22  23
ENDBRANCH  18  22
TORSDOF 5
ENDMDL
MODEL 8
REMARK VINA RESULT:      -6.6      3.001      5.917
REMARK  Name = 
REMARK  5 active torsions:
REMARK  status: ('A' for Active; 'I' for Inactive)
REMARK    1  A    between atoms: C_2  and  C_3
REMARK    2  A    between atoms: C_20  and  O_21
REMARK    3  A    between atoms: O_21  and  C_22
REMARK    4  A    between atoms: C_22  and  C_23
REMARK    5  A    between atoms: C_23  and  N_24
REMARK                            x       y       z     vdW  Elec       q    Type
REMARK                         _______ _______ _______ _____ _____    ______ ____
ROOT
ATOM      1  C   UNL     1       0.092  10.227  18.191  0.00  0.00    +0.000 A 
ATOM      2  C   UNL     1       0.003  11.481  18.654  0.00  0.00    +0.000 A 
ATOM      3  N   UNL     1      -0.807  11.112  19.650  0.00  0.00    +0.000 N 
ATOM      4  C   UNL     1      -1.867  10.954  18.920  0.00  0.00    +0.000 A 
ATOM      5  C   UNL     1      -1.553  10.010  17.677  0.00  0.00    +0.000 A 
ATOM      6  C   UNL     1      -2.981   9.859  17.275  0.00  0.00    +0.000 A 
ATOM      7  C   UNL     1      -4.280  10.595  17.608  0.00  0.00    +0.000 A 
ATOM      8  C   UNL     1      -4.188  11.539  18.587  0.00  0.00    +0.000 A 
ATOM      9  C   UNL     1      -5.096  12.597  19.329  0.00  0.00    +0.000 A 
ATOM     10  C   UNL     1      -6.467  13.033  19.252  0.00  0.00    +0.000 A 
ATOM     11  C   UNL     1      -6.998  14.073  20.069  0.00  0.00    +0.000 A 
ATOM     12  C   UNL     1      -6.203  14.717  20.994  0.00  0.00    +0.000 A 
ATOM     13  C   UNL     1      -4.870  14.320  21.131  0.00  0.00    +0.000 A 
ATOM     14  C   UNL     1      -4.323  13.276  20.328  0.00  0.00    +0.000 A 
ATOM     15  N   UNL     1      -3.015  12.773  20.345  0.00  0.00    +0.000 N 
ATOM     16  C   UNL     1      -3.031  11.801  19.329  0.00  0.00    +0.000 A 
ATOM     17  C   UNL     1      -2.005  13.317  21.274  0.00  0.00    +0.000 C 
ATOM     18  C   UNL     1      -0.655  12.725  21.029  0.00  0.00    +0.000 C 
ATOM     19  C   UNL     1      -0.871  11.247  21.061  0.00  0.00    +0.000 C 
ENDROOT
BRANCH   1  21
ATOM     20  O   UNL     1       2.223   9.116  17.466  0.00  0.00    +0.000 OA
ATOM     21  C   UNL     1       1.656  10.124  17.958  0.00  0.00    +0.000 C 
ENDBRANCH   1  21
BRANCH  18  22
ATOM     22  O   UNL     1       0.512  12.998  21.749  0.00  0.00    +0.000 OA
BRANCH  22  23
ATOM     23  C   UNL     1       0.847  14.407  21.566  0.00  0.00    +0.000 C 
BRANCH  23  24
ATOM     24  C   UNL     1       1.403  14.499  20.195  0.00  0.00    +0.000 C 
BRANCH  24  25
ATOM     25  N   UNL     1       1.024  15.792  19.651  0.00  0.00    +0.000 NA
ATOM     26  C   UNL     1       1.955  16.142  18.592  0.00  0.00    +0.000 C 
ATOM     27  C   UNL     1       1.630  17.496  17.993  0.00  0.00    +0.000 C 
ATOM     28  C   UNL     1       0.185  17.544  17.513  0.00  0.00    +0.000 C 
ATOM     29  C   UNL     1      -0.770  17.146  18.633  0.00  0.00    +0.000 C 
ATOM     30  C   UNL     1      -0.376  15.799  19.230  0.00  0.00    +0.000 C 
ENDBRANCH  24  25
ENDBRANCH  23  24
ENDBRANCH  22  23
ENDBRANCH  18  22
TORSDOF 5
ENDMDL
MODEL 9
REMARK VINA RESULT:      -6.6      3.549      8.050
REMARK  Name = 
REMARK  5 active torsions:
REMARK  status: ('A' for Active; 'I' for Inactive)
REMARK    1  A    between atoms: C_2  and  C_3
REMARK    2  A    between atoms: C_20  and  O_21
REMARK    3  A    between atoms: O_21  and  C_22
REMARK    4  A    between atoms: C_22  and  C_23
REMARK    5  A    between atoms: C_23  and  N_24
REMARK                            x       y       z     vdW  Elec       q    Type
REMARK                         _______ _______ _______ _____ _____    ______ ____
ROOT
ATOM      1  C   UNL     1      -3.083  10.545  17.125  0.00  0.00    +0.000 A 
ATOM      2  C   UNL     1      -1.979  11.291  17.271  0.00  0.00    +0.000 A 
ATOM      3  N   UNL     1      -1.809  10.888  18.533  0.00  0.00    +0.000 N 
ATOM      4  C   UNL     1      -2.763  11.605  19.041  0.00  0.00    +0.000 A 
ATOM      5  C   UNL     1      -4.122  11.374  18.243  0.00  0.00    +0.000 A 
ATOM      6  C   UNL     1      -4.968  12.101  19.233  0.00  0.00    +0.000 A 
ATOM      7  C   UNL     1      -4.693  13.067  20.385  0.00  0.00    +0.000 A 
ATOM      8  C   UNL     1      -3.380  13.248  20.703  0.00  0.00    +0.000 A 
ATOM      9  C   UNL     1      -2.486  14.078  21.707  0.00  0.00    +0.000 A 
ATOM     10  C   UNL     1      -2.710  15.056  22.741  0.00  0.00    +0.000 A 
ATOM     11  C   UNL     1      -1.651  15.666  23.474  0.00  0.00    +0.000 A 
ATOM     12  C   UNL     1      -0.337  15.334  23.222  0.00  0.00    +0.000 A 
ATOM     13  C   UNL     1      -0.059  14.372  22.246  0.00  0.00    +0.000 A 
ATOM     14  C   UNL     1      -1.105  13.745  21.508  0.00  0.00    +0.000 A 
ATOM     15  N   UNL     1      -0.987  12.774  20.503  0.00  0.00    +0.000 N 
ATOM     16  C   UNL     1      -2.318  12.558  20.107  0.00  0.00    +0.000 A 
ATOM     17  C   UNL     1       0.337  12.268  20.089  0.00  0.00    +0.000 C 
ATOM     18  C   UNL     1       0.232  11.342  18.921  0.00  0.00    +0.000 C 
ATOM     19  C   UNL     1      -0.780  10.321  19.328  0.00  0.00    +0.000 C 
ENDROOT
BRANCH   1  21
ATOM     20  O   UNL     1      -2.931  10.479  14.620  0.00  0.00    +0.000 OA
ATOM     21  C   UNL     1      -2.789   9.881  15.716  0.00  0.00    +0.000 C 
ENDBRANCH   1  21
BRANCH  18  22
ATOM     22  O   UNL     1       1.289  10.667  18.303  0.00  0.00    +0.000 OA
BRANCH  22  23
ATOM     23  C   UNL     1       1.359   9.317  18.856  0.00  0.00    +0.000 C 
BRANCH  23  24
ATOM     24  C   UNL     1       1.928   8.482  17.772  0.00  0.00    +0.000 C 
BRANCH  24  25
ATOM     25  N   UNL     1       2.945   7.627  18.361  0.00  0.00    +0.000 NA
ATOM     26  C   UNL     1       2.287   6.569  19.107  0.00  0.00    +0.000 C 
ATOM     27  C   UNL     1       3.293   5.649  19.771  0.00  0.00    +0.000 C 
ATOM     28  C   UNL     1       4.274   5.092  18.747  0.00  0.00    +0.000 C 
ATOM     29  C   UNL     1       4.931   6.220  17.959  0.00  0.00    +0.000 C 
ATOM     30  C   UNL     1       3.879   7.140  17.348  0.00  0.00    +0.000 C 
ENDBRANCH  24  25
ENDBRANCH  23  24
ENDBRANCH  22  23
ENDBRANCH  18  22
TORSDOF 5
ENDMDL
