MODEL 1
REMARK VINA RESULT:      -8.2      0.000      0.000
REMARK  Name = 
REMARK  11 active torsions:
REMARK  status: ('A' for Active; 'I' for Inactive)
REMARK    1  A    between atoms: C_1  and  C_2
REMARK    2  A    between atoms: C_2  and  C_3
REMARK    3  A    between atoms: C_3  and  O_4
REMARK    4  A    between atoms: C_3  and  C_5
REMARK    5  A    between atoms: C_3  and  C_30
REMARK    6  A    between atoms: N_7  and  C_8
REMARK    7  A    between atoms: C_8  and  C_9
REMARK    8  A    between atoms: C_13  and  C_14
REMARK    9  A    between atoms: C_20  and  C_21
REMARK   10  A    between atoms: C_21  and  O_23
REMARK   11  A    between atoms: O_23  and  C_24
REMARK                            x       y       z     vdW  Elec       q    Type
REMARK                         _______ _______ _______ _____ _____    ______ ____
ROOT
ATOM      1  C   UNL     1       2.032   6.865  19.982  0.00  0.00    +0.000 A 
ATOM      2  C   UNL     1       1.447   7.415  21.113  0.00  0.00    +0.000 A 
ATOM      3  C   UNL     1       0.490   8.391  20.942  0.00  0.00    +0.000 A 
ATOM      4  C   UNL     1       0.802   9.401  20.004  0.00  0.00    +0.000 A 
ATOM      5  C   UNL     1       0.374  10.781  19.918  0.00  0.00    +0.000 A 
ATOM      6  C   UNL     1       1.207  11.467  19.044  0.00  0.00    +0.000 A 
ATOM      7  S   UNL     1       1.979  10.387  17.958  0.00  0.00    +0.000 S 
ATOM      8  C   UNL     1       1.637   9.015  18.949  0.00  0.00    +0.000 A 
ATOM      9  C   UNL     1       2.039   7.659  18.812  0.00  0.00    +0.000 A 
ENDROOT
BRANCH   5  10
ATOM     10  C   UNL     1      -0.616  11.468  20.764  0.00  0.00    +0.000 A 
ATOM     11  C   UNL     1      -1.815  11.967  20.237  0.00  0.00    +0.000 A 
ATOM     12  C   UNL     1      -2.724  12.652  21.050  0.00  0.00    +0.000 A 
ATOM     13  C   UNL     1      -2.479  12.788  22.411  0.00  0.00    +0.000 A 
ATOM     14  C   UNL     1      -1.297  12.289  22.953  0.00  0.00    +0.000 A 
ATOM     15  C   UNL     1      -0.358  11.665  22.129  0.00  0.00    +0.000 A 
ENDBRANCH   5  10
BRANCH   6  16
ATOM     16  C   UNL     1       1.433  12.928  19.014  0.00  0.00    +0.000 C 
ATOM     17  O   UNL     1       0.647  13.736  18.480  0.00  0.00    +0.000 OA
BRANCH  16  18
ATOM     18  O   UNL     1       2.609  13.340  19.603  0.00  0.00    +0.000 OA
ATOM     19  C   UNL     1       3.397  14.127  18.743  0.00  0.00    +0.000 C 
ENDBRANCH  16  18
ENDBRANCH   6  16
BRANCH   1  20
ATOM     20  C   UNL     1       2.581   5.445  20.087  0.00  0.00    +0.000 C 
BRANCH  20  23
ATOM     21  C   UNL     1       5.580   5.132  18.066  0.00  0.00    +0.000 A 
ATOM     22  C   UNL     1       4.459   5.928  18.414  0.00  0.00    +0.000 A 
ATOM     23  N   UNL     1       3.833   5.186  19.384  0.00  0.00    +0.000 N 
ATOM     24  N   UNL     1       4.490   4.066  19.653  0.00  0.00    +0.000 NA
ATOM     25  N   UNL     1       5.577   4.029  18.859  0.00  0.00    +0.000 NA
BRANCH  21  26
ATOM     26  C   UNL     1       6.608   5.356  16.989  0.00  0.00    +0.000 C 
BRANCH  26  27
ATOM     27  C   UNL     1       5.963   5.271  15.556  0.00  0.00    +0.000 C 
ATOM     28  F   UNL     1       5.090   4.239  15.445  0.00  0.00    +0.000 F 
ATOM     29  F   UNL     1       5.260   6.395  15.253  0.00  0.00    +0.000 F 
ATOM     30  F   UNL     1       6.877   5.115  14.571  0.00  0.00    +0.000 F 
ENDBRANCH  26  27
BRANCH  26  32
ATOM     31  C   UNL     1       8.016   7.002  18.446  0.00  0.00    +0.000 C 
ATOM     32  C   UNL     1       7.309   6.734  17.120  0.00  0.00    +0.000 C 
ENDBRANCH  26  32
BRANCH  26  33
ATOM     33  O   UNL     1       7.669   4.356  17.108  0.00  0.00    +0.000 OA
ATOM     34  H   UNL     1       8.345   4.726  17.701  0.00  0.00    +0.000 HD
ENDBRANCH  26  33
ENDBRANCH  21  26
ENDBRANCH  20  23
ENDBRANCH   1  20
TORSDOF 9
ENDMDL
MODEL 2
REMARK VINA RESULT:      -8.1      0.746      1.033
REMARK  Name = 
REMARK  11 active torsions:
REMARK  status: ('A' for Active; 'I' for Inactive)
REMARK    1  A    between atoms: C_1  and  C_2
REMARK    2  A    between atoms: C_2  and  C_3
REMARK    3  A    between atoms: C_3  and  O_4
REMARK    4  A    between atoms: C_3  and  C_5
REMARK    5  A    between atoms: C_3  and  C_30
REMARK    6  A    between atoms: N_7  and  C_8
REMARK    7  A    between atoms: C_8  and  C_9
REMARK    8  A    between atoms: C_13  and  C_14
REMARK    9  A    between atoms: C_20  and  C_21
REMARK   10  A    between atoms: C_21  and  O_23
REMARK   11  A    between atoms: O_23  and  C_24
REMARK                            x       y       z     vdW  Elec       q    Type
REMARK                         _______ _______ _______ _____ _____    ______ ____
ROOT
ATOM      1  C   UNL     1       1.956   6.882  20.100  0.00  0.00    +0.000 A 
ATOM      2  C   UNL     1       1.340   7.418  21.221  0.00  0.00    +0.000 A 
ATOM      3  C   UNL     1       0.390   8.399  21.036  0.00  0.00    +0.000 A 
ATOM      4  C   UNL     1       0.732   9.422  20.122  0.00  0.00    +0.000 A 
ATOM      5  C   UNL     1       0.311  10.804  20.043  0.00  0.00    +0.000 A 
ATOM      6  C   UNL     1       1.171  11.500  19.203  0.00  0.00    +0.000 A 
ATOM      7  S   UNL     1       1.972  10.432  18.125  0.00  0.00    +0.000 S 
ATOM      8  C   UNL     1       1.597   9.048  19.086  0.00  0.00    +0.000 A 
ATOM      9  C   UNL     1       2.000   7.693  18.942  0.00  0.00    +0.000 A 
ENDROOT
BRANCH   5  10
ATOM     10  C   UNL     1      -0.702  11.482  20.869  0.00  0.00    +0.000 A 
ATOM     11  C   UNL     1      -1.864  12.027  20.309  0.00  0.00    +0.000 A 
ATOM     12  C   UNL     1      -2.795  12.703  21.105  0.00  0.00    +0.000 A 
ATOM     13  C   UNL     1      -2.610  12.783  22.480  0.00  0.00    +0.000 A 
ATOM     14  C   UNL     1      -1.465  12.236  23.055  0.00  0.00    +0.000 A 
ATOM     15  C   UNL     1      -0.503  11.621  22.251  0.00  0.00    +0.000 A 
ENDBRANCH   5  10
BRANCH   6  16
ATOM     16  C   UNL     1       1.401  12.961  19.201  0.00  0.00    +0.000 C 
ATOM     17  O   UNL     1       1.002  13.719  18.295  0.00  0.00    +0.000 OA
BRANCH  16  18
ATOM     18  O   UNL     1       2.125  13.430  20.276  0.00  0.00    +0.000 OA
ATOM     19  C   UNL     1       2.317  14.823  20.230  0.00  0.00    +0.000 C 
ENDBRANCH  16  18
ENDBRANCH   6  16
BRANCH   1  20
ATOM     20  C   UNL     1       2.499   5.460  20.201  0.00  0.00    +0.000 C 
BRANCH  20  23
ATOM     21  C   UNL     1       5.232   4.856  17.891  0.00  0.00    +0.000 A 
ATOM     22  C   UNL     1       4.796   5.511  19.071  0.00  0.00    +0.000 A 
ATOM     23  N   UNL     1       3.500   5.081  19.210  0.00  0.00    +0.000 N 
ATOM     24  N   UNL     1       3.156   4.226  18.258  0.00  0.00    +0.000 NA
ATOM     25  N   UNL     1       4.220   4.067  17.447  0.00  0.00    +0.000 NA
BRANCH  21  26
ATOM     26  C   UNL     1       6.540   4.991  17.156  0.00  0.00    +0.000 C 
BRANCH  26  27
ATOM     27  C   UNL     1       6.399   4.546  15.653  0.00  0.00    +0.000 C 
ATOM     28  F   UNL     1       7.534   4.763  14.943  0.00  0.00    +0.000 F 
ATOM     29  F   UNL     1       6.132   3.218  15.542  0.00  0.00    +0.000 F 
ATOM     30  F   UNL     1       5.404   5.191  15.000  0.00  0.00    +0.000 F 
ENDBRANCH  26  27
BRANCH  26  32
ATOM     31  C   UNL     1       7.970   6.811  18.363  0.00  0.00    +0.000 C 
ATOM     32  C   UNL     1       7.081   6.445  17.178  0.00  0.00    +0.000 C 
ENDBRANCH  26  32
BRANCH  26  33
ATOM     33  O   UNL     1       7.560   4.176  17.815  0.00  0.00    +0.000 OA
ATOM     34  H   UNL     1       7.251   4.012  18.722  0.00  0.00    +0.000 HD
ENDBRANCH  26  33
ENDBRANCH  21  26
ENDBRANCH  20  23
ENDBRANCH   1  20
TORSDOF 9
ENDMDL
MODEL 3
REMARK VINA RESULT:      -8.1      0.636      1.166
REMARK  Name = 
REMARK  11 active torsions:
REMARK  status: ('A' for Active; 'I' for Inactive)
REMARK    1  A    between atoms: C_1  and  C_2
REMARK    2  A    between atoms: C_2  and  C_3
REMARK    3  A    between atoms: C_3  and  O_4
REMARK    4  A    between atoms: C_3  and  C_5
REMARK    5  A    between atoms: C_3  and  C_30
REMARK    6  A    between atoms: N_7  and  C_8
REMARK    7  A    between atoms: C_8  and  C_9
REMARK    8  A    between atoms: C_13  and  C_14
REMARK    9  A    between atoms: C_20  and  C_21
REMARK   10  A    between atoms: C_21  and  O_23
REMARK   11  A    between atoms: O_23  and  C_24
REMARK                            x       y       z     vdW  Elec       q    Type
REMARK                         _______ _______ _______ _____ _____    ______ ____
ROOT
ATOM      1  C   UNL     1       1.885   6.932  20.126  0.00  0.00    +0.000 A 
ATOM      2  C   UNL     1       1.302   7.524  21.236  0.00  0.00    +0.000 A 
ATOM      3  C   UNL     1       0.384   8.531  21.029  0.00  0.00    +0.000 A 
ATOM      4  C   UNL     1       0.750   9.512  20.079  0.00  0.00    +0.000 A 
ATOM      5  C   UNL     1       0.375  10.905  19.960  0.00  0.00    +0.000 A 
ATOM      6  C   UNL     1       1.247  11.543  19.088  0.00  0.00    +0.000 A 
ATOM      7  S   UNL     1       1.998  10.414  18.037  0.00  0.00    +0.000 S 
ATOM      8  C   UNL     1       1.588   9.075  19.046  0.00  0.00    +0.000 A 
ATOM      9  C   UNL     1       1.942   7.703  18.942  0.00  0.00    +0.000 A 
ENDROOT
BRANCH   5  10
ATOM     10  C   UNL     1      -0.604  11.644  20.775  0.00  0.00    +0.000 A 
ATOM     11  C   UNL     1      -0.385  11.901  22.134  0.00  0.00    +0.000 A 
ATOM     12  C   UNL     1      -1.345  12.570  22.901  0.00  0.00    +0.000 A 
ATOM     13  C   UNL     1      -2.505  13.049  22.303  0.00  0.00    +0.000 A 
ATOM     14  C   UNL     1      -2.733  12.812  20.950  0.00  0.00    +0.000 A 
ATOM     15  C   UNL     1      -1.805  12.085  20.201  0.00  0.00    +0.000 A 
ENDBRANCH   5  10
BRANCH   6  16
ATOM     16  C   UNL     1       1.527  12.994  19.036  0.00  0.00    +0.000 C 
ATOM     17  O   UNL     1       0.838  13.805  18.387  0.00  0.00    +0.000 OA
BRANCH  16  18
ATOM     18  O   UNL     1       2.642  13.390  19.743  0.00  0.00    +0.000 OA
ATOM     19  C   UNL     1       2.921  14.760  19.588  0.00  0.00    +0.000 C 
ENDBRANCH  16  18
ENDBRANCH   6  16
BRANCH   1  20
ATOM     20  C   UNL     1       2.380   5.496  20.267  0.00  0.00    +0.000 C 
BRANCH  20  23
ATOM     21  C   UNL     1       5.212   4.875  18.083  0.00  0.00    +0.000 A 
ATOM     22  C   UNL     1       4.666   5.667  19.125  0.00  0.00    +0.000 A 
ATOM     23  N   UNL     1       3.443   5.088  19.354  0.00  0.00    +0.000 N 
ATOM     24  N   UNL     1       3.242   4.031  18.580  0.00  0.00    +0.000 NA
ATOM     25  N   UNL     1       4.332   3.879  17.803  0.00  0.00    +0.000 NA
BRANCH  21  26
ATOM     26  C   UNL     1       6.499   5.059  17.322  0.00  0.00    +0.000 C 
BRANCH  26  27
ATOM     27  C   UNL     1       6.320   4.700  15.801  0.00  0.00    +0.000 C 
ATOM     28  F   UNL     1       5.211   5.268  15.264  0.00  0.00    +0.000 F 
ATOM     29  F   UNL     1       7.368   5.136  15.052  0.00  0.00    +0.000 F 
ATOM     30  F   UNL     1       6.220   3.368  15.578  0.00  0.00    +0.000 F 
ENDBRANCH  26  27
BRANCH  26  32
ATOM     31  C   UNL     1       8.035   6.788  18.532  0.00  0.00    +0.000 C 
ATOM     32  C   UNL     1       7.035   6.512  17.413  0.00  0.00    +0.000 C 
ENDBRANCH  26  32
BRANCH  26  33
ATOM     33  O   UNL     1       7.539   4.213  17.907  0.00  0.00    +0.000 OA
ATOM     34  H   UNL     1       8.393   4.629  17.702  0.00  0.00    +0.000 HD
ENDBRANCH  26  33
ENDBRANCH  21  26
ENDBRANCH  20  23
ENDBRANCH   1  20
TORSDOF 9
ENDMDL
MODEL 4
REMARK VINA RESULT:      -8.0      0.634      1.395
REMARK  Name = 
REMARK  11 active torsions:
REMARK  status: ('A' for Active; 'I' for Inactive)
REMARK    1  A    between atoms: C_1  and  C_2
REMARK    2  A    between atoms: C_2  and  C_3
REMARK    3  A    between atoms: C_3  and  O_4
REMARK    4  A    between atoms: C_3  and  C_5
REMARK    5  A    between atoms: C_3  and  C_30
REMARK    6  A    between atoms: N_7  and  C_8
REMARK    7  A    between atoms: C_8  and  C_9
REMARK    8  A    between atoms: C_13  and  C_14
REMARK    9  A    between atoms: C_20  and  C_21
REMARK   10  A    between atoms: C_21  and  O_23
REMARK   11  A    between atoms: O_23  and  C_24
REMARK                            x       y       z     vdW  Elec       q    Type
REMARK                         _______ _______ _______ _____ _____    ______ ____
ROOT
ATOM      1  C   UNL     1       2.085   6.882  19.737  0.00  0.00    +0.000 A 
ATOM      2  C   UNL     1       1.492   7.332  20.907  0.00  0.00    +0.000 A 
ATOM      3  C   UNL     1       0.537   8.322  20.814  0.00  0.00    +0.000 A 
ATOM      4  C   UNL     1       0.859   9.410  19.971  0.00  0.00    +0.000 A 
ATOM      5  C   UNL     1       0.434  10.793  20.002  0.00  0.00    +0.000 A 
ATOM      6  C   UNL     1       1.275  11.551  19.198  0.00  0.00    +0.000 A 
ATOM      7  S   UNL     1       2.054  10.568  18.028  0.00  0.00    +0.000 S 
ATOM      8  C   UNL     1       1.701   9.115  18.892  0.00  0.00    +0.000 A 
ATOM      9  C   UNL     1       2.103   7.775  18.641  0.00  0.00    +0.000 A 
ENDROOT
BRANCH   5  10
ATOM     10  C   UNL     1      -0.562  11.406  20.897  0.00  0.00    +0.000 A 
ATOM     11  C   UNL     1      -0.397  11.413  22.288  0.00  0.00    +0.000 A 
ATOM     12  C   UNL     1      -1.374  11.965  23.123  0.00  0.00    +0.000 A 
ATOM     13  C   UNL     1      -2.495  12.576  22.576  0.00  0.00    +0.000 A 
ATOM     14  C   UNL     1      -2.670  12.588  21.194  0.00  0.00    +0.000 A 
ATOM     15  C   UNL     1      -1.728  11.977  20.364  0.00  0.00    +0.000 A 
ENDBRANCH   5  10
BRANCH   6  16
ATOM     16  C   UNL     1       1.503  13.009  19.298  0.00  0.00    +0.000 C 
ATOM     17  O   UNL     1       2.377  13.521  20.024  0.00  0.00    +0.000 OA
BRANCH  16  18
ATOM     18  O   UNL     1       0.645  13.777  18.540  0.00  0.00    +0.000 OA
ATOM     19  C   UNL     1       0.772  15.152  18.809  0.00  0.00    +0.000 C 
ENDBRANCH  16  18
ENDBRANCH   6  16
BRANCH   1  20
ATOM     20  C   UNL     1       2.631   5.458  19.722  0.00  0.00    +0.000 C 
BRANCH  20  23
ATOM     21  C   UNL     1       5.817   5.177  18.006  0.00  0.00    +0.000 A 
ATOM     22  C   UNL     1       4.495   5.690  17.981  0.00  0.00    +0.000 A 
ATOM     23  N   UNL     1       3.979   5.290  19.189  0.00  0.00    +0.000 N 
ATOM     24  N   UNL     1       4.870   4.634  19.917  0.00  0.00    +0.000 NA
ATOM     25  N   UNL     1       6.013   4.571  19.206  0.00  0.00    +0.000 NA
BRANCH  21  26
ATOM     26  C   UNL     1       6.867   5.201  16.927  0.00  0.00    +0.000 C 
BRANCH  26  27
ATOM     27  C   UNL     1       6.320   4.589  15.584  0.00  0.00    +0.000 C 
ATOM     28  F   UNL     1       7.270   4.533  14.618  0.00  0.00    +0.000 F 
ATOM     29  F   UNL     1       5.878   3.315  15.753  0.00  0.00    +0.000 F 
ATOM     30  F   UNL     1       5.282   5.288  15.067  0.00  0.00    +0.000 F 
ENDBRANCH  26  27
BRANCH  26  32
ATOM     31  C   UNL     1       7.752   7.478  17.845  0.00  0.00    +0.000 C 
ATOM     32  C   UNL     1       7.375   6.636  16.629  0.00  0.00    +0.000 C 
ENDBRANCH  26  32
BRANCH  26  33
ATOM     33  O   UNL     1       8.040   4.445  17.367  0.00  0.00    +0.000 OA
ATOM     34  H   UNL     1       8.247   4.740  18.270  0.00  0.00    +0.000 HD
ENDBRANCH  26  33
ENDBRANCH  21  26
ENDBRANCH  20  23
ENDBRANCH   1  20
TORSDOF 9
ENDMDL
MODEL 5
REMARK VINA RESULT:      -7.8      3.389      4.086
REMARK  Name = 
REMARK  11 active torsions:
REMARK  status: ('A' for Active; 'I' for Inactive)
REMARK    1  A    between atoms: C_1  and  C_2
REMARK    2  A    between atoms: C_2  and  C_3
REMARK    3  A    between atoms: C_3  and  O_4
REMARK    4  A    between atoms: C_3  and  C_5
REMARK    5  A    between atoms: C_3  and  C_30
REMARK    6  A    between atoms: N_7  and  C_8
REMARK    7  A    between atoms: C_8  and  C_9
REMARK    8  A    between atoms: C_13  and  C_14
REMARK    9  A    between atoms: C_20  and  C_21
REMARK   10  A    between atoms: C_21  and  O_23
REMARK   11  A    between atoms: O_23  and  C_24
REMARK                            x       y       z     vdW  Elec       q    Type
REMARK                         _______ _______ _______ _____ _____    ______ ____
ROOT
ATOM      1  C   UNL     1       2.119   9.020  18.140  0.00  0.00    +0.000 A 
ATOM      2  C   UNL     1       1.329   8.747  19.247  0.00  0.00    +0.000 A 
ATOM      3  C   UNL     1       0.352   9.656  19.590  0.00  0.00    +0.000 A 
ATOM      4  C   UNL     1       0.746  11.013  19.586  0.00  0.00    +0.000 A 
ATOM      5  C   UNL     1       0.253  12.147  20.338  0.00  0.00    +0.000 A 
ATOM      6  C   UNL     1       1.170  13.187  20.257  0.00  0.00    +0.000 A 
ATOM      7  S   UNL     1       2.171  13.015  18.874  0.00  0.00    +0.000 S 
ATOM      8  C   UNL     1       1.761  11.350  18.681  0.00  0.00    +0.000 A 
ATOM      9  C   UNL     1       2.263  10.378  17.774  0.00  0.00    +0.000 A 
ENDROOT
BRANCH   5  10
ATOM     10  C   UNL     1      -0.900  12.185  21.253  0.00  0.00    +0.000 A 
ATOM     11  C   UNL     1      -0.857  11.582  22.517  0.00  0.00    +0.000 A 
ATOM     12  C   UNL     1      -1.976  11.593  23.355  0.00  0.00    +0.000 A 
ATOM     13  C   UNL     1      -3.129  12.266  22.970  0.00  0.00    +0.000 A 
ATOM     14  C   UNL     1      -3.186  12.881  21.721  0.00  0.00    +0.000 A 
ATOM     15  C   UNL     1      -2.091  12.811  20.857  0.00  0.00    +0.000 A 
ENDBRANCH   5  10
BRANCH   6  16
ATOM     16  C   UNL     1       1.306  14.311  21.209  0.00  0.00    +0.000 C 
ATOM     17  O   UNL     1       0.553  15.304  21.214  0.00  0.00    +0.000 OA
BRANCH  16  18
ATOM     18  O   UNL     1       2.363  14.194  22.087  0.00  0.00    +0.000 OA
ATOM     19  C   UNL     1       3.180  15.339  22.102  0.00  0.00    +0.000 C 
ENDBRANCH  16  18
ENDBRANCH   6  16
BRANCH   1  20
ATOM     20  C   UNL     1       2.732   7.837  17.397  0.00  0.00    +0.000 C 
BRANCH  20  23
ATOM     21  C   UNL     1       2.808   4.657  19.145  0.00  0.00    +0.000 A 
ATOM     22  C   UNL     1       2.237   5.424  18.097  0.00  0.00    +0.000 A 
ATOM     23  N   UNL     1       2.916   6.615  18.171  0.00  0.00    +0.000 N 
ATOM     24  N   UNL     1       3.836   6.603  19.125  0.00  0.00    +0.000 NA
ATOM     25  N   UNL     1       3.790   5.396  19.723  0.00  0.00    +0.000 NA
BRANCH  21  26
ATOM     26  C   UNL     1       2.423   3.287  19.639  0.00  0.00    +0.000 C 
BRANCH  26  27
ATOM     27  C   UNL     1       1.019   3.310  20.350  0.00  0.00    +0.000 C 
ATOM     28  F   UNL     1       1.024   2.629  21.523  0.00  0.00    +0.000 F 
ATOM     29  F   UNL     1       0.625   4.576  20.650  0.00  0.00    +0.000 F 
ATOM     30  F   UNL     1       0.033   2.773  19.594  0.00  0.00    +0.000 F 
ENDBRANCH  26  27
BRANCH  26  32
ATOM     31  C   UNL     1       3.674   1.521  18.180  0.00  0.00    +0.000 C 
ATOM     32  C   UNL     1       2.366   2.242  18.494  0.00  0.00    +0.000 C 
ENDBRANCH  26  32
BRANCH  26  33
ATOM     33  O   UNL     1       3.438   2.801  20.574  0.00  0.00    +0.000 OA
ATOM     34  H   UNL     1       3.203   1.884  20.796  0.00  0.00    +0.000 HD
ENDBRANCH  26  33
ENDBRANCH  21  26
ENDBRANCH  20  23
ENDBRANCH   1  20
TORSDOF 9
ENDMDL
MODEL 6
REMARK VINA RESULT:      -7.8      1.506      2.247
REMARK  Name = 
REMARK  11 active torsions:
REMARK  status: ('A' for Active; 'I' for Inactive)
REMARK    1  A    between atoms: C_1  and  C_2
REMARK    2  A    between atoms: C_2  and  C_3
REMARK    3  A    between atoms: C_3  and  O_4
REMARK    4  A    between atoms: C_3  and  C_5
REMARK    5  A    between atoms: C_3  and  C_30
REMARK    6  A    between atoms: N_7  and  C_8
REMARK    7  A    between atoms: C_8  and  C_9
REMARK    8  A    between atoms: C_13  and  C_14
REMARK    9  A    between atoms: C_20  and  C_21
REMARK   10  A    between atoms: C_21  and  O_23
REMARK   11  A    between atoms: O_23  and  C_24
REMARK                            x       y       z     vdW  Elec       q    Type
REMARK                         _______ _______ _______ _____ _____    ______ ____
ROOT
ATOM      1  C   UNL     1       1.767   7.310  20.157  0.00  0.00    +0.000 A 
ATOM      2  C   UNL     1       1.150   7.838  21.281  0.00  0.00    +0.000 A 
ATOM      3  C   UNL     1       0.201   8.821  21.102  0.00  0.00    +0.000 A 
ATOM      4  C   UNL     1       0.545   9.850  20.196  0.00  0.00    +0.000 A 
ATOM      5  C   UNL     1       0.125  11.233  20.126  0.00  0.00    +0.000 A 
ATOM      6  C   UNL     1       0.986  11.934  19.293  0.00  0.00    +0.000 A 
ATOM      7  S   UNL     1       1.787  10.874  18.208  0.00  0.00    +0.000 S 
ATOM      8  C   UNL     1       1.410   9.483  19.158  0.00  0.00    +0.000 A 
ATOM      9  C   UNL     1       1.812   8.129  19.005  0.00  0.00    +0.000 A 
ENDROOT
BRANCH   5  10
ATOM     10  C   UNL     1      -0.888  11.906  20.956  0.00  0.00    +0.000 A 
ATOM     11  C   UNL     1      -0.669  12.173  22.314  0.00  0.00    +0.000 A 
ATOM     12  C   UNL     1      -1.660  12.777  23.095  0.00  0.00    +0.000 A 
ATOM     13  C   UNL     1      -2.855  13.184  22.514  0.00  0.00    +0.000 A 
ATOM     14  C   UNL     1      -3.085  12.937  21.162  0.00  0.00    +0.000 A 
ATOM     15  C   UNL     1      -2.123  12.272  20.399  0.00  0.00    +0.000 A 
ENDBRANCH   5  10
BRANCH   6  16
ATOM     16  C   UNL     1       1.217  13.395  19.301  0.00  0.00    +0.000 C 
ATOM     17  O   UNL     1       2.090  13.950  19.996  0.00  0.00    +0.000 OA
BRANCH  16  18
ATOM     18  O   UNL     1       0.363  14.116  18.493  0.00  0.00    +0.000 OA
ATOM     19  C   UNL     1      -0.120  15.278  19.121  0.00  0.00    +0.000 C 
ENDBRANCH  16  18
ENDBRANCH   6  16
BRANCH   1  20
ATOM     20  C   UNL     1       2.308   5.886  20.248  0.00  0.00    +0.000 C 
BRANCH  20  23
ATOM     21  C   UNL     1       4.633   5.080  17.580  0.00  0.00    +0.000 A 
ATOM     22  C   UNL     1       4.423   5.754  18.810  0.00  0.00    +0.000 A 
ATOM     23  N   UNL     1       3.126   5.436  19.127  0.00  0.00    +0.000 N 
ATOM     24  N   UNL     1       2.581   4.626  18.231  0.00  0.00    +0.000 NA
ATOM     25  N   UNL     1       3.505   4.386  17.280  0.00  0.00    +0.000 NA
BRANCH  21  26
ATOM     26  C   UNL     1       5.834   5.112  16.671  0.00  0.00    +0.000 C 
BRANCH  26  27
ATOM     27  C   UNL     1       7.175   5.115  17.495  0.00  0.00    +0.000 C 
ATOM     28  F   UNL     1       7.781   6.328  17.487  0.00  0.00    +0.000 F 
ATOM     29  F   UNL     1       6.965   4.806  18.802  0.00  0.00    +0.000 F 
ATOM     30  F   UNL     1       8.083   4.223  17.033  0.00  0.00    +0.000 F 
ENDBRANCH  26  27
BRANCH  26  32
ATOM     31  C   UNL     1       6.123   4.233  14.230  0.00  0.00    +0.000 C 
ATOM     32  C   UNL     1       5.870   3.904  15.699  0.00  0.00    +0.000 C 
ENDBRANCH  26  32
BRANCH  26  33
ATOM     33  O   UNL     1       5.776   6.304  15.824  0.00  0.00    +0.000 OA
ATOM     34  H   UNL     1       4.838   6.471  15.632  0.00  0.00    +0.000 HD
ENDBRANCH  26  33
ENDBRANCH  21  26
ENDBRANCH  20  23
ENDBRANCH   1  20
TORSDOF 9
ENDMDL
MODEL 7
REMARK VINA RESULT:      -7.8      3.337      4.079
REMARK  Name = 
REMARK  11 active torsions:
REMARK  status: ('A' for Active; 'I' for Inactive)
REMARK    1  A    between atoms: C_1  and  C_2
REMARK    2  A    between atoms: C_2  and  C_3
REMARK    3  A    between atoms: C_3  and  O_4
REMARK    4  A    between atoms: C_3  and  C_5
REMARK    5  A    between atoms: C_3  and  C_30
REMARK    6  A    between atoms: N_7  and  C_8
REMARK    7  A    between atoms: C_8  and  C_9
REMARK    8  A    between atoms: C_13  and  C_14
REMARK    9  A    between atoms: C_20  and  C_21
REMARK   10  A    between atoms: C_21  and  O_23
REMARK   11  A    between atoms: O_23  and  C_24
REMARK                            x       y       z     vdW  Elec       q    Type
REMARK                         _______ _______ _______ _____ _____    ______ ____
ROOT
ATOM      1  C   UNL     1       2.224   8.919  18.077  0.00  0.00    +0.000 A 
ATOM      2  C   UNL     1       1.486   8.653  19.220  0.00  0.00    +0.000 A 
ATOM      3  C   UNL     1       0.492   9.541  19.574  0.00  0.00    +0.000 A 
ATOM      4  C   UNL     1       0.841  10.909  19.516  0.00  0.00    +0.000 A 
ATOM      5  C   UNL     1       0.338  12.049  20.254  0.00  0.00    +0.000 A 
ATOM      6  C   UNL     1       1.217  13.114  20.109  0.00  0.00    +0.000 A 
ATOM      7  S   UNL     1       2.170  12.934  18.694  0.00  0.00    +0.000 S 
ATOM      8  C   UNL     1       1.809  11.251  18.565  0.00  0.00    +0.000 A 
ATOM      9  C   UNL     1       2.310  10.269  17.667  0.00  0.00    +0.000 A 
ENDROOT
BRANCH   5  10
ATOM     10  C   UNL     1      -0.780  12.076  21.211  0.00  0.00    +0.000 A 
ATOM     11  C   UNL     1      -1.970  12.761  20.933  0.00  0.00    +0.000 A 
ATOM     12  C   UNL     1      -3.006  12.809  21.872  0.00  0.00    +0.000 A 
ATOM     13  C   UNL     1      -2.892  12.115  23.072  0.00  0.00    +0.000 A 
ATOM     14  C   UNL     1      -1.720  11.419  23.359  0.00  0.00    +0.000 A 
ATOM     15  C   UNL     1      -0.661  11.429  22.450  0.00  0.00    +0.000 A 
ENDBRANCH   5  10
BRANCH   6  16
ATOM     16  C   UNL     1       1.351  14.269  21.022  0.00  0.00    +0.000 C 
ATOM     17  O   UNL     1       2.055  14.255  22.051  0.00  0.00    +0.000 OA
BRANCH  16  18
ATOM     18  O   UNL     1       0.606  15.373  20.665  0.00  0.00    +0.000 OA
ATOM     19  C   UNL     1       0.034  16.020  21.776  0.00  0.00    +0.000 C 
ENDBRANCH  16  18
ENDBRANCH   6  16
BRANCH   1  20
ATOM     20  C   UNL     1       2.848   7.735  17.344  0.00  0.00    +0.000 C 
BRANCH  20  23
ATOM     21  C   UNL     1       2.875   4.584  19.145  0.00  0.00    +0.000 A 
ATOM     22  C   UNL     1       2.261   5.373  18.139  0.00  0.00    +0.000 A 
ATOM     23  N   UNL     1       3.023   6.514  18.124  0.00  0.00    +0.000 N 
ATOM     24  N   UNL     1       4.026   6.452  18.987  0.00  0.00    +0.000 NA
ATOM     25  N   UNL     1       3.956   5.261  19.612  0.00  0.00    +0.000 NA
BRANCH  21  26
ATOM     26  C   UNL     1       2.448   3.251  19.702  0.00  0.00    +0.000 C 
BRANCH  26  27
ATOM     27  C   UNL     1       1.054   3.355  20.424  0.00  0.00    +0.000 C 
ATOM     28  F   UNL     1       0.052   2.806  19.693  0.00  0.00    +0.000 F 
ATOM     29  F   UNL     1       1.052   2.701  21.616  0.00  0.00    +0.000 F 
ATOM     30  F   UNL     1       0.687   4.631  20.689  0.00  0.00    +0.000 F 
ENDBRANCH  26  27
BRANCH  26  32
ATOM     31  C   UNL     1       3.659   1.551  18.135  0.00  0.00    +0.000 C 
ATOM     32  C   UNL     1       2.341   2.160  18.605  0.00  0.00    +0.000 C 
ENDBRANCH  26  32
BRANCH  26  33
ATOM     33  O   UNL     1       3.455   2.769  20.648  0.00  0.00    +0.000 OA
ATOM     34  H   UNL     1       4.295   3.196  20.411  0.00  0.00    +0.000 HD
ENDBRANCH  26  33
ENDBRANCH  21  26
ENDBRANCH  20  23
ENDBRANCH   1  20
TORSDOF 9
ENDMDL
MODEL 8
REMARK VINA RESULT:      -7.8      3.347      4.137
REMARK  Name = 
REMARK  11 active torsions:
REMARK  status: ('A' for Active; 'I' for Inactive)
REMARK    1  A    between atoms: C_1  and  C_2
REMARK    2  A    between atoms: C_2  and  C_3
REMARK    3  A    between atoms: C_3  and  O_4
REMARK    4  A    between atoms: C_3  and  C_5
REMARK    5  A    between atoms: C_3  and  C_30
REMARK    6  A    between atoms: N_7  and  C_8
REMARK    7  A    between atoms: C_8  and  C_9
REMARK    8  A    between atoms: C_13  and  C_14
REMARK    9  A    between atoms: C_20  and  C_21
REMARK   10  A    between atoms: C_21  and  O_23
REMARK   11  A    between atoms: O_23  and  C_24
REMARK                            x       y       z     vdW  Elec       q    Type
REMARK                         _______ _______ _______ _____ _____    ______ ____
ROOT
ATOM      1  C   UNL     1       2.227   8.862  18.102  0.00  0.00    +0.000 A 
ATOM      2  C   UNL     1       1.490   8.620  19.251  0.00  0.00    +0.000 A 
ATOM      3  C   UNL     1       0.488   9.506  19.580  0.00  0.00    +0.000 A 
ATOM      4  C   UNL     1       0.823  10.876  19.486  0.00  0.00    +0.000 A 
ATOM      5  C   UNL     1       0.309  12.030  20.192  0.00  0.00    +0.000 A 
ATOM      6  C   UNL     1       1.177  13.100  20.019  0.00  0.00    +0.000 A 
ATOM      7  S   UNL     1       2.134  12.891  18.611  0.00  0.00    +0.000 S 
ATOM      8  C   UNL     1       1.789  11.202  18.526  0.00  0.00    +0.000 A 
ATOM      9  C   UNL     1       2.300  10.202  17.655  0.00  0.00    +0.000 A 
ENDROOT
BRANCH   5  10
ATOM     10  C   UNL     1      -0.811  12.072  21.148  0.00  0.00    +0.000 A 
ATOM     11  C   UNL     1      -0.712  11.502  22.424  0.00  0.00    +0.000 A 
ATOM     12  C   UNL     1      -1.800  11.517  23.302  0.00  0.00    +0.000 A 
ATOM     13  C   UNL     1      -2.978  12.161  22.942  0.00  0.00    +0.000 A 
ATOM     14  C   UNL     1      -3.090  12.743  21.681  0.00  0.00    +0.000 A 
ATOM     15  C   UNL     1      -2.026  12.668  20.779  0.00  0.00    +0.000 A 
ENDBRANCH   5  10
BRANCH   6  16
ATOM     16  C   UNL     1       1.299  14.281  20.901  0.00  0.00    +0.000 C 
ATOM     17  O   UNL     1       1.553  14.207  22.119  0.00  0.00    +0.000 OA
BRANCH  16  18
ATOM     18  O   UNL     1       1.079  15.490  20.277  0.00  0.00    +0.000 OA
ATOM     19  C   UNL     1      -0.290  15.766  20.103  0.00  0.00    +0.000 C 
ENDBRANCH  16  18
ENDBRANCH   6  16
BRANCH   1  20
ATOM     20  C   UNL     1       2.864   7.665  17.402  0.00  0.00    +0.000 C 
BRANCH  20  23
ATOM     21  C   UNL     1       2.844   4.530  19.231  0.00  0.00    +0.000 A 
ATOM     22  C   UNL     1       2.278   5.297  18.181  0.00  0.00    +0.000 A 
ATOM     23  N   UNL     1       3.014   6.455  18.203  0.00  0.00    +0.000 N 
ATOM     24  N   UNL     1       3.961   6.423  19.129  0.00  0.00    +0.000 NA
ATOM     25  N   UNL     1       3.877   5.236  19.760  0.00  0.00    +0.000 NA
BRANCH  21  26
ATOM     26  C   UNL     1       2.411   3.194  19.774  0.00  0.00    +0.000 C 
BRANCH  26  27
ATOM     27  C   UNL     1       0.987   3.281  20.439  0.00  0.00    +0.000 C 
ATOM     28  F   UNL     1       0.603   4.562  20.667  0.00  0.00    +0.000 F 
ATOM     29  F   UNL     1       0.026   2.734  19.649  0.00  0.00    +0.000 F 
ATOM     30  F   UNL     1       0.916   2.637  21.627  0.00  0.00    +0.000 F 
ENDBRANCH  26  27
BRANCH  26  32
ATOM     31  C   UNL     1       3.620   1.947  17.825  0.00  0.00    +0.000 C 
ATOM     32  C   UNL     1       2.361   2.099  18.675  0.00  0.00    +0.000 C 
ENDBRANCH  26  32
BRANCH  26  33
ATOM     33  O   UNL     1       3.385   2.725  20.759  0.00  0.00    +0.000 OA
ATOM     34  H   UNL     1       4.217   2.563  20.283  0.00  0.00    +0.000 HD
ENDBRANCH  26  33
ENDBRANCH  21  26
ENDBRANCH  20  23
ENDBRANCH   1  20
TORSDOF 9
ENDMDL
MODEL 9
REMARK VINA RESULT:      -7.8      1.512      1.981
REMARK  Name = 
REMARK  11 active torsions:
REMARK  status: ('A' for Active; 'I' for Inactive)
REMARK    1  A    between atoms: C_1  and  C_2
REMARK    2  A    between atoms: C_2  and  C_3
REMARK    3  A    between atoms: C_3  and  O_4
REMARK    4  A    between atoms: C_3  and  C_5
REMARK    5  A    between atoms: C_3  and  C_30
REMARK    6  A    between atoms: N_7  and  C_8
REMARK    7  A    between atoms: C_8  and  C_9
REMARK    8  A    between atoms: C_13  and  C_14
REMARK    9  A    between atoms: C_20  and  C_21
REMARK   10  A    between atoms: C_21  and  O_23
REMARK   11  A    between atoms: O_23  and  C_24
REMARK                            x       y       z     vdW  Elec       q    Type
REMARK                         _______ _______ _______ _____ _____    ______ ____
ROOT
ATOM      1  C   UNL     1       1.756   7.276  20.144  0.00  0.00    +0.000 A 
ATOM      2  C   UNL     1       1.123   7.798  21.262  0.00  0.00    +0.000 A 
ATOM      3  C   UNL     1       0.185   8.790  21.075  0.00  0.00    +0.000 A 
ATOM      4  C   UNL     1       0.551   9.825  20.185  0.00  0.00    +0.000 A 
ATOM      5  C   UNL     1       0.141  11.211  20.121  0.00  0.00    +0.000 A 
ATOM      6  C   UNL     1       1.021  11.914  19.309  0.00  0.00    +0.000 A 
ATOM      7  S   UNL     1       1.834  10.858  18.228  0.00  0.00    +0.000 S 
ATOM      8  C   UNL     1       1.431   9.461  19.159  0.00  0.00    +0.000 A 
ATOM      9  C   UNL     1       1.826   8.106  19.000  0.00  0.00    +0.000 A 
ENDROOT
BRANCH   5  10
ATOM     10  C   UNL     1      -0.881  11.884  20.940  0.00  0.00    +0.000 A 
ATOM     11  C   UNL     1      -2.089  12.330  20.389  0.00  0.00    +0.000 A 
ATOM     12  C   UNL     1      -3.031  13.003  21.175  0.00  0.00    +0.000 A 
ATOM     13  C   UNL     1      -2.807  13.177  22.536  0.00  0.00    +0.000 A 
ATOM     14  C   UNL     1      -1.615  12.729  23.103  0.00  0.00    +0.000 A 
ATOM     15  C   UNL     1      -0.647  12.119  22.304  0.00  0.00    +0.000 A 
ENDBRANCH   5  10
BRANCH   6  16
ATOM     16  C   UNL     1       1.262  13.373  19.335  0.00  0.00    +0.000 C 
ATOM     17  O   UNL     1       0.613  14.190  18.653  0.00  0.00    +0.000 OA
BRANCH  16  18
ATOM     18  O   UNL     1       2.294  13.770  20.159  0.00  0.00    +0.000 OA
ATOM     19  C   UNL     1       1.859  14.605  21.204  0.00  0.00    +0.000 C 
ENDBRANCH  16  18
ENDBRANCH   6  16
BRANCH   1  20
ATOM     20  C   UNL     1       2.286   5.849  20.230  0.00  0.00    +0.000 C 
BRANCH  20  23
ATOM     21  C   UNL     1       4.685   5.071  17.621  0.00  0.00    +0.000 A 
ATOM     22  C   UNL     1       4.438   5.738  18.848  0.00  0.00    +0.000 A 
ATOM     23  N   UNL     1       3.136   5.409  19.129  0.00  0.00    +0.000 N 
ATOM     24  N   UNL     1       2.620   4.600  18.216  0.00  0.00    +0.000 NA
ATOM     25  N   UNL     1       3.570   4.371  17.288  0.00  0.00    +0.000 NA
BRANCH  21  26
ATOM     26  C   UNL     1       5.909   5.116  16.743  0.00  0.00    +0.000 C 
BRANCH  26  27
ATOM     27  C   UNL     1       7.228   5.105  17.601  0.00  0.00    +0.000 C 
ATOM     28  F   UNL     1       7.825   6.322  17.643  0.00  0.00    +0.000 F 
ATOM     29  F   UNL     1       6.987   4.759  18.894  0.00  0.00    +0.000 F 
ATOM     30  F   UNL     1       8.154   4.233  17.140  0.00  0.00    +0.000 F 
ENDBRANCH  26  27
BRANCH  26  32
ATOM     31  C   UNL     1       5.791   4.266  14.278  0.00  0.00    +0.000 C 
ATOM     32  C   UNL     1       5.969   3.922  15.754  0.00  0.00    +0.000 C 
ENDBRANCH  26  32
BRANCH  26  33
ATOM     33  O   UNL     1       5.873   6.320  15.914  0.00  0.00    +0.000 OA
ATOM     34  H   UNL     1       5.313   6.120  15.145  0.00  0.00    +0.000 HD
ENDBRANCH  26  33
ENDBRANCH  21  26
ENDBRANCH  20  23
ENDBRANCH   1  20
TORSDOF 9
ENDMDL
