MODEL 1
REMARK VINA RESULT:      -6.9      0.000      0.000
REMARK  Name = 
REMARK  3 active torsions:
REMARK  status: ('A' for Active; 'I' for Inactive)
REMARK    1  A    between atoms: C_1  and  C_2
REMARK    2  A    between atoms: C_2  and  C_3
REMARK    3  A    between atoms: C_9  and  C_10
REMARK                            x       y       z     vdW  Elec       q    Type
REMARK                         _______ _______ _______ _____ _____    ______ ____
ROOT
ATOM      1  C   UNL     1       6.485   4.848  14.726  0.00  0.00    +0.000 C 
ATOM      2  O   UNL     1       5.311   5.223  14.752  0.00  0.00    +0.000 OA
ATOM      3  N   UNL     1       7.213   4.506  15.840  0.00  0.00    +0.000 N 
ATOM      4  C   UNL     1       6.680   4.550  17.100  0.00  0.00    +0.000 A 
ATOM      5  N   UNL     1       7.370   4.638  18.210  0.00  0.00    +0.000 NA
ATOM      6  N   UNL     1       6.485   4.601  19.258  0.00  0.00    +0.000 NA
ATOM      7  C   UNL     1       5.267   4.421  18.778  0.00  0.00    +0.000 A 
ATOM      8  N   UNL     1       5.346   4.438  17.405  0.00  0.00    +0.000 N 
ATOM      9  H   UNL     1       8.223   4.439  15.801  0.00  0.00    +0.000 HD
ATOM     10  H   UNL     1       4.612   4.275  16.739  0.00  0.00    +0.000 HD
ENDROOT
BRANCH   7  11
ATOM     11  C   UNL     1       4.061   4.157  19.573  0.00  0.00    +0.000 A 
ATOM     12  C   UNL     1       3.731   2.889  20.041  0.00  0.00    +0.000 A 
ATOM     13  C   UNL     1       2.593   2.754  20.826  0.00  0.00    +0.000 A 
ATOM     14  N   UNL     1       1.783   3.782  21.165  0.00  0.00    +0.000 NA
ATOM     15  C   UNL     1       2.118   4.999  20.692  0.00  0.00    +0.000 A 
ATOM     16  C   UNL     1       3.229   5.230  19.898  0.00  0.00    +0.000 A 
ENDBRANCH   7  11
BRANCH   1  18
ATOM     17  C   UNL     1       6.602   3.748  12.447  0.00  0.00    +0.000 C 
ATOM     18  C   UNL     1       7.277   4.673  13.441  0.00  0.00    +0.000 C 
ENDBRANCH   1  18
TORSDOF 2
ENDMDL
MODEL 2
REMARK VINA RESULT:      -6.8      0.110      1.179
REMARK  Name = 
REMARK  3 active torsions:
REMARK  status: ('A' for Active; 'I' for Inactive)
REMARK    1  A    between atoms: C_1  and  C_2
REMARK    2  A    between atoms: C_2  and  C_3
REMARK    3  A    between atoms: C_9  and  C_10
REMARK                            x       y       z     vdW  Elec       q    Type
REMARK                         _______ _______ _______ _____ _____    ______ ____
ROOT
ATOM      1  C   UNL     1       6.444   4.905  14.747  0.00  0.00    +0.000 C 
ATOM      2  O   UNL     1       5.298   5.358  14.787  0.00  0.00    +0.000 OA
ATOM      3  N   UNL     1       7.156   4.501  15.850  0.00  0.00    +0.000 N 
ATOM      4  C   UNL     1       6.637   4.563  17.114  0.00  0.00    +0.000 A 
ATOM      5  N   UNL     1       7.340   4.590  18.219  0.00  0.00    +0.000 NA
ATOM      6  N   UNL     1       6.463   4.598  19.275  0.00  0.00    +0.000 NA
ATOM      7  C   UNL     1       5.232   4.505  18.803  0.00  0.00    +0.000 A 
ATOM      8  N   UNL     1       5.301   4.536  17.429  0.00  0.00    +0.000 N 
ATOM      9  H   UNL     1       8.160   4.367  15.800  0.00  0.00    +0.000 HD
ATOM     10  H   UNL     1       4.552   4.431  16.767  0.00  0.00    +0.000 HD
ENDROOT
BRANCH   7  11
ATOM     11  C   UNL     1       4.018   4.312  19.604  0.00  0.00    +0.000 A 
ATOM     12  C   UNL     1       3.154   5.355  19.925  0.00  0.00    +0.000 A 
ATOM     13  C   UNL     1       2.006   5.058  20.648  0.00  0.00    +0.000 A 
ATOM     14  N   UNL     1       1.673   3.815  21.061  0.00  0.00    +0.000 NA
ATOM     15  C   UNL     1       2.530   2.823  20.748  0.00  0.00    +0.000 A 
ATOM     16  C   UNL     1       3.701   3.023  20.036  0.00  0.00    +0.000 A 
ENDBRANCH   7  11
BRANCH   1  18
ATOM     17  C   UNL     1       6.516   3.751  12.493  0.00  0.00    +0.000 C 
ATOM     18  C   UNL     1       7.213   4.696  13.453  0.00  0.00    +0.000 C 
ENDBRANCH   1  18
TORSDOF 2
ENDMDL
MODEL 3
REMARK VINA RESULT:      -6.8      2.375      3.307
REMARK  Name = 
REMARK  3 active torsions:
REMARK  status: ('A' for Active; 'I' for Inactive)
REMARK    1  A    between atoms: C_1  and  C_2
REMARK    2  A    between atoms: C_2  and  C_3
REMARK    3  A    between atoms: C_9  and  C_10
REMARK                            x       y       z     vdW  Elec       q    Type
REMARK                         _______ _______ _______ _____ _____    ______ ____
ROOT
ATOM      1  C   UNL     1       6.213   3.227  12.289  0.00  0.00    +0.000 C 
ATOM      2  O   UNL     1       4.995   3.414  12.315  0.00  0.00    +0.000 OA
ATOM      3  N   UNL     1       7.096   3.755  13.199  0.00  0.00    +0.000 N 
ATOM      4  C   UNL     1       6.686   4.547  14.236  0.00  0.00    +0.000 A 
ATOM      5  N   UNL     1       7.445   5.396  14.885  0.00  0.00    +0.000 NA
ATOM      6  N   UNL     1       6.689   5.957  15.883  0.00  0.00    +0.000 NA
ATOM      7  C   UNL     1       5.494   5.392  15.878  0.00  0.00    +0.000 A 
ATOM      8  N   UNL     1       5.439   4.529  14.808  0.00  0.00    +0.000 N 
ATOM      9  H   UNL     1       8.091   3.777  13.005  0.00  0.00    +0.000 HD
ATOM     10  H   UNL     1       4.694   3.905  14.552  0.00  0.00    +0.000 HD
ENDROOT
BRANCH   7  11
ATOM     11  C   UNL     1       4.448   5.586  16.889  0.00  0.00    +0.000 A 
ATOM     12  C   UNL     1       4.126   6.837  17.408  0.00  0.00    +0.000 A 
ATOM     13  C   UNL     1       3.087   6.920  18.325  0.00  0.00    +0.000 A 
ATOM     14  N   UNL     1       2.365   5.858  18.747  0.00  0.00    +0.000 NA
ATOM     15  C   UNL     1       2.701   4.656  18.238  0.00  0.00    +0.000 A 
ATOM     16  C   UNL     1       3.725   4.474  17.324  0.00  0.00    +0.000 A 
ENDBRANCH   7  11
BRANCH   1  18
ATOM     17  C   UNL     1       6.221   1.000  11.082  0.00  0.00    +0.000 C 
ATOM     18  C   UNL     1       6.900   2.344  11.260  0.00  0.00    +0.000 C 
ENDBRANCH   1  18
TORSDOF 2
ENDMDL
MODEL 4
REMARK VINA RESULT:      -6.8      2.339      3.097
REMARK  Name = 
REMARK  3 active torsions:
REMARK  status: ('A' for Active; 'I' for Inactive)
REMARK    1  A    between atoms: C_1  and  C_2
REMARK    2  A    between atoms: C_2  and  C_3
REMARK    3  A    between atoms: C_9  and  C_10
REMARK                            x       y       z     vdW  Elec       q    Type
REMARK                         _______ _______ _______ _____ _____    ______ ____
ROOT
ATOM      1  C   UNL     1       6.197   3.218  12.313  0.00  0.00    +0.000 C 
ATOM      2  O   UNL     1       4.981   3.417  12.319  0.00  0.00    +0.000 OA
ATOM      3  N   UNL     1       7.070   3.733  13.240  0.00  0.00    +0.000 N 
ATOM      4  C   UNL     1       6.650   4.523  14.275  0.00  0.00    +0.000 A 
ATOM      5  N   UNL     1       7.405   5.361  14.942  0.00  0.00    +0.000 NA
ATOM      6  N   UNL     1       6.638   5.923  15.930  0.00  0.00    +0.000 NA
ATOM      7  C   UNL     1       5.438   5.370  15.901  0.00  0.00    +0.000 A 
ATOM      8  N   UNL     1       5.392   4.513  14.826  0.00  0.00    +0.000 N 
ATOM      9  H   UNL     1       8.068   3.747  13.063  0.00  0.00    +0.000 HD
ATOM     10  H   UNL     1       4.646   3.898  14.553  0.00  0.00    +0.000 HD
ENDROOT
BRANCH   7  11
ATOM     11  C   UNL     1       4.377   5.569  16.896  0.00  0.00    +0.000 A 
ATOM     12  C   UNL     1       3.642   4.515  17.432  0.00  0.00    +0.000 A 
ATOM     13  C   UNL     1       2.692   4.805  18.403  0.00  0.00    +0.000 A 
ATOM     14  N   UNL     1       2.435   6.050  18.862  0.00  0.00    +0.000 NA
ATOM     15  C   UNL     1       3.152   7.055  18.320  0.00  0.00    +0.000 A 
ATOM     16  C   UNL     1       4.115   6.865  17.344  0.00  0.00    +0.000 A 
ENDBRANCH   7  11
BRANCH   1  18
ATOM     17  C   UNL     1       6.205   0.999  11.092  0.00  0.00    +0.000 C 
ATOM     18  C   UNL     1       6.893   2.335  11.290  0.00  0.00    +0.000 C 
ENDBRANCH   1  18
TORSDOF 2
ENDMDL
MODEL 5
REMARK VINA RESULT:      -6.6      3.141      4.077
REMARK  Name = 
REMARK  3 active torsions:
REMARK  status: ('A' for Active; 'I' for Inactive)
REMARK    1  A    between atoms: C_1  and  C_2
REMARK    2  A    between atoms: C_2  and  C_3
REMARK    3  A    between atoms: C_9  and  C_10
REMARK                            x       y       z     vdW  Elec       q    Type
REMARK                         _______ _______ _______ _____ _____    ______ ____
ROOT
ATOM      1  C   UNL     1       7.883   7.922  17.930  0.00  0.00    +0.000 C 
ATOM      2  O   UNL     1       8.066   7.099  18.830  0.00  0.00    +0.000 OA
ATOM      3  N   UNL     1       7.028   7.734  16.871  0.00  0.00    +0.000 N 
ATOM      4  C   UNL     1       6.288   6.592  16.728  0.00  0.00    +0.000 A 
ATOM      5  N   UNL     1       5.780   6.157  15.601  0.00  0.00    +0.000 NA
ATOM      6  N   UNL     1       5.064   5.020  15.874  0.00  0.00    +0.000 NA
ATOM      7  C   UNL     1       5.084   4.810  17.179  0.00  0.00    +0.000 A 
ATOM      8  N   UNL     1       5.899   5.761  17.748  0.00  0.00    +0.000 N 
ATOM      9  H   UNL     1       7.089   8.317  16.044  0.00  0.00    +0.000 HD
ATOM     10  H   UNL     1       6.085   5.916  18.724  0.00  0.00    +0.000 HD
ENDROOT
BRANCH   7  11
ATOM     11  C   UNL     1       4.301   3.798  17.898  0.00  0.00    +0.000 A 
ATOM     12  C   UNL     1       4.687   3.287  19.134  0.00  0.00    +0.000 A 
ATOM     13  C   UNL     1       3.851   2.367  19.754  0.00  0.00    +0.000 A 
ATOM     14  N   UNL     1       2.681   1.936  19.232  0.00  0.00    +0.000 NA
ATOM     15  C   UNL     1       2.334   2.438  18.029  0.00  0.00    +0.000 A 
ATOM     16  C   UNL     1       3.105   3.353  17.333  0.00  0.00    +0.000 A 
ENDBRANCH   7  11
BRANCH   1  18
ATOM     17  C   UNL     1       9.065   9.730  19.253  0.00  0.00    +0.000 C 
ATOM     18  C   UNL     1       8.557   9.283  17.896  0.00  0.00    +0.000 C 
ENDBRANCH   1  18
TORSDOF 2
ENDMDL
MODEL 6
REMARK VINA RESULT:      -6.4      1.769      6.462
REMARK  Name = 
REMARK  3 active torsions:
REMARK  status: ('A' for Active; 'I' for Inactive)
REMARK    1  A    between atoms: C_1  and  C_2
REMARK    2  A    between atoms: C_2  and  C_3
REMARK    3  A    between atoms: C_9  and  C_10
REMARK                            x       y       z     vdW  Elec       q    Type
REMARK                         _______ _______ _______ _____ _____    ______ ____
ROOT
ATOM      1  C   UNL     1       3.483   3.940  19.161  0.00  0.00    +0.000 C 
ATOM      2  O   UNL     1       3.102   3.281  18.192  0.00  0.00    +0.000 OA
ATOM      3  N   UNL     1       4.710   4.551  19.247  0.00  0.00    +0.000 N 
ATOM      4  C   UNL     1       5.630   4.480  18.236  0.00  0.00    +0.000 A 
ATOM      5  N   UNL     1       6.920   4.667  18.373  0.00  0.00    +0.000 NA
ATOM      6  N   UNL     1       7.494   4.567  17.131  0.00  0.00    +0.000 NA
ATOM      7  C   UNL     1       6.537   4.388  16.237  0.00  0.00    +0.000 A 
ATOM      8  N   UNL     1       5.343   4.274  16.910  0.00  0.00    +0.000 N 
ATOM      9  H   UNL     1       5.071   4.870  20.138  0.00  0.00    +0.000 HD
ATOM     10  H   UNL     1       4.419   4.185  16.525  0.00  0.00    +0.000 HD
ENDROOT
BRANCH   7  11
ATOM     11  C   UNL     1       6.712   4.402  14.779  0.00  0.00    +0.000 A 
ATOM     12  C   UNL     1       7.653   5.205  14.142  0.00  0.00    +0.000 A 
ATOM     13  C   UNL     1       7.771   5.108  12.761  0.00  0.00    +0.000 A 
ATOM     14  N   UNL     1       7.027   4.279  11.995  0.00  0.00    +0.000 NA
ATOM     15  C   UNL     1       6.116   3.519  12.634  0.00  0.00    +0.000 A 
ATOM     16  C   UNL     1       5.921   3.551  14.004  0.00  0.00    +0.000 A 
ENDBRANCH   7  11
BRANCH   1  18
ATOM     17  C   UNL     1       1.330   3.403  20.383  0.00  0.00    +0.000 C 
ATOM     18  C   UNL     1       2.620   4.200  20.385  0.00  0.00    +0.000 C 
ENDBRANCH   1  18
TORSDOF 2
ENDMDL
MODEL 7
REMARK VINA RESULT:      -6.3      3.133      3.952
REMARK  Name = 
REMARK  3 active torsions:
REMARK  status: ('A' for Active; 'I' for Inactive)
REMARK    1  A    between atoms: C_1  and  C_2
REMARK    2  A    between atoms: C_2  and  C_3
REMARK    3  A    between atoms: C_9  and  C_10
REMARK                            x       y       z     vdW  Elec       q    Type
REMARK                         _______ _______ _______ _____ _____    ______ ____
ROOT
ATOM      1  C   UNL     1       6.251   5.418  15.795  0.00  0.00    +0.000 C 
ATOM      2  O   UNL     1       6.543   6.526  16.252  0.00  0.00    +0.000 OA
ATOM      3  N   UNL     1       5.139   4.699  16.161  0.00  0.00    +0.000 N 
ATOM      4  C   UNL     1       4.241   5.166  17.081  0.00  0.00    +0.000 A 
ATOM      5  N   UNL     1       3.412   4.424  17.772  0.00  0.00    +0.000 NA
ATOM      6  N   UNL     1       2.642   5.258  18.542  0.00  0.00    +0.000 NA
ATOM      7  C   UNL     1       2.962   6.509  18.260  0.00  0.00    +0.000 A 
ATOM      8  N   UNL     1       4.014   6.488  17.374  0.00  0.00    +0.000 N 
ATOM      9  H   UNL     1       5.067   3.711  15.949  0.00  0.00    +0.000 HD
ATOM     10  H   UNL     1       4.460   7.266  16.920  0.00  0.00    +0.000 HD
ENDROOT
BRANCH   7  11
ATOM     11  C   UNL     1       2.258   7.705  18.739  0.00  0.00    +0.000 A 
ATOM     12  C   UNL     1       1.927   8.768  17.904  0.00  0.00    +0.000 A 
ATOM     13  C   UNL     1       1.218   9.832  18.446  0.00  0.00    +0.000 A 
ATOM     14  N   UNL     1       0.827   9.900  19.738  0.00  0.00    +0.000 NA
ATOM     15  C   UNL     1       1.167   8.863  20.529  0.00  0.00    +0.000 A 
ATOM     16  C   UNL     1       1.878   7.763  20.081  0.00  0.00    +0.000 A 
ENDBRANCH   7  11
BRANCH   1  18
ATOM     17  C   UNL     1       6.221   3.930  13.746  0.00  0.00    +0.000 C 
ATOM     18  C   UNL     1       7.071   4.715  14.726  0.00  0.00    +0.000 C 
ENDBRANCH   1  18
TORSDOF 2
ENDMDL
MODEL 8
REMARK VINA RESULT:      -6.3      1.793      1.996
REMARK  Name = 
REMARK  3 active torsions:
REMARK  status: ('A' for Active; 'I' for Inactive)
REMARK    1  A    between atoms: C_1  and  C_2
REMARK    2  A    between atoms: C_2  and  C_3
REMARK    3  A    between atoms: C_9  and  C_10
REMARK                            x       y       z     vdW  Elec       q    Type
REMARK                         _______ _______ _______ _____ _____    ______ ____
ROOT
ATOM      1  C   UNL     1       6.090   4.804  14.476  0.00  0.00    +0.000 C 
ATOM      2  O   UNL     1       5.227   3.929  14.377  0.00  0.00    +0.000 OA
ATOM      3  N   UNL     1       6.074   5.802  15.420  0.00  0.00    +0.000 N 
ATOM      4  C   UNL     1       5.078   5.907  16.351  0.00  0.00    +0.000 A 
ATOM      5  N   UNL     1       4.761   7.001  17.000  0.00  0.00    +0.000 NA
ATOM      6  N   UNL     1       3.755   6.692  17.879  0.00  0.00    +0.000 NA
ATOM      7  C   UNL     1       3.514   5.394  17.808  0.00  0.00    +0.000 A 
ATOM      8  N   UNL     1       4.300   4.872  16.807  0.00  0.00    +0.000 N 
ATOM      9  H   UNL     1       6.658   6.624  15.316  0.00  0.00    +0.000 HD
ATOM     10  H   UNL     1       4.398   3.910  16.532  0.00  0.00    +0.000 HD
ENDROOT
BRANCH   7  11
ATOM     11  C   UNL     1       2.632   4.634  18.701  0.00  0.00    +0.000 A 
ATOM     12  C   UNL     1       1.744   3.667  18.238  0.00  0.00    +0.000 A 
ATOM     13  C   UNL     1       0.987   2.970  19.171  0.00  0.00    +0.000 A 
ATOM     14  N   UNL     1       1.059   3.172  20.505  0.00  0.00    +0.000 NA
ATOM     15  C   UNL     1       1.918   4.120  20.929  0.00  0.00    +0.000 A 
ATOM     16  C   UNL     1       2.709   4.870  20.075  0.00  0.00    +0.000 A 
ENDBRANCH   7  11
BRANCH   1  18
ATOM     17  C   UNL     1       7.111   4.207  12.236  0.00  0.00    +0.000 C 
ATOM     18  C   UNL     1       7.319   4.869  13.585  0.00  0.00    +0.000 C 
ENDBRANCH   1  18
TORSDOF 2
ENDMDL
MODEL 9
REMARK VINA RESULT:      -6.3      3.152      3.907
REMARK  Name = 
REMARK  3 active torsions:
REMARK  status: ('A' for Active; 'I' for Inactive)
REMARK    1  A    between atoms: C_1  and  C_2
REMARK    2  A    between atoms: C_2  and  C_3
REMARK    3  A    between atoms: C_9  and  C_10
REMARK                            x       y       z     vdW  Elec       q    Type
REMARK                         _______ _______ _______ _____ _____    ______ ____
ROOT
ATOM      1  C   UNL     1       6.205   5.440  15.828  0.00  0.00    +0.000 C 
ATOM      2  O   UNL     1       6.489   6.545  16.293  0.00  0.00    +0.000 OA
ATOM      3  N   UNL     1       5.101   4.707  16.192  0.00  0.00    +0.000 N 
ATOM      4  C   UNL     1       4.202   5.158  17.119  0.00  0.00    +0.000 A 
ATOM      5  N   UNL     1       3.382   4.402  17.807  0.00  0.00    +0.000 NA
ATOM      6  N   UNL     1       2.608   5.223  18.588  0.00  0.00    +0.000 NA
ATOM      7  C   UNL     1       2.916   6.480  18.316  0.00  0.00    +0.000 A 
ATOM      8  N   UNL     1       3.965   6.475  17.425  0.00  0.00    +0.000 N 
ATOM      9  H   UNL     1       5.036   3.720  15.971  0.00  0.00    +0.000 HD
ATOM     10  H   UNL     1       4.402   7.261  16.976  0.00  0.00    +0.000 HD
ENDROOT
BRANCH   7  11
ATOM     11  C   UNL     1       2.204   7.665  18.808  0.00  0.00    +0.000 A 
ATOM     12  C   UNL     1       1.801   7.803  20.133  0.00  0.00    +0.000 A 
ATOM     13  C   UNL     1       1.175   8.985  20.509  0.00  0.00    +0.000 A 
ATOM     14  N   UNL     1       0.933  10.013  19.666  0.00  0.00    +0.000 NA
ATOM     15  C   UNL     1       1.323   9.852  18.386  0.00  0.00    +0.000 A 
ATOM     16  C   UNL     1       1.948   8.708  17.917  0.00  0.00    +0.000 A 
ENDBRANCH   7  11
BRANCH   1  18
ATOM     17  C   UNL     1       6.185   3.915  13.805  0.00  0.00    +0.000 C 
ATOM     18  C   UNL     1       7.026   4.753  14.749  0.00  0.00    +0.000 C 
ENDBRANCH   1  18
TORSDOF 2
ENDMDL
