MODEL 1
REMARK VINA RESULT:      -7.8      0.000      0.000
REMARK  Name = 
REMARK  4 active torsions:
REMARK  status: ('A' for Active; 'I' for Inactive)
REMARK    1  A    between atoms: C_1  and  O_2
REMARK    2  A    between atoms: O_2  and  C_3
REMARK    3  A    between atoms: C_6  and  C_7
REMARK    4  A    between atoms: C_15  and  C_16
REMARK                            x       y       z     vdW  Elec       q    Type
REMARK                         _______ _______ _______ _____ _____    ______ ____
ROOT
ATOM      1  C   UNL     1       3.668   6.662  17.575  0.00  0.00    +0.000 A 
ATOM      2  C   UNL     1       4.204   7.581  16.748  0.00  0.00    +0.000 A 
ATOM      3  C   UNL     1       5.141   7.128  15.706  0.00  0.00    +0.000 A 
ATOM      4  N   UNL     1       5.530   5.908  15.508  0.00  0.00    +0.000 NA
ATOM      5  N   UNL     1       4.964   5.023  16.392  0.00  0.00    +0.000 N 
ATOM      6  C   UNL     1       5.220   3.660  16.413  0.00  0.00    +0.000 A 
ATOM      7  N   UNL     1       6.083   3.090  15.545  0.00  0.00    +0.000 N 
ATOM      8  N   UNL     1       4.517   3.055  17.330  0.00  0.00    +0.000 NA
ATOM      9  C   UNL     1       3.763   4.040  17.939  0.00  0.00    +0.000 A 
ATOM     10  C   UNL     1       4.038   5.293  17.394  0.00  0.00    +0.000 A 
ATOM     11  H   UNL     1       6.340   3.620  14.717  0.00  0.00    +0.000 HD
ATOM     12  H   UNL     1       5.995   2.090  15.408  0.00  0.00    +0.000 HD
ENDROOT
BRANCH   1  16
ATOM     13  C   UNL     1       1.053   8.386  20.509  0.00  0.00    +0.000 A 
ATOM     14  C   UNL     1       1.206   8.982  19.258  0.00  0.00    +0.000 A 
ATOM     15  C   UNL     1       2.064   8.427  18.307  0.00  0.00    +0.000 A 
ATOM     16  C   UNL     1       2.747   7.236  18.577  0.00  0.00    +0.000 A 
ATOM     17  C   UNL     1       2.597   6.640  19.835  0.00  0.00    +0.000 A 
ATOM     18  C   UNL     1       1.762   7.218  20.800  0.00  0.00    +0.000 A 
BRANCH  13  20
ATOM     19  C   UNL     1       0.736   9.334  22.662  0.00  0.00    +0.000 C 
ATOM     20  O   UNL     1       0.225   9.059  21.364  0.00  0.00    +0.000 OA
ENDBRANCH  13  20
ENDBRANCH   1  16
BRANCH   9  21
ATOM     21  C   UNL     1       2.835   3.685  19.003  0.00  0.00    +0.000 A 
ATOM     22  C   UNL     1       3.321   3.304  20.260  0.00  0.00    +0.000 A 
ATOM     23  C   UNL     1       2.443   2.940  21.288  0.00  0.00    +0.000 A 
ATOM     24  C   UNL     1       1.066   2.981  21.075  0.00  0.00    +0.000 A 
ATOM     25  C   UNL     1       0.571   3.329  19.826  0.00  0.00    +0.000 A 
ATOM     26  C   UNL     1       1.458   3.630  18.789  0.00  0.00    +0.000 A 
ENDBRANCH   9  21
TORSDOF 3
ENDMDL
MODEL 2
REMARK VINA RESULT:      -7.7      2.115      4.677
REMARK  Name = 
REMARK  4 active torsions:
REMARK  status: ('A' for Active; 'I' for Inactive)
REMARK    1  A    between atoms: C_1  and  O_2
REMARK    2  A    between atoms: O_2  and  C_3
REMARK    3  A    between atoms: C_6  and  C_7
REMARK    4  A    between atoms: C_15  and  C_16
REMARK                            x       y       z     vdW  Elec       q    Type
REMARK                         _______ _______ _______ _____ _____    ______ ____
ROOT
ATOM      1  C   UNL     1       2.490   5.082  20.015  0.00  0.00    +0.000 A 
ATOM      2  C   UNL     1       1.492   4.646  20.808  0.00  0.00    +0.000 A 
ATOM      3  C   UNL     1       1.588   3.293  21.380  0.00  0.00    +0.000 A 
ATOM      4  N   UNL     1       2.548   2.446  21.179  0.00  0.00    +0.000 NA
ATOM      5  N   UNL     1       3.523   2.940  20.350  0.00  0.00    +0.000 N 
ATOM      6  C   UNL     1       4.653   2.236  19.957  0.00  0.00    +0.000 A 
ATOM      7  N   UNL     1       4.872   0.969  20.367  0.00  0.00    +0.000 N 
ATOM      8  N   UNL     1       5.429   2.962  19.201  0.00  0.00    +0.000 NA
ATOM      9  C   UNL     1       4.805   4.189  19.086  0.00  0.00    +0.000 A 
ATOM     10  C   UNL     1       3.592   4.203  19.772  0.00  0.00    +0.000 A 
ATOM     11  H   UNL     1       4.343   0.632  21.165  0.00  0.00    +0.000 HD
ATOM     12  H   UNL     1       5.826   0.632  20.306  0.00  0.00    +0.000 HD
ENDROOT
BRANCH   1  16
ATOM     13  C   UNL     1       1.799   9.045  18.519  0.00  0.00    +0.000 A 
ATOM     14  C   UNL     1       1.655   8.764  19.878  0.00  0.00    +0.000 A 
ATOM     15  C   UNL     1       1.871   7.473  20.363  0.00  0.00    +0.000 A 
ATOM     16  C   UNL     1       2.282   6.450  19.500  0.00  0.00    +0.000 A 
ATOM     17  C   UNL     1       2.420   6.731  18.135  0.00  0.00    +0.000 A 
ATOM     18  C   UNL     1       2.170   8.020  17.646  0.00  0.00    +0.000 A 
BRANCH  13  20
ATOM     19  C   UNL     1       0.992  11.172  19.196  0.00  0.00    +0.000 C 
ATOM     20  O   UNL     1       1.507  10.335  18.169  0.00  0.00    +0.000 OA
ENDBRANCH  13  20
ENDBRANCH   1  16
BRANCH   9  21
ATOM     21  C   UNL     1       5.437   5.252  18.317  0.00  0.00    +0.000 A 
ATOM     22  C   UNL     1       4.954   5.580  17.044  0.00  0.00    +0.000 A 
ATOM     23  C   UNL     1       5.563   6.585  16.283  0.00  0.00    +0.000 A 
ATOM     24  C   UNL     1       6.647   7.291  16.802  0.00  0.00    +0.000 A 
ATOM     25  C   UNL     1       7.154   6.958  18.050  0.00  0.00    +0.000 A 
ATOM     26  C   UNL     1       6.578   5.911  18.775  0.00  0.00    +0.000 A 
ENDBRANCH   9  21
TORSDOF 3
ENDMDL
MODEL 3
REMARK VINA RESULT:      -7.5      0.168      1.399
REMARK  Name = 
REMARK  4 active torsions:
REMARK  status: ('A' for Active; 'I' for Inactive)
REMARK    1  A    between atoms: C_1  and  O_2
REMARK    2  A    between atoms: O_2  and  C_3
REMARK    3  A    between atoms: C_6  and  C_7
REMARK    4  A    between atoms: C_15  and  C_16
REMARK                            x       y       z     vdW  Elec       q    Type
REMARK                         _______ _______ _______ _____ _____    ______ ____
ROOT
ATOM      1  C   UNL     1       3.683   6.635  17.663  0.00  0.00    +0.000 A 
ATOM      2  C   UNL     1       4.209   7.573  16.851  0.00  0.00    +0.000 A 
ATOM      3  C   UNL     1       5.119   7.143  15.777  0.00  0.00    +0.000 A 
ATOM      4  N   UNL     1       5.494   5.926  15.535  0.00  0.00    +0.000 NA
ATOM      5  N   UNL     1       4.940   5.020  16.405  0.00  0.00    +0.000 N 
ATOM      6  C   UNL     1       5.184   3.655  16.380  0.00  0.00    +0.000 A 
ATOM      7  N   UNL     1       6.024   3.105  15.478  0.00  0.00    +0.000 N 
ATOM      8  N   UNL     1       4.495   3.030  17.294  0.00  0.00    +0.000 NA
ATOM      9  C   UNL     1       3.764   4.002  17.948  0.00  0.00    +0.000 A 
ATOM     10  C   UNL     1       4.038   5.268  17.434  0.00  0.00    +0.000 A 
ATOM     11  H   UNL     1       6.267   3.656  14.660  0.00  0.00    +0.000 HD
ATOM     12  H   UNL     1       5.924   2.109  15.314  0.00  0.00    +0.000 HD
ENDROOT
BRANCH   1  16
ATOM     13  C   UNL     1       1.023   8.180  20.655  0.00  0.00    +0.000 A 
ATOM     14  C   UNL     1       1.743   7.008  20.883  0.00  0.00    +0.000 A 
ATOM     15  C   UNL     1       2.601   6.501  19.907  0.00  0.00    +0.000 A 
ATOM     16  C   UNL     1       2.789   7.186  18.701  0.00  0.00    +0.000 A 
ATOM     17  C   UNL     1       2.060   8.359  18.469  0.00  0.00    +0.000 A 
ATOM     18  C   UNL     1       1.174   8.848  19.438  0.00  0.00    +0.000 A 
BRANCH  13  20
ATOM     19  C   UNL     1       0.700   9.436  22.643  0.00  0.00    +0.000 C 
ATOM     20  O   UNL     1       0.180   8.539  21.671  0.00  0.00    +0.000 OA
ENDBRANCH  13  20
ENDBRANCH   1  16
BRANCH   9  21
ATOM     21  C   UNL     1       2.855   3.624  19.021  0.00  0.00    +0.000 A 
ATOM     22  C   UNL     1       1.471   3.654  18.811  0.00  0.00    +0.000 A 
ATOM     23  C   UNL     1       0.583   3.312  19.839  0.00  0.00    +0.000 A 
ATOM     24  C   UNL     1       1.074   2.912  21.080  0.00  0.00    +0.000 A 
ATOM     25  C   UNL     1       2.443   2.905  21.311  0.00  0.00    +0.000 A 
ATOM     26  C   UNL     1       3.318   3.307  20.298  0.00  0.00    +0.000 A 
ENDBRANCH   9  21
TORSDOF 3
ENDMDL
MODEL 4
REMARK VINA RESULT:      -7.5      2.068      4.638
REMARK  Name = 
REMARK  4 active torsions:
REMARK  status: ('A' for Active; 'I' for Inactive)
REMARK    1  A    between atoms: C_1  and  O_2
REMARK    2  A    between atoms: O_2  and  C_3
REMARK    3  A    between atoms: C_6  and  C_7
REMARK    4  A    between atoms: C_15  and  C_16
REMARK                            x       y       z     vdW  Elec       q    Type
REMARK                         _______ _______ _______ _____ _____    ______ ____
ROOT
ATOM      1  C   UNL     1       2.613   4.999  20.178  0.00  0.00    +0.000 A 
ATOM      2  C   UNL     1       1.785   4.620  21.172  0.00  0.00    +0.000 A 
ATOM      3  C   UNL     1       2.004   3.311  21.809  0.00  0.00    +0.000 A 
ATOM      4  N   UNL     1       2.922   2.453  21.493  0.00  0.00    +0.000 NA
ATOM      5  N   UNL     1       3.720   2.887  20.464  0.00  0.00    +0.000 N 
ATOM      6  C   UNL     1       4.767   2.159  19.919  0.00  0.00    +0.000 A 
ATOM      7  N   UNL     1       5.077   0.924  20.368  0.00  0.00    +0.000 N 
ATOM      8  N   UNL     1       5.380   2.829  18.983  0.00  0.00    +0.000 NA
ATOM      9  C   UNL     1       4.728   4.044  18.901  0.00  0.00    +0.000 A 
ATOM     10  C   UNL     1       3.663   4.106  19.797  0.00  0.00    +0.000 A 
ATOM     11  H   UNL     1       4.709   0.643  21.273  0.00  0.00    +0.000 HD
ATOM     12  H   UNL     1       6.007   0.584  20.156  0.00  0.00    +0.000 HD
ENDROOT
BRANCH   1  16
ATOM     13  C   UNL     1       1.769   8.878  18.549  0.00  0.00    +0.000 A 
ATOM     14  C   UNL     1       2.194   7.839  17.722  0.00  0.00    +0.000 A 
ATOM     15  C   UNL     1       2.477   6.579  18.253  0.00  0.00    +0.000 A 
ATOM     16  C   UNL     1       2.293   6.327  19.618  0.00  0.00    +0.000 A 
ATOM     17  C   UNL     1       1.872   7.373  20.448  0.00  0.00    +0.000 A 
ATOM     18  C   UNL     1       1.621   8.645  19.917  0.00  0.00    +0.000 A 
BRANCH  13  20
ATOM     19  C   UNL     1       1.144  11.162  18.714  0.00  0.00    +0.000 C 
ATOM     20  O   UNL     1       1.576  10.072  17.910  0.00  0.00    +0.000 OA
ENDBRANCH  13  20
ENDBRANCH   1  16
BRANCH   9  21
ATOM     21  C   UNL     1       5.192   5.050  17.956  0.00  0.00    +0.000 A 
ATOM     22  C   UNL     1       4.810   4.978  16.610  0.00  0.00    +0.000 A 
ATOM     23  C   UNL     1       5.263   5.926  15.685  0.00  0.00    +0.000 A 
ATOM     24  C   UNL     1       6.084   6.971  16.104  0.00  0.00    +0.000 A 
ATOM     25  C   UNL     1       6.494   7.039  17.428  0.00  0.00    +0.000 A 
ATOM     26  C   UNL     1       6.086   6.053  18.331  0.00  0.00    +0.000 A 
ENDBRANCH   9  21
TORSDOF 3
ENDMDL
MODEL 5
REMARK VINA RESULT:      -7.3      1.805      4.414
REMARK  Name = 
REMARK  4 active torsions:
REMARK  status: ('A' for Active; 'I' for Inactive)
REMARK    1  A    between atoms: C_1  and  O_2
REMARK    2  A    between atoms: O_2  and  C_3
REMARK    3  A    between atoms: C_6  and  C_7
REMARK    4  A    between atoms: C_15  and  C_16
REMARK                            x       y       z     vdW  Elec       q    Type
REMARK                         _______ _______ _______ _____ _____    ______ ____
ROOT
ATOM      1  C   UNL     1       2.113   4.818  19.564  0.00  0.00    +0.000 A 
ATOM      2  C   UNL     1       1.154   4.376  20.401  0.00  0.00    +0.000 A 
ATOM      3  C   UNL     1       1.107   2.939  20.720  0.00  0.00    +0.000 A 
ATOM      4  N   UNL     1       1.900   2.028  20.251  0.00  0.00    +0.000 NA
ATOM      5  N   UNL     1       2.841   2.537  19.392  0.00  0.00    +0.000 N 
ATOM      6  C   UNL     1       3.801   1.778  18.738  0.00  0.00    +0.000 A 
ATOM      7  N   UNL     1       3.872   0.440  18.896  0.00  0.00    +0.000 N 
ATOM      8  N   UNL     1       4.590   2.525  18.015  0.00  0.00    +0.000 NA
ATOM      9  C   UNL     1       4.149   3.822  18.193  0.00  0.00    +0.000 A 
ATOM     10  C   UNL     1       3.036   3.865  19.030  0.00  0.00    +0.000 A 
ATOM     11  H   UNL     1       3.389   0.031  19.691  0.00  0.00    +0.000 HD
ATOM     12  H   UNL     1       4.751  -0.001  18.651  0.00  0.00    +0.000 HD
ENDROOT
BRANCH   1  16
ATOM     13  C   UNL     1       1.865   9.043  18.850  0.00  0.00    +0.000 A 
ATOM     14  C   UNL     1       1.682   8.528  20.133  0.00  0.00    +0.000 A 
ATOM     15  C   UNL     1       1.753   7.154  20.364  0.00  0.00    +0.000 A 
ATOM     16  C   UNL     1       2.057   6.274  19.319  0.00  0.00    +0.000 A 
ATOM     17  C   UNL     1       2.235   6.790  18.029  0.00  0.00    +0.000 A 
ATOM     18  C   UNL     1       2.128   8.167  17.795  0.00  0.00    +0.000 A 
BRANCH  13  20
ATOM     19  C   UNL     1       0.433  10.924  19.063  0.00  0.00    +0.000 C 
ATOM     20  O   UNL     1       1.717  10.399  18.753  0.00  0.00    +0.000 OA
ENDBRANCH  13  20
ENDBRANCH   1  16
BRANCH   9  21
ATOM     21  C   UNL     1       4.845   4.919  17.535  0.00  0.00    +0.000 A 
ATOM     22  C   UNL     1       5.618   5.811  18.288  0.00  0.00    +0.000 A 
ATOM     23  C   UNL     1       6.278   6.883  17.673  0.00  0.00    +0.000 A 
ATOM     24  C   UNL     1       6.191   7.055  16.293  0.00  0.00    +0.000 A 
ATOM     25  C   UNL     1       5.406   6.195  15.538  0.00  0.00    +0.000 A 
ATOM     26  C   UNL     1       4.702   5.166  16.170  0.00  0.00    +0.000 A 
ENDBRANCH   9  21
TORSDOF 3
ENDMDL
MODEL 6
REMARK VINA RESULT:      -7.1      1.851      4.380
REMARK  Name = 
REMARK  4 active torsions:
REMARK  status: ('A' for Active; 'I' for Inactive)
REMARK    1  A    between atoms: C_1  and  O_2
REMARK    2  A    between atoms: O_2  and  C_3
REMARK    3  A    between atoms: C_6  and  C_7
REMARK    4  A    between atoms: C_15  and  C_16
REMARK                            x       y       z     vdW  Elec       q    Type
REMARK                         _______ _______ _______ _____ _____    ______ ____
ROOT
ATOM      1  C   UNL     1       2.069   4.797  19.432  0.00  0.00    +0.000 A 
ATOM      2  C   UNL     1       1.080   4.337  20.222  0.00  0.00    +0.000 A 
ATOM      3  C   UNL     1       1.035   2.897  20.528  0.00  0.00    +0.000 A 
ATOM      4  N   UNL     1       1.858   1.998  20.089  0.00  0.00    +0.000 NA
ATOM      5  N   UNL     1       2.831   2.524  19.276  0.00  0.00    +0.000 N 
ATOM      6  C   UNL     1       3.827   1.782  18.659  0.00  0.00    +0.000 A 
ATOM      7  N   UNL     1       3.906   0.443  18.809  0.00  0.00    +0.000 N 
ATOM      8  N   UNL     1       4.638   2.543  17.978  0.00  0.00    +0.000 NA
ATOM      9  C   UNL     1       4.175   3.834  18.145  0.00  0.00    +0.000 A 
ATOM     10  C   UNL     1       3.026   3.858  18.933  0.00  0.00    +0.000 A 
ATOM     11  H   UNL     1       3.393   0.023  19.580  0.00  0.00    +0.000 HD
ATOM     12  H   UNL     1       4.800   0.014  18.601  0.00  0.00    +0.000 HD
ENDROOT
BRANCH   1  16
ATOM     13  C   UNL     1       1.978   9.032  18.746  0.00  0.00    +0.000 A 
ATOM     14  C   UNL     1       2.195   8.147  17.690  0.00  0.00    +0.000 A 
ATOM     15  C   UNL     1       2.234   6.770  17.915  0.00  0.00    +0.000 A 
ATOM     16  C   UNL     1       2.008   6.253  19.196  0.00  0.00    +0.000 A 
ATOM     17  C   UNL     1       1.797   7.143  20.257  0.00  0.00    +0.000 A 
ATOM     18  C   UNL     1       1.793   8.526  20.034  0.00  0.00    +0.000 A 
BRANCH  13  20
ATOM     19  C   UNL     1       0.931  11.160  18.838  0.00  0.00    +0.000 C 
ATOM     20  O   UNL     1       2.016  10.355  18.399  0.00  0.00    +0.000 OA
ENDBRANCH  13  20
ENDBRANCH   1  16
BRANCH   9  21
ATOM     21  C   UNL     1       4.888   4.943  17.527  0.00  0.00    +0.000 A 
ATOM     22  C   UNL     1       5.695   5.780  18.307  0.00  0.00    +0.000 A 
ATOM     23  C   UNL     1       6.371   6.863  17.732  0.00  0.00    +0.000 A 
ATOM     24  C   UNL     1       6.265   7.103  16.363  0.00  0.00    +0.000 A 
ATOM     25  C   UNL     1       5.447   6.299  15.583  0.00  0.00    +0.000 A 
ATOM     26  C   UNL     1       4.728   5.258  16.178  0.00  0.00    +0.000 A 
ENDBRANCH   9  21
TORSDOF 3
ENDMDL
MODEL 7
REMARK VINA RESULT:      -6.9      3.126      5.747
REMARK  Name = 
REMARK  4 active torsions:
REMARK  status: ('A' for Active; 'I' for Inactive)
REMARK    1  A    between atoms: C_1  and  O_2
REMARK    2  A    between atoms: O_2  and  C_3
REMARK    3  A    between atoms: C_6  and  C_7
REMARK    4  A    between atoms: C_15  and  C_16
REMARK                            x       y       z     vdW  Elec       q    Type
REMARK                         _______ _______ _______ _____ _____    ______ ____
ROOT
ATOM      1  C   UNL     1       4.615   4.133  19.329  0.00  0.00    +0.000 A 
ATOM      2  C   UNL     1       5.238   2.947  19.472  0.00  0.00    +0.000 A 
ATOM      3  C   UNL     1       4.518   1.851  20.142  0.00  0.00    +0.000 A 
ATOM      4  N   UNL     1       3.324   1.914  20.640  0.00  0.00    +0.000 NA
ATOM      5  N   UNL     1       2.749   3.150  20.479  0.00  0.00    +0.000 N 
ATOM      6  C   UNL     1       1.484   3.495  20.933  0.00  0.00    +0.000 A 
ATOM      7  N   UNL     1       0.708   2.613  21.598  0.00  0.00    +0.000 N 
ATOM      8  N   UNL     1       1.178   4.720  20.608  0.00  0.00    +0.000 NA
ATOM      9  C   UNL     1       2.266   5.211  19.914  0.00  0.00    +0.000 A 
ATOM     10  C   UNL     1       3.283   4.261  19.836  0.00  0.00    +0.000 A 
ATOM     11  H   UNL     1       0.949   1.628  21.533  0.00  0.00    +0.000 HD
ATOM     12  H   UNL     1      -0.285   2.814  21.626  0.00  0.00    +0.000 HD
ENDROOT
BRANCH   1  16
ATOM     13  C   UNL     1       6.964   7.157  17.393  0.00  0.00    +0.000 A 
ATOM     14  C   UNL     1       7.365   6.624  18.618  0.00  0.00    +0.000 A 
ATOM     15  C   UNL     1       6.595   5.647  19.252  0.00  0.00    +0.000 A 
ATOM     16  C   UNL     1       5.435   5.152  18.646  0.00  0.00    +0.000 A 
ATOM     17  C   UNL     1       5.030   5.693  17.418  0.00  0.00    +0.000 A 
ATOM     18  C   UNL     1       5.786   6.698  16.801  0.00  0.00    +0.000 A 
BRANCH  13  20
ATOM     19  C   UNL     1       8.226   9.117  17.840  0.00  0.00    +0.000 C 
ATOM     20  O   UNL     1       7.779   8.143  16.907  0.00  0.00    +0.000 OA
ENDBRANCH  13  20
ENDBRANCH   1  16
BRANCH   9  21
ATOM     21  C   UNL     1       2.232   6.565  19.379  0.00  0.00    +0.000 A 
ATOM     22  C   UNL     1       1.917   7.642  20.217  0.00  0.00    +0.000 A 
ATOM     23  C   UNL     1       1.860   8.948  19.715  0.00  0.00    +0.000 A 
ATOM     24  C   UNL     1       2.143   9.191  18.372  0.00  0.00    +0.000 A 
ATOM     25  C   UNL     1       2.429   8.130  17.524  0.00  0.00    +0.000 A 
ATOM     26  C   UNL     1       2.422   6.824  18.022  0.00  0.00    +0.000 A 
ENDBRANCH   9  21
TORSDOF 3
ENDMDL
MODEL 8
REMARK VINA RESULT:      -6.8      3.634      5.632
REMARK  Name = 
REMARK  4 active torsions:
REMARK  status: ('A' for Active; 'I' for Inactive)
REMARK    1  A    between atoms: C_1  and  O_2
REMARK    2  A    between atoms: O_2  and  C_3
REMARK    3  A    between atoms: C_6  and  C_7
REMARK    4  A    between atoms: C_15  and  C_16
REMARK                            x       y       z     vdW  Elec       q    Type
REMARK                         _______ _______ _______ _____ _____    ______ ____
ROOT
ATOM      1  C   UNL     1       2.850   7.414  18.182  0.00  0.00    +0.000 A 
ATOM      2  C   UNL     1       2.876   8.599  17.541  0.00  0.00    +0.000 A 
ATOM      3  C   UNL     1       2.139   9.732  18.124  0.00  0.00    +0.000 A 
ATOM      4  N   UNL     1       1.432   9.704  19.209  0.00  0.00    +0.000 NA
ATOM      5  N   UNL     1       1.429   8.468  19.806  0.00  0.00    +0.000 N 
ATOM      6  C   UNL     1       0.739   8.158  20.969  0.00  0.00    +0.000 A 
ATOM      7  N   UNL     1      -0.014   9.077  21.610  0.00  0.00    +0.000 N 
ATOM      8  N   UNL     1       0.946   6.922  21.333  0.00  0.00    +0.000 NA
ATOM      9  C   UNL     1       1.803   6.390  20.389  0.00  0.00    +0.000 A 
ATOM     10  C   UNL     1       2.106   7.323  19.400  0.00  0.00    +0.000 A 
ATOM     11  H   UNL     1       0.138  10.055  21.382  0.00  0.00    +0.000 HD
ATOM     12  H   UNL     1      -0.230   8.888  22.582  0.00  0.00    +0.000 HD
ENDROOT
BRANCH   1  16
ATOM     13  C   UNL     1       5.068   4.368  16.127  0.00  0.00    +0.000 A 
ATOM     14  C   UNL     1       5.575   5.663  16.237  0.00  0.00    +0.000 A 
ATOM     15  C   UNL     1       4.849   6.656  16.897  0.00  0.00    +0.000 A 
ATOM     16  C   UNL     1       3.623   6.356  17.502  0.00  0.00    +0.000 A 
ATOM     17  C   UNL     1       3.112   5.058  17.386  0.00  0.00    +0.000 A 
ATOM     18  C   UNL     1       3.826   4.072  16.693  0.00  0.00    +0.000 A 
BRANCH  13  20
ATOM     19  C   UNL     1       6.258   3.939  14.120  0.00  0.00    +0.000 C 
ATOM     20  O   UNL     1       5.853   3.507  15.412  0.00  0.00    +0.000 OA
ENDBRANCH  13  20
ENDBRANCH   1  16
BRANCH   9  21
ATOM     21  C   UNL     1       2.260   5.013  20.523  0.00  0.00    +0.000 A 
ATOM     22  C   UNL     1       1.349   4.001  20.853  0.00  0.00    +0.000 A 
ATOM     23  C   UNL     1       1.775   2.676  21.006  0.00  0.00    +0.000 A 
ATOM     24  C   UNL     1       3.114   2.347  20.804  0.00  0.00    +0.000 A 
ATOM     25  C   UNL     1       4.032   3.344  20.504  0.00  0.00    +0.000 A 
ATOM     26  C   UNL     1       3.607   4.673  20.415  0.00  0.00    +0.000 A 
ENDBRANCH   9  21
TORSDOF 3
ENDMDL
MODEL 9
REMARK VINA RESULT:      -6.8      8.238     10.339
REMARK  Name = 
REMARK  4 active torsions:
REMARK  status: ('A' for Active; 'I' for Inactive)
REMARK    1  A    between atoms: C_1  and  O_2
REMARK    2  A    between atoms: O_2  and  C_3
REMARK    3  A    between atoms: C_6  and  C_7
REMARK    4  A    between atoms: C_15  and  C_16
REMARK                            x       y       z     vdW  Elec       q    Type
REMARK                         _______ _______ _______ _____ _____    ______ ____
ROOT
ATOM      1  C   UNL     1      -2.890  12.661  20.710  0.00  0.00    +0.000 A 
ATOM      2  C   UNL     1      -2.888  13.215  21.938  0.00  0.00    +0.000 A 
ATOM      3  C   UNL     1      -4.179  13.446  22.607  0.00  0.00    +0.000 A 
ATOM      4  N   UNL     1      -5.350  13.182  22.117  0.00  0.00    +0.000 NA
ATOM      5  N   UNL     1      -5.286  12.637  20.860  0.00  0.00    +0.000 N 
ATOM      6  C   UNL     1      -6.391  12.276  20.101  0.00  0.00    +0.000 A 
ATOM      7  N   UNL     1      -7.649  12.455  20.557  0.00  0.00    +0.000 N 
ATOM      8  N   UNL     1      -6.037  11.747  18.963  0.00  0.00    +0.000 NA
ATOM      9  C   UNL     1      -4.656  11.748  18.959  0.00  0.00    +0.000 A 
ATOM     10  C   UNL     1      -4.149  12.324  20.122  0.00  0.00    +0.000 A 
ATOM     11  H   UNL     1      -7.773  12.609  21.553  0.00  0.00    +0.000 HD
ATOM     12  H   UNL     1      -8.375  11.907  20.111  0.00  0.00    +0.000 HD
ENDROOT
BRANCH   1  16
ATOM     13  C   UNL     1       1.002  12.095  18.992  0.00  0.00    +0.000 A 
ATOM     14  C   UNL     1       0.156  13.098  18.518  0.00  0.00    +0.000 A 
ATOM     15  C   UNL     1      -1.113  13.276  19.070  0.00  0.00    +0.000 A 
ATOM     16  C   UNL     1      -1.539  12.482  20.141  0.00  0.00    +0.000 A 
ATOM     17  C   UNL     1      -0.691  11.471  20.613  0.00  0.00    +0.000 A 
ATOM     18  C   UNL     1       0.569  11.273  20.033  0.00  0.00    +0.000 A 
BRANCH  13  20
ATOM     19  C   UNL     1       2.941  13.195  18.176  0.00  0.00    +0.000 C 
ATOM     20  O   UNL     1       2.195  11.995  18.329  0.00  0.00    +0.000 OA
ENDBRANCH  13  20
ENDBRANCH   1  16
BRANCH   9  21
ATOM     21  C   UNL     1      -3.936  11.188  17.824  0.00  0.00    +0.000 A 
ATOM     22  C   UNL     1      -4.304  11.537  16.518  0.00  0.00    +0.000 A 
ATOM     23  C   UNL     1      -3.636  10.992  15.415  0.00  0.00    +0.000 A 
ATOM     24  C   UNL     1      -2.574  10.111  15.609  0.00  0.00    +0.000 A 
ATOM     25  C   UNL     1      -2.217   9.734  16.896  0.00  0.00    +0.000 A 
ATOM     26  C   UNL     1      -2.931  10.235  17.988  0.00  0.00    +0.000 A 
ENDBRANCH   9  21
TORSDOF 3
ENDMDL
