MODEL 1
REMARK VINA RESULT:      -6.7      0.000      0.000
REMARK  Name = 
REMARK  8 active torsions:
REMARK  status: ('A' for Active; 'I' for Inactive)
REMARK    1  A    between atoms: C_1  and  O_2
REMARK    2  A    between atoms: O_2  and  C_3
REMARK    3  A    between atoms: C_5  and  N_6
REMARK    4  A    between atoms: C_10  and  C_11
REMARK    5  A    between atoms: N_13  and  C_14
REMARK    6  A    between atoms: C_17  and  N_18
REMARK    7  A    between atoms: N_18  and  C_19
REMARK    8  A    between atoms: C_19  and  C_20
REMARK                            x       y       z     vdW  Elec       q    Type
REMARK                         _______ _______ _______ _____ _____    ______ ____
ROOT
ATOM      1  C   UNL     1       2.062   6.241  20.493  0.00  0.00    +0.000 C 
ATOM      2  O   UNL     1       1.424   5.279  20.896  0.00  0.00    +0.000 OA
ATOM      3  N   UNL     1       3.312   6.044  19.971  0.00  0.00    +0.000 N 
ATOM      4  H   UNL     1       3.872   6.844  19.671  0.00  0.00    +0.000 HD
ENDROOT
BRANCH   1  11
ATOM      5  C   UNL     1       1.392   8.445  19.396  0.00  0.00    +0.000 A 
ATOM      6  C   UNL     1       0.819   9.732  19.490  0.00  0.00    +0.000 A 
ATOM      7  C   UNL     1       0.288  10.208  20.692  0.00  0.00    +0.000 A 
ATOM      8  C   UNL     1       0.319   9.388  21.826  0.00  0.00    +0.000 A 
ATOM      9 CL   UNL     1      -0.326   9.923  23.375  0.00  0.00    +0.000 Cl
ATOM     10  C   UNL     1       0.878   8.111  21.753  0.00  0.00    +0.000 A 
ATOM     11  C   UNL     1       1.427   7.609  20.549  0.00  0.00    +0.000 A 
BRANCH   7  12
ATOM     12  N   UNL     1      -0.259  11.515  20.739  0.00  0.00    +0.000 N 
ATOM     13  H   UNL     1      -0.134  12.165  19.949  0.00  0.00    +0.000 HD
ATOM     14  H   UNL     1      -0.775  11.854  21.563  0.00  0.00    +0.000 HD
ENDBRANCH   7  12
BRANCH   5  16
ATOM     15  C   UNL     1       3.056   8.510  17.604  0.00  0.00    +0.000 C 
ATOM     16  O   UNL     1       1.928   8.007  18.222  0.00  0.00    +0.000 OA
ENDBRANCH   5  16
ENDBRANCH   1  11
BRANCH   3  17
ATOM     17  C   UNL     1       3.897   4.721  19.758  0.00  0.00    +0.000 C 
ATOM     18  C   UNL     1       3.156   3.990  18.609  0.00  0.00    +0.000 C 
ATOM     19  C   UNL     1       3.321   4.777  17.299  0.00  0.00    +0.000 C 
ATOM     20  C   UNL     1       4.815   4.846  16.895  0.00  0.00    +0.000 C 
ATOM     21  C   UNL     1       5.611   5.537  18.022  0.00  0.00    +0.000 C 
ATOM     22  C   UNL     1       5.404   4.844  19.391  0.00  0.00    +0.000 C 
BRANCH  20  23
ATOM     23  N   UNL     1       5.393   3.515  16.589  0.00  0.00    +0.000 NA
ATOM     24  H   UNL     1       4.674   2.762  16.615  0.00  0.00    +0.000 HD
BRANCH  23  25
ATOM     25  C   UNL     1       6.092   3.422  15.295  0.00  0.00    +0.000 C 
BRANCH  25  26
ATOM     26  C   UNL     1       5.529   4.427  14.257  0.00  0.00    +0.000 C 
ATOM     27  C   UNL     1       6.573   5.508  13.898  0.00  0.00    +0.000 C 
ATOM     28  C   UNL     1       7.772   4.893  13.153  0.00  0.00    +0.000 C 
ATOM     29  C   UNL     1       7.290   4.172  11.882  0.00  0.00    +0.000 C 
ATOM     30  C   UNL     1       6.234   3.101  12.202  0.00  0.00    +0.000 C 
ATOM     31  C   UNL     1       5.057   3.722  12.969  0.00  0.00    +0.000 C 
ENDBRANCH  25  26
ENDBRANCH  23  25
ENDBRANCH  20  23
ENDBRANCH   3  17
TORSDOF 7
ENDMDL
MODEL 2
REMARK VINA RESULT:      -6.4      5.143     11.990
REMARK  Name = 
REMARK  8 active torsions:
REMARK  status: ('A' for Active; 'I' for Inactive)
REMARK    1  A    between atoms: C_1  and  O_2
REMARK    2  A    between atoms: O_2  and  C_3
REMARK    3  A    between atoms: C_5  and  N_6
REMARK    4  A    between atoms: C_10  and  C_11
REMARK    5  A    between atoms: N_13  and  C_14
REMARK    6  A    between atoms: C_17  and  N_18
REMARK    7  A    between atoms: N_18  and  C_19
REMARK    8  A    between atoms: C_19  and  C_20
REMARK                            x       y       z     vdW  Elec       q    Type
REMARK                         _______ _______ _______ _____ _____    ______ ____
ROOT
ATOM      1  C   UNL     1      -0.304  11.126  19.500  0.00  0.00    +0.000 C 
ATOM      2  O   UNL     1      -0.865  11.321  18.431  0.00  0.00    +0.000 OA
ATOM      3  N   UNL     1      -0.431  12.049  20.502  0.00  0.00    +0.000 N 
ATOM      4  H   UNL     1       0.068  11.918  21.383  0.00  0.00    +0.000 HD
ENDROOT
BRANCH   1  11
ATOM      5  C   UNL     1       0.358   9.088  20.886  0.00  0.00    +0.000 A 
ATOM      6  C   UNL     1       1.125   7.914  21.043  0.00  0.00    +0.000 A 
ATOM      7  C   UNL     1       2.005   7.480  20.048  0.00  0.00    +0.000 A 
ATOM      8  C   UNL     1       2.123   8.222  18.867  0.00  0.00    +0.000 A 
ATOM      9 CL   UNL     1       3.216   7.739  17.573  0.00  0.00    +0.000 Cl
ATOM     10  C   UNL     1       1.370   9.384  18.691  0.00  0.00    +0.000 A 
ATOM     11  C   UNL     1       0.476   9.847  19.686  0.00  0.00    +0.000 A 
BRANCH   7  12
ATOM     12  N   UNL     1       2.768   6.304  20.262  0.00  0.00    +0.000 N 
ATOM     13  H   UNL     1       2.874   5.913  21.209  0.00  0.00    +0.000 HD
ATOM     14  H   UNL     1       3.248   5.824  19.488  0.00  0.00    +0.000 HD
ENDBRANCH   7  12
BRANCH   5  16
ATOM     15  C   UNL     1      -0.136   9.703  23.203  0.00  0.00    +0.000 C 
ATOM     16  O   UNL     1      -0.477   9.511  21.878  0.00  0.00    +0.000 OA
ENDBRANCH   5  16
ENDBRANCH   1  11
BRANCH   3  17
ATOM     17  C   UNL     1      -1.301  13.220  20.412  0.00  0.00    +0.000 C 
ATOM     18  C   UNL     1      -2.760  12.827  20.759  0.00  0.00    +0.000 C 
ATOM     19  C   UNL     1      -2.832  12.316  22.207  0.00  0.00    +0.000 C 
ATOM     20  C   UNL     1      -2.424  13.437  23.195  0.00  0.00    +0.000 C 
ATOM     21  C   UNL     1      -0.986  13.894  22.874  0.00  0.00    +0.000 C 
ATOM     22  C   UNL     1      -0.829  14.328  21.396  0.00  0.00    +0.000 C 
BRANCH  20  23
ATOM     23  N   UNL     1      -3.354  14.592  23.176  0.00  0.00    +0.000 NA
ATOM     24  H   UNL     1      -3.557  14.914  22.206  0.00  0.00    +0.000 HD
BRANCH  23  25
ATOM     25  C   UNL     1      -4.644  14.364  23.851  0.00  0.00    +0.000 C 
BRANCH  25  26
ATOM     26  C   UNL     1      -5.837  14.904  23.023  0.00  0.00    +0.000 C 
ATOM     27  C   UNL     1      -6.096  14.032  21.774  0.00  0.00    +0.000 C 
ATOM     28  C   UNL     1      -6.576  12.624  22.172  0.00  0.00    +0.000 C 
ATOM     29  C   UNL     1      -7.850  12.724  23.028  0.00  0.00    +0.000 C 
ATOM     30  C   UNL     1      -7.633  13.602  24.272  0.00  0.00    +0.000 C 
ATOM     31  C   UNL     1      -7.128  14.994  23.862  0.00  0.00    +0.000 C 
ENDBRANCH  25  26
ENDBRANCH  23  25
ENDBRANCH  20  23
ENDBRANCH   3  17
TORSDOF 7
ENDMDL
MODEL 3
REMARK VINA RESULT:      -6.3      3.687     10.337
REMARK  Name = 
REMARK  8 active torsions:
REMARK  status: ('A' for Active; 'I' for Inactive)
REMARK    1  A    between atoms: C_1  and  O_2
REMARK    2  A    between atoms: O_2  and  C_3
REMARK    3  A    between atoms: C_5  and  N_6
REMARK    4  A    between atoms: C_10  and  C_11
REMARK    5  A    between atoms: N_13  and  C_14
REMARK    6  A    between atoms: C_17  and  N_18
REMARK    7  A    between atoms: N_18  and  C_19
REMARK    8  A    between atoms: C_19  and  C_20
REMARK                            x       y       z     vdW  Elec       q    Type
REMARK                         _______ _______ _______ _____ _____    ______ ____
ROOT
ATOM      1  C   UNL     1       2.286   8.361  18.135  0.00  0.00    +0.000 C 
ATOM      2  O   UNL     1       2.137   8.849  17.024  0.00  0.00    +0.000 OA
ATOM      3  N   UNL     1       1.544   8.838  19.181  0.00  0.00    +0.000 N 
ATOM      4  H   UNL     1       1.690   8.468  20.122  0.00  0.00    +0.000 HD
ENDROOT
BRANCH   1  11
ATOM      5  C   UNL     1       3.069   6.243  19.322  0.00  0.00    +0.000 A 
ATOM      6  C   UNL     1       4.012   5.203  19.471  0.00  0.00    +0.000 A 
ATOM      7  C   UNL     1       5.132   5.110  18.640  0.00  0.00    +0.000 A 
ATOM      8  C   UNL     1       5.319   6.065  17.634  0.00  0.00    +0.000 A 
ATOM      9 CL   UNL     1       6.709   6.015  16.554  0.00  0.00    +0.000 Cl
ATOM     10  C   UNL     1       4.396   7.099  17.468  0.00  0.00    +0.000 A 
ATOM     11  C   UNL     1       3.256   7.217  18.300  0.00  0.00    +0.000 A 
BRANCH   7  12
ATOM     12  N   UNL     1       6.061   4.058  18.843  0.00  0.00    +0.000 N 
ATOM     13  H   UNL     1       6.106   3.565  19.747  0.00  0.00    +0.000 HD
ATOM     14  H   UNL     1       6.722   3.773  18.107  0.00  0.00    +0.000 HD
ENDBRANCH   7  12
BRANCH   5  16
ATOM     15  C   UNL     1       1.295   5.273  20.701  0.00  0.00    +0.000 C 
ATOM     16  O   UNL     1       1.996   6.332  20.158  0.00  0.00    +0.000 OA
ENDBRANCH   5  16
ENDBRANCH   1  11
BRANCH   3  17
ATOM     17  C   UNL     1       0.486   9.836  19.030  0.00  0.00    +0.000 C 
ATOM     18  C   UNL     1      -0.683   9.523  19.999  0.00  0.00    +0.000 C 
ATOM     19  C   UNL     1      -0.190   9.600  21.453  0.00  0.00    +0.000 C 
ATOM     20  C   UNL     1       0.294  11.034  21.783  0.00  0.00    +0.000 C 
ATOM     21  C   UNL     1       1.440  11.414  20.823  0.00  0.00    +0.000 C 
ATOM     22  C   UNL     1       1.031  11.260  19.338  0.00  0.00    +0.000 C 
BRANCH  20  23
ATOM     23  N   UNL     1      -0.794  12.040  21.720  0.00  0.00    +0.000 NA
ATOM     24  H   UNL     1      -1.447  11.859  20.929  0.00  0.00    +0.000 HD
BRANCH  23  25
ATOM     25  C   UNL     1      -1.600  12.163  22.947  0.00  0.00    +0.000 C 
BRANCH  25  26
ATOM     26  C   UNL     1      -2.317  13.534  23.038  0.00  0.00    +0.000 C 
ATOM     27  C   UNL     1      -3.216  13.781  21.806  0.00  0.00    +0.000 C 
ATOM     28  C   UNL     1      -4.394  12.790  21.773  0.00  0.00    +0.000 C 
ATOM     29  C   UNL     1      -5.217  12.905  23.068  0.00  0.00    +0.000 C 
ATOM     30  C   UNL     1      -4.347  12.683  24.317  0.00  0.00    +0.000 C 
ATOM     31  C   UNL     1      -3.161  13.660  24.323  0.00  0.00    +0.000 C 
ENDBRANCH  25  26
ENDBRANCH  23  25
ENDBRANCH  20  23
ENDBRANCH   3  17
TORSDOF 7
ENDMDL
MODEL 4
REMARK VINA RESULT:      -6.2      3.431     10.149
REMARK  Name = 
REMARK  8 active torsions:
REMARK  status: ('A' for Active; 'I' for Inactive)
REMARK    1  A    between atoms: C_1  and  O_2
REMARK    2  A    between atoms: O_2  and  C_3
REMARK    3  A    between atoms: C_5  and  N_6
REMARK    4  A    between atoms: C_10  and  C_11
REMARK    5  A    between atoms: N_13  and  C_14
REMARK    6  A    between atoms: C_17  and  N_18
REMARK    7  A    between atoms: N_18  and  C_19
REMARK    8  A    between atoms: C_19  and  C_20
REMARK                            x       y       z     vdW  Elec       q    Type
REMARK                         _______ _______ _______ _____ _____    ______ ____
ROOT
ATOM      1  C   UNL     1       2.263   8.183  18.224  0.00  0.00    +0.000 C 
ATOM      2  O   UNL     1       2.423   8.570  17.075  0.00  0.00    +0.000 OA
ATOM      3  N   UNL     1       1.474   8.913  19.073  0.00  0.00    +0.000 N 
ATOM      4  H   UNL     1       1.368   8.623  20.046  0.00  0.00    +0.000 HD
ENDROOT
BRANCH   1  11
ATOM      5  C   UNL     1       4.038   6.371  17.951  0.00  0.00    +0.000 A 
ATOM      6  C   UNL     1       4.599   5.140  18.354  0.00  0.00    +0.000 A 
ATOM      7  C   UNL     1       4.069   4.412  19.423  0.00  0.00    +0.000 A 
ATOM      8  C   UNL     1       2.961   4.917  20.113  0.00  0.00    +0.000 A 
ATOM      9 CL   UNL     1       2.236   4.052  21.465  0.00  0.00    +0.000 Cl
ATOM     10  C   UNL     1       2.393   6.134  19.732  0.00  0.00    +0.000 A 
ATOM     11  C   UNL     1       2.909   6.888  18.650  0.00  0.00    +0.000 A 
BRANCH   7  12
ATOM     12  N   UNL     1       4.658   3.171  19.777  0.00  0.00    +0.000 N 
ATOM     13  H   UNL     1       5.466   3.137  20.414  0.00  0.00    +0.000 HD
ATOM     14  H   UNL     1       4.308   2.281  19.396  0.00  0.00    +0.000 HD
ENDBRANCH   7  12
BRANCH   5  16
ATOM     15  C   UNL     1       5.210   6.505  15.808  0.00  0.00    +0.000 C 
ATOM     16  O   UNL     1       4.552   7.055  16.891  0.00  0.00    +0.000 OA
ENDBRANCH   5  16
ENDBRANCH   1  11
BRANCH   3  17
ATOM     17  C   UNL     1       0.709  10.085  18.653  0.00  0.00    +0.000 C 
ATOM     18  C   UNL     1      -0.713  10.042  19.270  0.00  0.00    +0.000 C 
ATOM     19  C   UNL     1      -0.617  10.086  20.804  0.00  0.00    +0.000 C 
ATOM     20  C   UNL     1       0.031  11.415  21.265  0.00  0.00    +0.000 C 
ATOM     21  C   UNL     1       1.442  11.529  20.652  0.00  0.00    +0.000 C 
ATOM     22  C   UNL     1       1.419  11.392  19.110  0.00  0.00    +0.000 C 
BRANCH  20  23
ATOM     23  N   UNL     1      -0.784  12.606  20.923  0.00  0.00    +0.000 NA
ATOM     24  H   UNL     1      -0.926  12.698  19.895  0.00  0.00    +0.000 HD
BRANCH  23  25
ATOM     25  C   UNL     1      -2.109  12.658  21.565  0.00  0.00    +0.000 C 
BRANCH  25  26
ATOM     26  C   UNL     1      -2.008  12.625  23.112  0.00  0.00    +0.000 C 
ATOM     27  C   UNL     1      -1.483  13.966  23.671  0.00  0.00    +0.000 C 
ATOM     28  C   UNL     1      -2.495  15.101  23.426  0.00  0.00    +0.000 C 
ATOM     29  C   UNL     1      -3.848  14.748  24.066  0.00  0.00    +0.000 C 
ATOM     30  C   UNL     1      -4.392  13.406  23.546  0.00  0.00    +0.000 C 
ATOM     31  C   UNL     1      -3.361  12.289  23.771  0.00  0.00    +0.000 C 
ENDBRANCH  25  26
ENDBRANCH  23  25
ENDBRANCH  20  23
ENDBRANCH   3  17
TORSDOF 7
ENDMDL
MODEL 5
REMARK VINA RESULT:      -6.2      3.610     10.230
REMARK  Name = 
REMARK  8 active torsions:
REMARK  status: ('A' for Active; 'I' for Inactive)
REMARK    1  A    between atoms: C_1  and  O_2
REMARK    2  A    between atoms: O_2  and  C_3
REMARK    3  A    between atoms: C_5  and  N_6
REMARK    4  A    between atoms: C_10  and  C_11
REMARK    5  A    between atoms: N_13  and  C_14
REMARK    6  A    between atoms: C_17  and  N_18
REMARK    7  A    between atoms: N_18  and  C_19
REMARK    8  A    between atoms: C_19  and  C_20
REMARK                            x       y       z     vdW  Elec       q    Type
REMARK                         _______ _______ _______ _____ _____    ______ ____
ROOT
ATOM      1  C   UNL     1       2.269   8.359  18.110  0.00  0.00    +0.000 C 
ATOM      2  O   UNL     1       2.072   8.821  16.995  0.00  0.00    +0.000 OA
ATOM      3  N   UNL     1       1.544   8.833  19.170  0.00  0.00    +0.000 N 
ATOM      4  H   UNL     1       1.730   8.485  20.112  0.00  0.00    +0.000 HD
ENDROOT
BRANCH   1  11
ATOM      5  C   UNL     1       3.071   6.199  19.207  0.00  0.00    +0.000 A 
ATOM      6  C   UNL     1       4.050   5.193  19.352  0.00  0.00    +0.000 A 
ATOM      7  C   UNL     1       5.225   5.204  18.596  0.00  0.00    +0.000 A 
ATOM      8  C   UNL     1       5.433   6.233  17.669  0.00  0.00    +0.000 A 
ATOM      9 CL   UNL     1       6.891   6.316  16.686  0.00  0.00    +0.000 Cl
ATOM     10  C   UNL     1       4.475   7.235  17.508  0.00  0.00    +0.000 A 
ATOM     11  C   UNL     1       3.279   7.248  18.266  0.00  0.00    +0.000 A 
BRANCH   7  12
ATOM     12  N   UNL     1       6.187   4.181  18.793  0.00  0.00    +0.000 N 
ATOM     13  H   UNL     1       5.903   3.257  19.149  0.00  0.00    +0.000 HD
ATOM     14  H   UNL     1       7.187   4.338  18.605  0.00  0.00    +0.000 HD
ENDBRANCH   7  12
BRANCH   5  16
ATOM     15  C   UNL     1       1.522   5.153  20.787  0.00  0.00    +0.000 C 
ATOM     16  O   UNL     1       1.942   6.186  19.972  0.00  0.00    +0.000 OA
ENDBRANCH   5  16
ENDBRANCH   1  11
BRANCH   3  17
ATOM     17  C   UNL     1       0.452   9.794  19.033  0.00  0.00    +0.000 C 
ATOM     18  C   UNL     1      -0.476   9.727  20.273  0.00  0.00    +0.000 C 
ATOM     19  C   UNL     1       0.313  10.111  21.535  0.00  0.00    +0.000 C 
ATOM     20  C   UNL     1       0.817  11.572  21.432  0.00  0.00    +0.000 C 
ATOM     21  C   UNL     1       1.723  11.708  20.190  0.00  0.00    +0.000 C 
ATOM     22  C   UNL     1       1.011  11.240  18.897  0.00  0.00    +0.000 C 
BRANCH  20  23
ATOM     23  N   UNL     1      -0.285  12.563  21.384  0.00  0.00    +0.000 NA
ATOM     24  H   UNL     1      -0.943  12.375  20.598  0.00  0.00    +0.000 HD
BRANCH  23  25
ATOM     25  C   UNL     1      -1.081  12.669  22.619  0.00  0.00    +0.000 C 
BRANCH  25  26
ATOM     26  C   UNL     1      -2.569  12.303  22.386  0.00  0.00    +0.000 C 
ATOM     27  C   UNL     1      -3.377  12.366  23.702  0.00  0.00    +0.000 C 
ATOM     28  C   UNL     1      -3.466  13.811  24.227  0.00  0.00    +0.000 C 
ATOM     29  C   UNL     1      -4.105  14.720  23.164  0.00  0.00    +0.000 C 
ATOM     30  C   UNL     1      -3.336  14.666  21.833  0.00  0.00    +0.000 C 
ATOM     31  C   UNL     1      -3.231  13.217  21.334  0.00  0.00    +0.000 C 
ENDBRANCH  25  26
ENDBRANCH  23  25
ENDBRANCH  20  23
ENDBRANCH   3  17
TORSDOF 7
ENDMDL
MODEL 6
REMARK VINA RESULT:      -6.2      3.934      6.379
REMARK  Name = 
REMARK  8 active torsions:
REMARK  status: ('A' for Active; 'I' for Inactive)
REMARK    1  A    between atoms: C_1  and  O_2
REMARK    2  A    between atoms: O_2  and  C_3
REMARK    3  A    between atoms: C_5  and  N_6
REMARK    4  A    between atoms: C_10  and  C_11
REMARK    5  A    between atoms: N_13  and  C_14
REMARK    6  A    between atoms: C_17  and  N_18
REMARK    7  A    between atoms: N_18  and  C_19
REMARK    8  A    between atoms: C_19  and  C_20
REMARK                            x       y       z     vdW  Elec       q    Type
REMARK                         _______ _______ _______ _____ _____    ______ ____
ROOT
ATOM      1  C   UNL     1      -1.215  11.665  18.525  0.00  0.00    +0.000 C 
ATOM      2  O   UNL     1      -0.654  12.722  18.777  0.00  0.00    +0.000 OA
ATOM      3  N   UNL     1      -0.479  10.511  18.482  0.00  0.00    +0.000 N 
ATOM      4  H   UNL     1      -0.928   9.629  18.230  0.00  0.00    +0.000 HD
ENDROOT
BRANCH   1  11
ATOM      5  C   UNL     1      -3.274  11.198  17.092  0.00  0.00    +0.000 A 
ATOM      6  C   UNL     1      -4.673  11.245  16.912  0.00  0.00    +0.000 A 
ATOM      7  C   UNL     1      -5.519  11.748  17.904  0.00  0.00    +0.000 A 
ATOM      8  C   UNL     1      -4.968  12.210  19.105  0.00  0.00    +0.000 A 
ATOM      9 CL   UNL     1      -5.971  12.863  20.396  0.00  0.00    +0.000 Cl
ATOM     10  C   UNL     1      -3.587  12.169  19.304  0.00  0.00    +0.000 A 
ATOM     11  C   UNL     1      -2.709  11.668  18.313  0.00  0.00    +0.000 A 
BRANCH   7  12
ATOM     12  N   UNL     1      -6.917  11.792  17.667  0.00  0.00    +0.000 N 
ATOM     13  H   UNL     1      -7.516  12.451  18.184  0.00  0.00    +0.000 HD
ATOM     14  H   UNL     1      -7.369  11.160  16.991  0.00  0.00    +0.000 HD
ENDBRANCH   7  12
BRANCH   5  16
ATOM     15  C   UNL     1      -2.865  10.279  14.861  0.00  0.00    +0.000 C 
ATOM     16  O   UNL     1      -2.461  10.727  16.104  0.00  0.00    +0.000 OA
ENDBRANCH   5  16
ENDBRANCH   1  11
BRANCH   3  17
ATOM     17  C   UNL     1       0.938  10.445  18.834  0.00  0.00    +0.000 C 
ATOM     18  C   UNL     1       1.101   9.944  20.292  0.00  0.00    +0.000 C 
ATOM     19  C   UNL     1       0.534   8.521  20.420  0.00  0.00    +0.000 C 
ATOM     20  C   UNL     1       1.326   7.541  19.518  0.00  0.00    +0.000 C 
ATOM     21  C   UNL     1       1.226   8.011  18.052  0.00  0.00    +0.000 C 
ATOM     22  C   UNL     1       1.693   9.477  17.878  0.00  0.00    +0.000 C 
BRANCH  20  23
ATOM     23  N   UNL     1       2.745   7.398  19.925  0.00  0.00    +0.000 NA
ATOM     24  H   UNL     1       2.837   7.104  20.920  0.00  0.00    +0.000 HD
BRANCH  23  25
ATOM     25  C   UNL     1       3.536   6.465  19.105  0.00  0.00    +0.000 C 
BRANCH  25  26
ATOM     26  C   UNL     1       3.456   5.011  19.638  0.00  0.00    +0.000 C 
ATOM     27  C   UNL     1       2.058   4.400  19.396  0.00  0.00    +0.000 C 
ATOM     28  C   UNL     1       1.786   4.220  17.891  0.00  0.00    +0.000 C 
ATOM     29  C   UNL     1       2.874   3.333  17.261  0.00  0.00    +0.000 C 
ATOM     30  C   UNL     1       4.282   3.903  17.500  0.00  0.00    +0.000 C 
ATOM     31  C   UNL     1       4.529   4.104  19.003  0.00  0.00    +0.000 C 
ENDBRANCH  25  26
ENDBRANCH  23  25
ENDBRANCH  20  23
ENDBRANCH   3  17
TORSDOF 7
ENDMDL
MODEL 7
REMARK VINA RESULT:      -6.2      4.581      6.835
REMARK  Name = 
REMARK  8 active torsions:
REMARK  status: ('A' for Active; 'I' for Inactive)
REMARK    1  A    between atoms: C_1  and  O_2
REMARK    2  A    between atoms: O_2  and  C_3
REMARK    3  A    between atoms: C_5  and  N_6
REMARK    4  A    between atoms: C_10  and  C_11
REMARK    5  A    between atoms: N_13  and  C_14
REMARK    6  A    between atoms: C_17  and  N_18
REMARK    7  A    between atoms: N_18  and  C_19
REMARK    8  A    between atoms: C_19  and  C_20
REMARK                            x       y       z     vdW  Elec       q    Type
REMARK                         _______ _______ _______ _____ _____    ______ ____
ROOT
ATOM      1  C   UNL     1       1.238  12.190  19.177  0.00  0.00    +0.000 C 
ATOM      2  O   UNL     1       0.332  12.479  18.409  0.00  0.00    +0.000 OA
ATOM      3  N   UNL     1       1.350  10.901  19.626  0.00  0.00    +0.000 N 
ATOM      4  H   UNL     1       2.076  10.656  20.300  0.00  0.00    +0.000 HD
ENDROOT
BRANCH   1  11
ATOM      5  C   UNL     1       2.187  13.854  20.862  0.00  0.00    +0.000 A 
ATOM      6  C   UNL     1       3.106  14.876  21.185  0.00  0.00    +0.000 A 
ATOM      7  C   UNL     1       4.054  15.322  20.261  0.00  0.00    +0.000 A 
ATOM      8  C   UNL     1       4.099  14.740  18.989  0.00  0.00    +0.000 A 
ATOM      9 CL   UNL     1       5.262  15.255  17.772  0.00  0.00    +0.000 Cl
ATOM     10  C   UNL     1       3.201  13.726  18.651  0.00  0.00    +0.000 A 
ATOM     11  C   UNL     1       2.228  13.260  19.568  0.00  0.00    +0.000 A 
BRANCH   7  12
ATOM     12  N   UNL     1       4.943  16.365  20.628  0.00  0.00    +0.000 N 
ATOM     13  H   UNL     1       5.954  16.279  20.449  0.00  0.00    +0.000 HD
ATOM     14  H   UNL     1       4.608  17.220  21.094  0.00  0.00    +0.000 HD
ENDBRANCH   7  12
BRANCH   5  16
ATOM     15  C   UNL     1       0.086  14.116  22.089  0.00  0.00    +0.000 C 
ATOM     16  O   UNL     1       1.252  13.449  21.767  0.00  0.00    +0.000 OA
ENDBRANCH   5  16
ENDBRANCH   1  11
BRANCH   3  17
ATOM     17  C   UNL     1       0.506   9.806  19.150  0.00  0.00    +0.000 C 
ATOM     18  C   UNL     1       1.013   9.304  17.773  0.00  0.00    +0.000 C 
ATOM     19  C   UNL     1       2.440   8.751  17.913  0.00  0.00    +0.000 C 
ATOM     20  C   UNL     1       2.454   7.531  18.868  0.00  0.00    +0.000 C 
ATOM     21  C   UNL     1       1.926   7.965  20.251  0.00  0.00    +0.000 C 
ATOM     22  C   UNL     1       0.527   8.623  20.159  0.00  0.00    +0.000 C 
BRANCH  20  23
ATOM     23  N   UNL     1       1.674   6.381  18.349  0.00  0.00    +0.000 NA
ATOM     24  H   UNL     1       1.327   6.551  17.381  0.00  0.00    +0.000 HD
BRANCH  23  25
ATOM     25  C   UNL     1       2.388   5.093  18.350  0.00  0.00    +0.000 C 
BRANCH  25  26
ATOM     26  C   UNL     1       1.472   3.920  18.781  0.00  0.00    +0.000 C 
ATOM     27  C   UNL     1       2.215   2.567  18.702  0.00  0.00    +0.000 C 
ATOM     28  C   UNL     1       3.354   2.500  19.736  0.00  0.00    +0.000 C 
ATOM     29  C   UNL     1       2.794   2.720  21.152  0.00  0.00    +0.000 C 
ATOM     30  C   UNL     1       2.030   4.050  21.261  0.00  0.00    +0.000 C 
ATOM     31  C   UNL     1       0.915   4.116  20.206  0.00  0.00    +0.000 C 
ENDBRANCH  25  26
ENDBRANCH  23  25
ENDBRANCH  20  23
ENDBRANCH   3  17
TORSDOF 7
ENDMDL
MODEL 8
REMARK VINA RESULT:      -6.2      3.662      8.950
REMARK  Name = 
REMARK  8 active torsions:
REMARK  status: ('A' for Active; 'I' for Inactive)
REMARK    1  A    between atoms: C_1  and  O_2
REMARK    2  A    between atoms: O_2  and  C_3
REMARK    3  A    between atoms: C_5  and  N_6
REMARK    4  A    between atoms: C_10  and  C_11
REMARK    5  A    between atoms: N_13  and  C_14
REMARK    6  A    between atoms: C_17  and  N_18
REMARK    7  A    between atoms: N_18  and  C_19
REMARK    8  A    between atoms: C_19  and  C_20
REMARK                            x       y       z     vdW  Elec       q    Type
REMARK                         _______ _______ _______ _____ _____    ______ ____
ROOT
ATOM      1  C   UNL     1       4.621   3.749  16.569  0.00  0.00    +0.000 C 
ATOM      2  O   UNL     1       4.646   2.592  16.961  0.00  0.00    +0.000 OA
ATOM      3  N   UNL     1       3.643   4.591  17.026  0.00  0.00    +0.000 N 
ATOM      4  H   UNL     1       3.586   5.547  16.672  0.00  0.00    +0.000 HD
ENDROOT
BRANCH   1  11
ATOM      5  C   UNL     1       6.652   5.199  16.032  0.00  0.00    +0.000 A 
ATOM      6  C   UNL     1       7.629   5.640  15.115  0.00  0.00    +0.000 A 
ATOM      7  C   UNL     1       7.684   5.141  13.810  0.00  0.00    +0.000 A 
ATOM      8  C   UNL     1       6.752   4.176  13.407  0.00  0.00    +0.000 A 
ATOM      9 CL   UNL     1       6.756   3.507  11.778  0.00  0.00    +0.000 Cl
ATOM     10  C   UNL     1       5.780   3.724  14.300  0.00  0.00    +0.000 A 
ATOM     11  C   UNL     1       5.701   4.218  15.625  0.00  0.00    +0.000 A 
BRANCH   7  12
ATOM     12  N   UNL     1       8.673   5.631  12.920  0.00  0.00    +0.000 N 
ATOM     13  H   UNL     1       8.412   5.979  11.987  0.00  0.00    +0.000 HD
ATOM     14  H   UNL     1       9.671   5.635  13.173  0.00  0.00    +0.000 HD
ENDBRANCH   7  12
BRANCH   5  16
ATOM     15  C   UNL     1       7.468   5.433  18.327  0.00  0.00    +0.000 C 
ATOM     16  O   UNL     1       6.598   5.715  17.292  0.00  0.00    +0.000 OA
ENDBRANCH   5  16
ENDBRANCH   1  11
BRANCH   3  17
ATOM     17  C   UNL     1       2.676   4.217  18.056  0.00  0.00    +0.000 C 
ATOM     18  C   UNL     1       3.339   4.279  19.456  0.00  0.00    +0.000 C 
ATOM     19  C   UNL     1       3.790   5.717  19.756  0.00  0.00    +0.000 C 
ATOM     20  C   UNL     1       2.568   6.668  19.797  0.00  0.00    +0.000 C 
ATOM     21  C   UNL     1       1.846   6.622  18.435  0.00  0.00    +0.000 C 
ATOM     22  C   UNL     1       1.454   5.179  18.032  0.00  0.00    +0.000 C 
BRANCH  20  23
ATOM     23  N   UNL     1       1.626   6.352  20.898  0.00  0.00    +0.000 NA
ATOM     24  H   UNL     1       2.124   6.084  21.773  0.00  0.00    +0.000 HD
BRANCH  23  25
ATOM     25  C   UNL     1       0.677   7.428  21.234  0.00  0.00    +0.000 C 
BRANCH  25  26
ATOM     26  C   UNL     1       1.393   8.783  21.466  0.00  0.00    +0.000 C 
ATOM     27  C   UNL     1       0.946   9.840  20.431  0.00  0.00    +0.000 C 
ATOM     28  C   UNL     1      -0.536  10.208  20.622  0.00  0.00    +0.000 C 
ATOM     29  C   UNL     1      -0.772  10.726  22.051  0.00  0.00    +0.000 C 
ATOM     30  C   UNL     1      -0.319   9.705  23.108  0.00  0.00    +0.000 C 
ATOM     31  C   UNL     1       1.154   9.326  22.890  0.00  0.00    +0.000 C 
ENDBRANCH  25  26
ENDBRANCH  23  25
ENDBRANCH  20  23
ENDBRANCH   3  17
TORSDOF 7
ENDMDL
MODEL 9
REMARK VINA RESULT:      -6.1      3.507      9.632
REMARK  Name = 
REMARK  8 active torsions:
REMARK  status: ('A' for Active; 'I' for Inactive)
REMARK    1  A    between atoms: C_1  and  O_2
REMARK    2  A    between atoms: O_2  and  C_3
REMARK    3  A    between atoms: C_5  and  N_6
REMARK    4  A    between atoms: C_10  and  C_11
REMARK    5  A    between atoms: N_13  and  C_14
REMARK    6  A    between atoms: C_17  and  N_18
REMARK    7  A    between atoms: N_18  and  C_19
REMARK    8  A    between atoms: C_19  and  C_20
REMARK                            x       y       z     vdW  Elec       q    Type
REMARK                         _______ _______ _______ _____ _____    ______ ____
ROOT
ATOM      1  C   UNL     1       1.881   7.616  20.250  0.00  0.00    +0.000 C 
ATOM      2  O   UNL     1       1.973   7.974  21.415  0.00  0.00    +0.000 OA
ATOM      3  N   UNL     1       1.584   8.541  19.286  0.00  0.00    +0.000 N 
ATOM      4  H   UNL     1       1.462   8.247  18.315  0.00  0.00    +0.000 HD
ENDROOT
BRANCH   1  11
ATOM      5  C   UNL     1       2.796   5.808  18.699  0.00  0.00    +0.000 A 
ATOM      6  C   UNL     1       2.997   4.444  18.399  0.00  0.00    +0.000 A 
ATOM      7  C   UNL     1       2.566   3.435  19.264  0.00  0.00    +0.000 A 
ATOM      8  C   UNL     1       1.925   3.785  20.459  0.00  0.00    +0.000 A 
ATOM      9 CL   UNL     1       1.349   2.569  21.595  0.00  0.00    +0.000 Cl
ATOM     10  C   UNL     1       1.720   5.129  20.776  0.00  0.00    +0.000 A 
ATOM     11  C   UNL     1       2.143   6.169  19.913  0.00  0.00    +0.000 A 
BRANCH   7  12
ATOM     12  N   UNL     1       2.774   2.078  18.908  0.00  0.00    +0.000 N 
ATOM     13  H   UNL     1       2.232   1.328  19.359  0.00  0.00    +0.000 HD
ATOM     14  H   UNL     1       3.479   1.807  18.208  0.00  0.00    +0.000 HD
ENDBRANCH   7  12
BRANCH   5  16
ATOM     15  C   UNL     1       4.449   6.881  17.249  0.00  0.00    +0.000 C 
ATOM     16  O   UNL     1       3.200   6.778  17.831  0.00  0.00    +0.000 OA
ENDBRANCH   5  16
ENDBRANCH   1  11
BRANCH   3  17
ATOM     17  C   UNL     1       1.476   9.975  19.551  0.00  0.00    +0.000 C 
ATOM     18  C   UNL     1       1.001  10.718  18.276  0.00  0.00    +0.000 C 
ATOM     19  C   UNL     1      -0.398  10.223  17.875  0.00  0.00    +0.000 C 
ATOM     20  C   UNL     1      -1.424  10.546  18.990  0.00  0.00    +0.000 C 
ATOM     21  C   UNL     1      -0.983   9.857  20.298  0.00  0.00    +0.000 C 
ATOM     22  C   UNL     1       0.462  10.243  20.700  0.00  0.00    +0.000 C 
BRANCH  20  23
ATOM     23  N   UNL     1      -1.607  12.003  19.204  0.00  0.00    +0.000 NA
ATOM     24  H   UNL     1      -1.651  12.526  18.304  0.00  0.00    +0.000 HD
BRANCH  23  25
ATOM     25  C   UNL     1      -2.793  12.371  19.995  0.00  0.00    +0.000 C 
BRANCH  25  26
ATOM     26  C   UNL     1      -2.486  13.499  21.013  0.00  0.00    +0.000 C 
ATOM     27  C   UNL     1      -3.779  14.029  21.672  0.00  0.00    +0.000 C 
ATOM     28  C   UNL     1      -4.431  12.950  22.556  0.00  0.00    +0.000 C 
ATOM     29  C   UNL     1      -3.438  12.478  23.631  0.00  0.00    +0.000 C 
ATOM     30  C   UNL     1      -2.130  11.961  23.009  0.00  0.00    +0.000 C 
ATOM     31  C   UNL     1      -1.504  13.037  22.109  0.00  0.00    +0.000 C 
ENDBRANCH  25  26
ENDBRANCH  23  25
ENDBRANCH  20  23
ENDBRANCH   3  17
TORSDOF 7
ENDMDL
