MODEL 1
REMARK VINA RESULT:      -7.0      0.000      0.000
REMARK  Name = 
REMARK  6 active torsions:
REMARK  status: ('A' for Active; 'I' for Inactive)
REMARK    1  A    between atoms: C_1  and  N_2
REMARK    2  A    between atoms: C_7  and  S_8
REMARK    3  A    between atoms: S_8  and  C_9
REMARK    4  A    between atoms: C_9  and  C_10
REMARK    5  A    between atoms: N_12  and  C_13
REMARK    6  A    between atoms: C_20  and  C_21
REMARK                            x       y       z     vdW  Elec       q    Type
REMARK                         _______ _______ _______ _____ _____    ______ ____
ROOT
ATOM      1  C   UNL     1       8.197   8.707  17.309  0.00  0.00    +0.000 C 
ATOM      2  N   UNL     1       7.424   7.723  18.069  0.00  0.00    +0.000 NA
ATOM      3  C   UNL     1       8.300   6.765  18.759  0.00  0.00    +0.000 C 
ATOM      4  C   UNL     1       7.476   5.872  19.703  0.00  0.00    +0.000 C 
ATOM      5  C   UNL     1       6.254   5.283  19.030  0.00  0.00    +0.000 A 
ATOM      6  N   UNL     1       5.627   4.229  19.645  0.00  0.00    +0.000 NA
ATOM      7  C   UNL     1       4.516   3.719  19.050  0.00  0.00    +0.000 A 
ATOM      8  C   UNL     1       4.012   4.233  17.851  0.00  0.00    +0.000 A 
ATOM      9  C   UNL     1       4.662   5.312  17.252  0.00  0.00    +0.000 A 
ATOM     10  C   UNL     1       5.792   5.864  17.849  0.00  0.00    +0.000 A 
ATOM     11  C   UNL     1       6.512   7.004  17.174  0.00  0.00    +0.000 C 
ENDROOT
BRANCH   8  12
ATOM     12  C   UNL     1       2.852   3.704  17.206  0.00  0.00    +0.000 C 
ATOM     13  N   UNL     1       1.883   3.305  16.704  0.00  0.00    +0.000 NA
ENDBRANCH   8  12
BRANCH   7  14
ATOM     14  S   UNL     1       3.643   2.355  19.829  0.00  0.00    +0.000 S 
BRANCH  14  15
ATOM     15  C   UNL     1       2.699   3.138  21.171  0.00  0.00    +0.000 C 
BRANCH  15  16
ATOM     16  C   UNL     1       1.925   4.335  20.606  0.00  0.00    +0.000 C 
ATOM     17  O   UNL     1       0.809   4.172  20.118  0.00  0.00    +0.000 OA
ATOM     18  N   UNL     1       2.583   5.558  20.728  0.00  0.00    +0.000 N 
ATOM     19  H   UNL     1       3.562   5.510  20.986  0.00  0.00    +0.000 HD
BRANCH  18  20
ATOM     20  C   UNL     1       2.093   6.826  20.334  0.00  0.00    +0.000 A 
ATOM     21  C   UNL     1       1.328   7.643  21.167  0.00  0.00    +0.000 A 
ATOM     22  C   UNL     1       0.853   8.883  20.723  0.00  0.00    +0.000 A 
ATOM     23  C   UNL     1       1.149   9.317  19.435  0.00  0.00    +0.000 A 
ATOM     24 CL   UNL     1       0.557  10.838  18.890  0.00  0.00    +0.000 Cl
ATOM     25  C   UNL     1       1.922   8.524  18.592  0.00  0.00    +0.000 A 
ATOM     26  C   UNL     1       2.400   7.285  19.043  0.00  0.00    +0.000 A 
ENDBRANCH  18  20
ENDBRANCH  15  16
ENDBRANCH  14  15
ENDBRANCH   7  14
TORSDOF 5
ENDMDL
MODEL 2
REMARK VINA RESULT:      -6.8      4.280      7.455
REMARK  Name = 
REMARK  6 active torsions:
REMARK  status: ('A' for Active; 'I' for Inactive)
REMARK    1  A    between atoms: C_1  and  N_2
REMARK    2  A    between atoms: C_7  and  S_8
REMARK    3  A    between atoms: S_8  and  C_9
REMARK    4  A    between atoms: C_9  and  C_10
REMARK    5  A    between atoms: N_12  and  C_13
REMARK    6  A    between atoms: C_20  and  C_21
REMARK                            x       y       z     vdW  Elec       q    Type
REMARK                         _______ _______ _______ _____ _____    ______ ____
ROOT
ATOM      1  C   UNL     1       0.440   2.785  18.796  0.00  0.00    +0.000 C 
ATOM      2  N   UNL     1       1.792   3.299  19.018  0.00  0.00    +0.000 NA
ATOM      3  C   UNL     1       1.788   4.455  19.927  0.00  0.00    +0.000 C 
ATOM      4  C   UNL     1       3.229   4.847  20.298  0.00  0.00    +0.000 C 
ATOM      5  C   UNL     1       4.132   4.963  19.088  0.00  0.00    +0.000 A 
ATOM      6  N   UNL     1       5.330   5.612  19.241  0.00  0.00    +0.000 NA
ATOM      7  C   UNL     1       6.150   5.692  18.158  0.00  0.00    +0.000 A 
ATOM      8  C   UNL     1       5.803   5.139  16.922  0.00  0.00    +0.000 A 
ATOM      9  C   UNL     1       4.583   4.473  16.796  0.00  0.00    +0.000 A 
ATOM     10  C   UNL     1       3.734   4.364  17.893  0.00  0.00    +0.000 A 
ATOM     11  C   UNL     1       2.400   3.678  17.738  0.00  0.00    +0.000 C 
ENDROOT
BRANCH   8  12
ATOM     12  C   UNL     1       6.646   5.221  15.771  0.00  0.00    +0.000 C 
ATOM     13  N   UNL     1       7.296   5.274  14.808  0.00  0.00    +0.000 NA
ENDBRANCH   8  12
BRANCH   7  14
ATOM     14  S   UNL     1       7.742   6.511  18.312  0.00  0.00    +0.000 S 
BRANCH  14  15
ATOM     15  C   UNL     1       7.471   8.153  17.579  0.00  0.00    +0.000 C 
BRANCH  15  16
ATOM     16  C   UNL     1       8.440   9.153  18.221  0.00  0.00    +0.000 C 
ATOM     17  O   UNL     1       9.133   8.812  19.177  0.00  0.00    +0.000 OA
ATOM     18  N   UNL     1       8.462  10.407  17.614  0.00  0.00    +0.000 N 
ATOM     19  H   UNL     1       7.713  10.593  16.956  0.00  0.00    +0.000 HD
BRANCH  18  20
ATOM     20  C   UNL     1       9.283  11.504  17.966  0.00  0.00    +0.000 A 
ATOM     21  C   UNL     1      10.674  11.425  18.044  0.00  0.00    +0.000 A 
ATOM     22  C   UNL     1      11.441  12.537  18.414  0.00  0.00    +0.000 A 
ATOM     23  C   UNL     1      10.816  13.744  18.704  0.00  0.00    +0.000 A 
ATOM     24 CL   UNL     1      11.760  15.106  19.166  0.00  0.00    +0.000 Cl
ATOM     25  C   UNL     1       9.430  13.849  18.619  0.00  0.00    +0.000 A 
ATOM     26  C   UNL     1       8.666  12.734  18.243  0.00  0.00    +0.000 A 
ENDBRANCH  18  20
ENDBRANCH  15  16
ENDBRANCH  14  15
ENDBRANCH   7  14
TORSDOF 5
ENDMDL
MODEL 3
REMARK VINA RESULT:      -6.7      2.516      5.090
REMARK  Name = 
REMARK  6 active torsions:
REMARK  status: ('A' for Active; 'I' for Inactive)
REMARK    1  A    between atoms: C_1  and  N_2
REMARK    2  A    between atoms: C_7  and  S_8
REMARK    3  A    between atoms: S_8  and  C_9
REMARK    4  A    between atoms: C_9  and  C_10
REMARK    5  A    between atoms: N_12  and  C_13
REMARK    6  A    between atoms: C_20  and  C_21
REMARK                            x       y       z     vdW  Elec       q    Type
REMARK                         _______ _______ _______ _____ _____    ______ ____
ROOT
ATOM      1  C   UNL     1       1.100   2.449  21.835  0.00  0.00    +0.000 C 
ATOM      2  N   UNL     1       1.636   3.075  20.627  0.00  0.00    +0.000 NA
ATOM      3  C   UNL     1       1.081   2.464  19.410  0.00  0.00    +0.000 C 
ATOM      4  C   UNL     1       1.504   3.267  18.167  0.00  0.00    +0.000 C 
ATOM      5  C   UNL     1       2.991   3.559  18.141  0.00  0.00    +0.000 A 
ATOM      6  N   UNL     1       3.543   3.972  16.955  0.00  0.00    +0.000 NA
ATOM      7  C   UNL     1       4.872   4.257  16.941  0.00  0.00    +0.000 A 
ATOM      8  C   UNL     1       5.669   4.141  18.084  0.00  0.00    +0.000 A 
ATOM      9  C   UNL     1       5.081   3.731  19.281  0.00  0.00    +0.000 A 
ATOM     10  C   UNL     1       3.719   3.448  19.325  0.00  0.00    +0.000 A 
ATOM     11  C   UNL     1       3.098   2.967  20.613  0.00  0.00    +0.000 C 
ENDROOT
BRANCH   8  12
ATOM     12  C   UNL     1       7.069   4.427  18.087  0.00  0.00    +0.000 C 
ATOM     13  N   UNL     1       8.198   4.705  18.086  0.00  0.00    +0.000 NA
ENDBRANCH   8  12
BRANCH   7  14
ATOM     14  S   UNL     1       5.639   4.825  15.419  0.00  0.00    +0.000 S 
BRANCH  14  15
ATOM     15  C   UNL     1       5.137   6.568  15.289  0.00  0.00    +0.000 C 
BRANCH  15  16
ATOM     16  C   UNL     1       4.737   7.077  16.679  0.00  0.00    +0.000 C 
ATOM     17  O   UNL     1       5.596   7.498  17.451  0.00  0.00    +0.000 OA
ATOM     18  N   UNL     1       3.368   7.037  16.939  0.00  0.00    +0.000 N 
ATOM     19  H   UNL     1       2.809   6.504  16.281  0.00  0.00    +0.000 HD
BRANCH  18  20
ATOM     20  C   UNL     1       2.715   7.479  18.114  0.00  0.00    +0.000 A 
ATOM     21  C   UNL     1       2.680   6.735  19.294  0.00  0.00    +0.000 A 
ATOM     22  C   UNL     1       2.006   7.210  20.426  0.00  0.00    +0.000 A 
ATOM     23  C   UNL     1       1.364   8.442  20.384  0.00  0.00    +0.000 A 
ATOM     24 CL   UNL     1       0.530   9.019  21.773  0.00  0.00    +0.000 Cl
ATOM     25  C   UNL     1       1.398   9.207  19.221  0.00  0.00    +0.000 A 
ATOM     26  C   UNL     1       2.080   8.730  18.091  0.00  0.00    +0.000 A 
ENDBRANCH  18  20
ENDBRANCH  15  16
ENDBRANCH  14  15
ENDBRANCH   7  14
TORSDOF 5
ENDMDL
MODEL 4
REMARK VINA RESULT:      -6.6      4.437      6.360
REMARK  Name = 
REMARK  6 active torsions:
REMARK  status: ('A' for Active; 'I' for Inactive)
REMARK    1  A    between atoms: C_1  and  N_2
REMARK    2  A    between atoms: C_7  and  S_8
REMARK    3  A    between atoms: S_8  and  C_9
REMARK    4  A    between atoms: C_9  and  C_10
REMARK    5  A    between atoms: N_12  and  C_13
REMARK    6  A    between atoms: C_20  and  C_21
REMARK                            x       y       z     vdW  Elec       q    Type
REMARK                         _______ _______ _______ _____ _____    ______ ____
ROOT
ATOM      1  C   UNL     1       3.738   1.569  18.641  0.00  0.00    +0.000 C 
ATOM      2  N   UNL     1       3.418   2.827  19.316  0.00  0.00    +0.000 NA
ATOM      3  C   UNL     1       2.240   2.689  20.185  0.00  0.00    +0.000 C 
ATOM      4  C   UNL     1       2.048   3.960  21.030  0.00  0.00    +0.000 C 
ATOM      5  C   UNL     1       2.112   5.226  20.201  0.00  0.00    +0.000 A 
ATOM      6  N   UNL     1       1.638   6.385  20.762  0.00  0.00    +0.000 NA
ATOM      7  C   UNL     1       1.721   7.525  20.024  0.00  0.00    +0.000 A 
ATOM      8  C   UNL     1       2.264   7.538  18.736  0.00  0.00    +0.000 A 
ATOM      9  C   UNL     1       2.749   6.348  18.193  0.00  0.00    +0.000 A 
ATOM     10  C   UNL     1       2.692   5.171  18.934  0.00  0.00    +0.000 A 
ATOM     11  C   UNL     1       3.182   3.882  18.325  0.00  0.00    +0.000 C 
ENDROOT
BRANCH   8  12
ATOM     12  C   UNL     1       2.350   8.723  17.941  0.00  0.00    +0.000 C 
ATOM     13  N   UNL     1       2.405   9.663  17.259  0.00  0.00    +0.000 NA
ENDBRANCH   8  12
BRANCH   7  14
ATOM     14  S   UNL     1       1.137   9.075  20.721  0.00  0.00    +0.000 S 
BRANCH  14  15
ATOM     15  C   UNL     1      -0.059   8.568  21.994  0.00  0.00    +0.000 C 
BRANCH  15  16
ATOM     16  C   UNL     1      -0.397   9.778  22.872  0.00  0.00    +0.000 C 
ATOM     17  O   UNL     1      -0.015   9.818  24.039  0.00  0.00    +0.000 OA
ATOM     18  N   UNL     1      -1.121  10.778  22.225  0.00  0.00    +0.000 N 
ATOM     19  H   UNL     1      -1.514  10.527  21.324  0.00  0.00    +0.000 HD
BRANCH  18  20
ATOM     20  C   UNL     1      -1.533  12.016  22.773  0.00  0.00    +0.000 A 
ATOM     21  C   UNL     1      -0.729  13.156  22.777  0.00  0.00    +0.000 A 
ATOM     22  C   UNL     1      -1.178  14.354  23.348  0.00  0.00    +0.000 A 
ATOM     23  C   UNL     1      -2.445  14.417  23.917  0.00  0.00    +0.000 A 
ATOM     24 CL   UNL     1      -2.991  15.887  24.624  0.00  0.00    +0.000 Cl
ATOM     25  C   UNL     1      -3.269  13.295  23.911  0.00  0.00    +0.000 A 
ATOM     26  C   UNL     1      -2.817  12.099  23.333  0.00  0.00    +0.000 A 
ENDBRANCH  18  20
ENDBRANCH  15  16
ENDBRANCH  14  15
ENDBRANCH   7  14
TORSDOF 5
ENDMDL
MODEL 5
REMARK VINA RESULT:      -6.5      2.388      5.233
REMARK  Name = 
REMARK  6 active torsions:
REMARK  status: ('A' for Active; 'I' for Inactive)
REMARK    1  A    between atoms: C_1  and  N_2
REMARK    2  A    between atoms: C_7  and  S_8
REMARK    3  A    between atoms: S_8  and  C_9
REMARK    4  A    between atoms: C_9  and  C_10
REMARK    5  A    between atoms: N_12  and  C_13
REMARK    6  A    between atoms: C_20  and  C_21
REMARK                            x       y       z     vdW  Elec       q    Type
REMARK                         _______ _______ _______ _____ _____    ______ ____
ROOT
ATOM      1  C   UNL     1       1.581  10.249  20.072  0.00  0.00    +0.000 C 
ATOM      2  N   UNL     1       1.999   8.929  19.597  0.00  0.00    +0.000 NA
ATOM      3  C   UNL     1       1.566   8.691  18.212  0.00  0.00    +0.000 C 
ATOM      4  C   UNL     1       2.185   7.390  17.674  0.00  0.00    +0.000 C 
ATOM      5  C   UNL     1       2.017   6.225  18.628  0.00  0.00    +0.000 A 
ATOM      6  N   UNL     1       2.226   4.960  18.141  0.00  0.00    +0.000 NA
ATOM      7  C   UNL     1       2.098   3.920  19.007  0.00  0.00    +0.000 A 
ATOM      8  C   UNL     1       1.764   4.108  20.351  0.00  0.00    +0.000 A 
ATOM      9  C   UNL     1       1.567   5.406  20.825  0.00  0.00    +0.000 A 
ATOM     10  C   UNL     1       1.709   6.490  19.963  0.00  0.00    +0.000 A 
ATOM     11  C   UNL     1       1.456   7.886  20.472  0.00  0.00    +0.000 C 
ENDROOT
BRANCH   8  12
ATOM     12  C   UNL     1       1.615   3.026  21.273  0.00  0.00    +0.000 C 
ATOM     13  N   UNL     1       1.458   2.131  21.999  0.00  0.00    +0.000 NA
ENDBRANCH   8  12
BRANCH   7  14
ATOM     14  S   UNL     1       2.386   2.244  18.425  0.00  0.00    +0.000 S 
BRANCH  14  15
ATOM     15  C   UNL     1       4.076   1.864  18.978  0.00  0.00    +0.000 C 
BRANCH  15  16
ATOM     16  C   UNL     1       4.830   3.177  19.221  0.00  0.00    +0.000 C 
ATOM     17  O   UNL     1       5.045   3.561  20.369  0.00  0.00    +0.000 OA
ATOM     18  N   UNL     1       5.241   3.831  18.061  0.00  0.00    +0.000 N 
ATOM     19  H   UNL     1       4.839   3.490  17.195  0.00  0.00    +0.000 HD
BRANCH  18  20
ATOM     20  C   UNL     1       5.985   5.032  17.985  0.00  0.00    +0.000 A 
ATOM     21  C   UNL     1       7.183   5.235  18.672  0.00  0.00    +0.000 A 
ATOM     22  C   UNL     1       7.873   6.450  18.575  0.00  0.00    +0.000 A 
ATOM     23  C   UNL     1       7.368   7.473  17.780  0.00  0.00    +0.000 A 
ATOM     24 CL   UNL     1       8.214   8.966  17.670  0.00  0.00    +0.000 Cl
ATOM     25  C   UNL     1       6.182   7.286  17.075  0.00  0.00    +0.000 A 
ATOM     26  C   UNL     1       5.497   6.066  17.170  0.00  0.00    +0.000 A 
ENDBRANCH  18  20
ENDBRANCH  15  16
ENDBRANCH  14  15
ENDBRANCH   7  14
TORSDOF 5
ENDMDL
MODEL 6
REMARK VINA RESULT:      -6.4      2.411      5.342
REMARK  Name = 
REMARK  6 active torsions:
REMARK  status: ('A' for Active; 'I' for Inactive)
REMARK    1  A    between atoms: C_1  and  N_2
REMARK    2  A    between atoms: C_7  and  S_8
REMARK    3  A    between atoms: S_8  and  C_9
REMARK    4  A    between atoms: C_9  and  C_10
REMARK    5  A    between atoms: N_12  and  C_13
REMARK    6  A    between atoms: C_20  and  C_21
REMARK                            x       y       z     vdW  Elec       q    Type
REMARK                         _______ _______ _______ _____ _____    ______ ____
ROOT
ATOM      1  C   UNL     1       1.316  10.523  20.391  0.00  0.00    +0.000 C 
ATOM      2  N   UNL     1       1.817   9.254  19.860  0.00  0.00    +0.000 NA
ATOM      3  C   UNL     1       1.450   9.077  18.447  0.00  0.00    +0.000 C 
ATOM      4  C   UNL     1       2.154   7.840  17.864  0.00  0.00    +0.000 C 
ATOM      5  C   UNL     1       2.004   6.615  18.743  0.00  0.00    +0.000 A 
ATOM      6  N   UNL     1       2.294   5.392  18.195  0.00  0.00    +0.000 NA
ATOM      7  C   UNL     1       2.184   4.297  18.995  0.00  0.00    +0.000 A 
ATOM      8  C   UNL     1       1.788   4.392  20.332  0.00  0.00    +0.000 A 
ATOM      9  C   UNL     1       1.510   5.649  20.869  0.00  0.00    +0.000 A 
ATOM     10  C   UNL     1       1.632   6.787  20.076  0.00  0.00    +0.000 A 
ATOM     11  C   UNL     1       1.291   8.138  20.652  0.00  0.00    +0.000 C 
ENDROOT
BRANCH   8  12
ATOM     12  C   UNL     1       1.656   3.253  21.185  0.00  0.00    +0.000 C 
ATOM     13  N   UNL     1       1.514   2.348  21.901  0.00  0.00    +0.000 NA
ENDBRANCH   8  12
BRANCH   7  14
ATOM     14  S   UNL     1       2.576   2.674  18.331  0.00  0.00    +0.000 S 
BRANCH  14  15
ATOM     15  C   UNL     1       4.245   2.326  18.964  0.00  0.00    +0.000 C 
BRANCH  15  16
ATOM     16  C   UNL     1       4.976   3.653  19.202  0.00  0.00    +0.000 C 
ATOM     17  O   UNL     1       5.186   4.042  20.349  0.00  0.00    +0.000 OA
ATOM     18  N   UNL     1       5.375   4.311  18.040  0.00  0.00    +0.000 N 
ATOM     19  H   UNL     1       4.977   3.960  17.175  0.00  0.00    +0.000 HD
BRANCH  18  20
ATOM     20  C   UNL     1       6.097   5.524  17.959  0.00  0.00    +0.000 A 
ATOM     21  C   UNL     1       5.655   6.632  17.234  0.00  0.00    +0.000 A 
ATOM     22  C   UNL     1       6.416   7.805  17.173  0.00  0.00    +0.000 A 
ATOM     23  C   UNL     1       7.631   7.879  17.846  0.00  0.00    +0.000 A 
ATOM     24 CL   UNL     1       8.567   9.319  17.762  0.00  0.00    +0.000 Cl
ATOM     25  C   UNL     1       8.084   6.791  18.587  0.00  0.00    +0.000 A 
ATOM     26  C   UNL     1       7.316   5.619  18.650  0.00  0.00    +0.000 A 
ENDBRANCH  18  20
ENDBRANCH  15  16
ENDBRANCH  14  15
ENDBRANCH   7  14
TORSDOF 5
ENDMDL
MODEL 7
REMARK VINA RESULT:      -6.3      5.364      8.827
REMARK  Name = 
REMARK  6 active torsions:
REMARK  status: ('A' for Active; 'I' for Inactive)
REMARK    1  A    between atoms: C_1  and  N_2
REMARK    2  A    between atoms: C_7  and  S_8
REMARK    3  A    between atoms: S_8  and  C_9
REMARK    4  A    between atoms: C_9  and  C_10
REMARK    5  A    between atoms: N_12  and  C_13
REMARK    6  A    between atoms: C_20  and  C_21
REMARK                            x       y       z     vdW  Elec       q    Type
REMARK                         _______ _______ _______ _____ _____    ______ ____
ROOT
ATOM      1  C   UNL     1      -3.927  10.636  14.924  0.00  0.00    +0.000 C 
ATOM      2  N   UNL     1      -3.037  10.878  16.060  0.00  0.00    +0.000 NA
ATOM      3  C   UNL     1      -2.355   9.647  16.485  0.00  0.00    +0.000 C 
ATOM      4  C   UNL     1      -1.284   9.967  17.542  0.00  0.00    +0.000 C 
ATOM      5  C   UNL     1      -1.810  10.849  18.656  0.00  0.00    +0.000 A 
ATOM      6  N   UNL     1      -1.070  10.937  19.808  0.00  0.00    +0.000 NA
ATOM      7  C   UNL     1      -1.532  11.750  20.796  0.00  0.00    +0.000 A 
ATOM      8  C   UNL     1      -2.718  12.478  20.665  0.00  0.00    +0.000 A 
ATOM      9  C   UNL     1      -3.446  12.380  19.479  0.00  0.00    +0.000 A 
ATOM     10  C   UNL     1      -2.986  11.568  18.445  0.00  0.00    +0.000 A 
ATOM     11  C   UNL     1      -3.798  11.436  17.182  0.00  0.00    +0.000 C 
ENDROOT
BRANCH   8  12
ATOM     12  C   UNL     1      -3.225  13.329  21.695  0.00  0.00    +0.000 C 
ATOM     13  N   UNL     1      -3.640  14.055  22.503  0.00  0.00    +0.000 NA
ENDBRANCH   8  12
BRANCH   7  14
ATOM     14  S   UNL     1      -0.588  11.920  22.315  0.00  0.00    +0.000 S 
BRANCH  14  15
ATOM     15  C   UNL     1      -0.442  10.219  22.942  0.00  0.00    +0.000 C 
BRANCH  15  16
ATOM     16  C   UNL     1       0.740   9.531  22.250  0.00  0.00    +0.000 C 
ATOM     17  O   UNL     1       1.857   9.564  22.762  0.00  0.00    +0.000 OA
ATOM     18  N   UNL     1       0.416   8.880  21.061  0.00  0.00    +0.000 N 
ATOM     19  H   UNL     1      -0.499   9.090  20.678  0.00  0.00    +0.000 HD
BRANCH  18  20
ATOM     20  C   UNL     1       1.292   8.133  20.237  0.00  0.00    +0.000 A 
ATOM     21  C   UNL     1       1.775   8.600  19.014  0.00  0.00    +0.000 A 
ATOM     22  C   UNL     1       2.628   7.814  18.228  0.00  0.00    +0.000 A 
ATOM     23  C   UNL     1       3.008   6.552  18.669  0.00  0.00    +0.000 A 
ATOM     24 CL   UNL     1       4.049   5.586  17.698  0.00  0.00    +0.000 Cl
ATOM     25  C   UNL     1       2.548   6.073  19.892  0.00  0.00    +0.000 A 
ATOM     26  C   UNL     1       1.699   6.865  20.679  0.00  0.00    +0.000 A 
ENDBRANCH  18  20
ENDBRANCH  15  16
ENDBRANCH  14  15
ENDBRANCH   7  14
TORSDOF 5
ENDMDL
MODEL 8
REMARK VINA RESULT:      -6.3      5.025      8.684
REMARK  Name = 
REMARK  6 active torsions:
REMARK  status: ('A' for Active; 'I' for Inactive)
REMARK    1  A    between atoms: C_1  and  N_2
REMARK    2  A    between atoms: C_7  and  S_8
REMARK    3  A    between atoms: S_8  and  C_9
REMARK    4  A    between atoms: C_9  and  C_10
REMARK    5  A    between atoms: N_12  and  C_13
REMARK    6  A    between atoms: C_20  and  C_21
REMARK                            x       y       z     vdW  Elec       q    Type
REMARK                         _______ _______ _______ _____ _____    ______ ____
ROOT
ATOM      1  C   UNL     1      -6.446  12.013  17.859  0.00  0.00    +0.000 C 
ATOM      2  N   UNL     1      -5.254  11.784  18.677  0.00  0.00    +0.000 NA
ATOM      3  C   UNL     1      -4.916  12.967  19.482  0.00  0.00    +0.000 C 
ATOM      4  C   UNL     1      -3.788  12.634  20.474  0.00  0.00    +0.000 C 
ATOM      5  C   UNL     1      -2.621  11.929  19.814  0.00  0.00    +0.000 A 
ATOM      6  N   UNL     1      -1.435  11.871  20.500  0.00  0.00    +0.000 NA
ATOM      7  C   UNL     1      -0.396  11.216  19.915  0.00  0.00    +0.000 A 
ATOM      8  C   UNL     1      -0.510  10.615  18.657  0.00  0.00    +0.000 A 
ATOM      9  C   UNL     1      -1.731  10.678  17.985  0.00  0.00    +0.000 A 
ATOM     10  C   UNL     1      -2.815  11.329  18.570  0.00  0.00    +0.000 A 
ATOM     11  C   UNL     1      -4.119  11.427  17.820  0.00  0.00    +0.000 C 
ENDROOT
BRANCH   8  12
ATOM     12  C   UNL     1       0.572   9.931  18.023  0.00  0.00    +0.000 C 
ATOM     13  N   UNL     1       1.447   9.340  17.537  0.00  0.00    +0.000 NA
ENDBRANCH   8  12
BRANCH   7  14
ATOM     14  S   UNL     1       1.172  11.090  20.783  0.00  0.00    +0.000 S 
BRANCH  14  15
ATOM     15  C   UNL     1       0.878   9.823  22.053  0.00  0.00    +0.000 C 
BRANCH  15  16
ATOM     16  C   UNL     1       0.672   8.467  21.368  0.00  0.00    +0.000 C 
ATOM     17  O   UNL     1      -0.458   7.997  21.258  0.00  0.00    +0.000 OA
ATOM     18  N   UNL     1       1.841   7.878  20.888  0.00  0.00    +0.000 N 
ATOM     19  H   UNL     1       2.709   8.294  21.208  0.00  0.00    +0.000 HD
BRANCH  18  20
ATOM     20  C   UNL     1       1.946   6.656  20.183  0.00  0.00    +0.000 A 
ATOM     21  C   UNL     1       2.521   6.551  18.916  0.00  0.00    +0.000 A 
ATOM     22  C   UNL     1       2.586   5.319  18.253  0.00  0.00    +0.000 A 
ATOM     23  C   UNL     1       2.078   4.177  18.862  0.00  0.00    +0.000 A 
ATOM     24 CL   UNL     1       2.152   2.667  18.041  0.00  0.00    +0.000 Cl
ATOM     25  C   UNL     1       1.513   4.257  20.131  0.00  0.00    +0.000 A 
ATOM     26  C   UNL     1       1.455   5.491  20.795  0.00  0.00    +0.000 A 
ENDBRANCH  18  20
ENDBRANCH  15  16
ENDBRANCH  14  15
ENDBRANCH   7  14
TORSDOF 5
ENDMDL
MODEL 9
REMARK VINA RESULT:      -6.2      5.930      9.329
REMARK  Name = 
REMARK  6 active torsions:
REMARK  status: ('A' for Active; 'I' for Inactive)
REMARK    1  A    between atoms: C_1  and  N_2
REMARK    2  A    between atoms: C_7  and  S_8
REMARK    3  A    between atoms: S_8  and  C_9
REMARK    4  A    between atoms: C_9  and  C_10
REMARK    5  A    between atoms: N_12  and  C_13
REMARK    6  A    between atoms: C_20  and  C_21
REMARK                            x       y       z     vdW  Elec       q    Type
REMARK                         _______ _______ _______ _____ _____    ______ ____
ROOT
ATOM      1  C   UNL     1      -3.999  10.165  14.426  0.00  0.00    +0.000 C 
ATOM      2  N   UNL     1      -3.328  10.729  15.597  0.00  0.00    +0.000 NA
ATOM      3  C   UNL     1      -2.346   9.792  16.161  0.00  0.00    +0.000 C 
ATOM      4  C   UNL     1      -1.519  10.481  17.260  0.00  0.00    +0.000 C 
ATOM      5  C   UNL     1      -2.382  11.216  18.265  0.00  0.00    +0.000 A 
ATOM      6  N   UNL     1      -1.809  11.588  19.454  0.00  0.00    +0.000 NA
ATOM      7  C   UNL     1      -2.580  12.270  20.343  0.00  0.00    +0.000 A 
ATOM      8  C   UNL     1      -3.915  12.589  20.077  0.00  0.00    +0.000 A 
ATOM      9  C   UNL     1      -4.471  12.209  18.855  0.00  0.00    +0.000 A 
ATOM     10  C   UNL     1      -3.698  11.525  17.921  0.00  0.00    +0.000 A 
ATOM     11  C   UNL     1      -4.318  11.083  16.620  0.00  0.00    +0.000 C 
ENDROOT
BRANCH   8  12
ATOM     12  C   UNL     1      -4.744  13.295  21.002  0.00  0.00    +0.000 C 
ATOM     13  N   UNL     1      -5.445  13.883  21.720  0.00  0.00    +0.000 NA
ENDBRANCH   8  12
BRANCH   7  14
ATOM     14  S   UNL     1      -1.869  12.802  21.905  0.00  0.00    +0.000 S 
BRANCH  14  15
ATOM     15  C   UNL     1      -1.095  11.300  22.577  0.00  0.00    +0.000 C 
BRANCH  15  16
ATOM     16  C   UNL     1       0.064  10.884  21.665  0.00  0.00    +0.000 C 
ATOM     17  O   UNL     1       1.036  11.623  21.528  0.00  0.00    +0.000 OA
ATOM     18  N   UNL     1      -0.090   9.633  21.068  0.00  0.00    +0.000 N 
ATOM     19  H   UNL     1      -1.015   9.223  21.134  0.00  0.00    +0.000 HD
BRANCH  18  20
ATOM     20  C   UNL     1       0.834   8.981  20.217  0.00  0.00    +0.000 A 
ATOM     21  C   UNL     1       1.200   9.475  18.964  0.00  0.00    +0.000 A 
ATOM     22  C   UNL     1       2.106   8.783  18.152  0.00  0.00    +0.000 A 
ATOM     23  C   UNL     1       2.660   7.587  18.596  0.00  0.00    +0.000 A 
ATOM     24 CL   UNL     1       3.768   6.735  17.593  0.00  0.00    +0.000 Cl
ATOM     25  C   UNL     1       2.319   7.083  19.848  0.00  0.00    +0.000 A 
ATOM     26  C   UNL     1       1.415   7.783  20.661  0.00  0.00    +0.000 A 
ENDBRANCH  18  20
ENDBRANCH  15  16
ENDBRANCH  14  15
ENDBRANCH   7  14
TORSDOF 5
ENDMDL
