MODEL 1
REMARK VINA RESULT:      -7.7      0.000      0.000
REMARK  Name = 
REMARK  9 active torsions:
REMARK  status: ('A' for Active; 'I' for Inactive)
REMARK    1  A    between atoms: C_1  and  C_2
REMARK    2  A    between atoms: C_6  and  C_7
REMARK    3  A    between atoms: N_9  and  C_10
REMARK    4  A    between atoms: C_10  and  C_11
REMARK    5  A    between atoms: C_10  and  C_12
REMARK    6  A    between atoms: C_13  and  N_14
REMARK    7  A    between atoms: C_15  and  C_17
REMARK    8  A    between atoms: C_19  and  C_20
REMARK    9  A    between atoms: N_25  and  C_26
REMARK                            x       y       z     vdW  Elec       q    Type
REMARK                         _______ _______ _______ _____ _____    ______ ____
ROOT
ATOM      1  N   UNL     1       4.908   4.967  19.764  0.00  0.00    +0.000 N 
ATOM      2  C   UNL     1       6.207   5.132  19.298  0.00  0.00    +0.000 C 
ATOM      3  O   UNL     1       7.055   5.326  20.178  0.00  0.00    +0.000 OA
ATOM      4  H   UNL     1       4.982   4.681  20.736  0.00  0.00    +0.000 HD
ENDROOT
BRANCH   1  11
ATOM      5  C   UNL     1       4.628   2.097  19.764  0.00  0.00    +0.000 C 
ATOM      6  C   UNL     1       3.691   3.017  19.017  0.00  0.00    +0.000 A 
ATOM      7  C   UNL     1       2.613   2.435  18.331  0.00  0.00    +0.000 A 
ATOM      8  C   UNL     1       1.688   3.226  17.657  0.00  0.00    +0.000 A 
ATOM      9  C   UNL     1       1.831   4.609  17.657  0.00  0.00    +0.000 A 
ATOM     10  C   UNL     1       2.903   5.230  18.330  0.00  0.00    +0.000 A 
ATOM     11  C   UNL     1       3.812   4.431  19.055  0.00  0.00    +0.000 A 
BRANCH  10  12
ATOM     12  C   UNL     1       2.954   6.725  18.293  0.00  0.00    +0.000 C 
ATOM     13  O   UNL     1       3.829   7.313  17.666  0.00  0.00    +0.000 OA
ATOM     14  N   UNL     1       1.968   7.371  19.022  0.00  0.00    +0.000 N 
ATOM     15  H   UNL     1       1.150   6.841  19.288  0.00  0.00    +0.000 HD
BRANCH  14  16
ATOM     16  C   UNL     1       1.877   8.821  19.131  0.00  0.00    +0.000 C 
ATOM     17  C   UNL     1       1.277   9.405  17.856  0.00  0.00    +0.000 C 
ATOM     18  C   UNL     1       1.032   9.208  20.346  0.00  0.00    +0.000 C 
ENDBRANCH  14  16
ENDBRANCH  10  12
ENDBRANCH   1  11
BRANCH   2  19
ATOM     19  C   UNL     1       6.508   5.186  17.877  0.00  0.00    +0.000 A 
ATOM     20  C   UNL     1       6.330   4.236  16.892  0.00  0.00    +0.000 A 
ATOM     21  C   UNL     1       6.409   4.890  15.651  0.00  0.00    +0.000 A 
ATOM     22  N   UNL     1       6.731   6.179  15.827  0.00  0.00    +0.000 NA
ATOM     23  N   UNL     1       6.924   6.320  17.178  0.00  0.00    +0.000 N 
BRANCH  23  24
ATOM     24  C   UNL     1       7.469   7.544  17.662  0.00  0.00    +0.000 A 
ATOM     25  C   UNL     1       8.437   7.503  18.677  0.00  0.00    +0.000 A 
ATOM     26  C   UNL     1       9.045   8.683  19.111  0.00  0.00    +0.000 A 
ATOM     27  C   UNL     1       8.657   9.907  18.571  0.00  0.00    +0.000 A 
ATOM     28  C   UNL     1       7.652   9.957  17.605  0.00  0.00    +0.000 A 
ATOM     29  C   UNL     1       7.055   8.779  17.151  0.00  0.00    +0.000 A 
ENDBRANCH  23  24
BRANCH  21  30
ATOM     30  C   UNL     1       6.086   4.256  14.324  0.00  0.00    +0.000 C 
ATOM     31  F   UNL     1       6.206   2.896  14.391  0.00  0.00    +0.000 F 
ATOM     32  F   UNL     1       4.810   4.496  13.920  0.00  0.00    +0.000 F 
ATOM     33  F   UNL     1       6.912   4.659  13.326  0.00  0.00    +0.000 F 
ENDBRANCH  21  30
ENDBRANCH   2  19
TORSDOF 6
ENDMDL
MODEL 2
REMARK VINA RESULT:      -7.6      0.066      1.107
REMARK  Name = 
REMARK  9 active torsions:
REMARK  status: ('A' for Active; 'I' for Inactive)
REMARK    1  A    between atoms: C_1  and  C_2
REMARK    2  A    between atoms: C_6  and  C_7
REMARK    3  A    between atoms: N_9  and  C_10
REMARK    4  A    between atoms: C_10  and  C_11
REMARK    5  A    between atoms: C_10  and  C_12
REMARK    6  A    between atoms: C_13  and  N_14
REMARK    7  A    between atoms: C_15  and  C_17
REMARK    8  A    between atoms: C_19  and  C_20
REMARK    9  A    between atoms: N_25  and  C_26
REMARK                            x       y       z     vdW  Elec       q    Type
REMARK                         _______ _______ _______ _____ _____    ______ ____
ROOT
ATOM      1  N   UNL     1       4.888   5.010  19.760  0.00  0.00    +0.000 N 
ATOM      2  C   UNL     1       6.191   5.157  19.300  0.00  0.00    +0.000 C 
ATOM      3  O   UNL     1       7.037   5.350  20.183  0.00  0.00    +0.000 OA
ATOM      4  H   UNL     1       4.955   4.731  20.735  0.00  0.00    +0.000 HD
ENDROOT
BRANCH   1  11
ATOM      5  C   UNL     1       4.601   2.140  19.751  0.00  0.00    +0.000 C 
ATOM      6  C   UNL     1       3.666   3.065  19.007  0.00  0.00    +0.000 A 
ATOM      7  C   UNL     1       2.586   2.488  18.320  0.00  0.00    +0.000 A 
ATOM      8  C   UNL     1       1.664   3.283  17.649  0.00  0.00    +0.000 A 
ATOM      9  C   UNL     1       1.811   4.666  17.652  0.00  0.00    +0.000 A 
ATOM     10  C   UNL     1       2.884   5.282  18.327  0.00  0.00    +0.000 A 
ATOM     11  C   UNL     1       3.791   4.478  19.050  0.00  0.00    +0.000 A 
BRANCH  10  12
ATOM     12  C   UNL     1       2.939   6.777  18.295  0.00  0.00    +0.000 C 
ATOM     13  O   UNL     1       3.841   7.364  17.707  0.00  0.00    +0.000 OA
ATOM     14  N   UNL     1       1.923   7.424  18.981  0.00  0.00    +0.000 N 
ATOM     15  H   UNL     1       1.093   6.894  19.210  0.00  0.00    +0.000 HD
BRANCH  14  16
ATOM     16  C   UNL     1       1.830   8.874  19.088  0.00  0.00    +0.000 C 
ATOM     17  C   UNL     1       1.159   9.448  17.845  0.00  0.00    +0.000 C 
ATOM     18  C   UNL     1       1.049   9.262  20.345  0.00  0.00    +0.000 C 
ENDBRANCH  14  16
ENDBRANCH  10  12
ENDBRANCH   1  11
BRANCH   2  19
ATOM     19  C   UNL     1       6.501   5.197  17.880  0.00  0.00    +0.000 A 
ATOM     20  C   UNL     1       6.291   4.252  16.896  0.00  0.00    +0.000 A 
ATOM     21  C   UNL     1       6.400   4.900  15.654  0.00  0.00    +0.000 A 
ATOM     22  N   UNL     1       6.771   6.176  15.829  0.00  0.00    +0.000 NA
ATOM     23  N   UNL     1       6.963   6.312  17.181  0.00  0.00    +0.000 N 
BRANCH  23  24
ATOM     24  C   UNL     1       7.553   7.515  17.665  0.00  0.00    +0.000 A 
ATOM     25  C   UNL     1       7.164   8.739  17.100  0.00  0.00    +0.000 A 
ATOM     26  C   UNL     1       7.667   9.937  17.611  0.00  0.00    +0.000 A 
ATOM     27  C   UNL     1       8.592   9.916  18.652  0.00  0.00    +0.000 A 
ATOM     28  C   UNL     1       9.028   8.699  19.175  0.00  0.00    +0.000 A 
ATOM     29  C   UNL     1       8.513   7.498  18.683  0.00  0.00    +0.000 A 
ENDBRANCH  23  24
BRANCH  21  30
ATOM     30  C   UNL     1       6.058   4.276  14.327  0.00  0.00    +0.000 C 
ATOM     31  F   UNL     1       6.876   4.750  13.340  0.00  0.00    +0.000 F 
ATOM     32  F   UNL     1       6.216   2.926  14.322  0.00  0.00    +0.000 F 
ATOM     33  F   UNL     1       4.790   4.541  13.925  0.00  0.00    +0.000 F 
ENDBRANCH  21  30
ENDBRANCH   2  19
TORSDOF 6
ENDMDL
MODEL 3
REMARK VINA RESULT:      -7.1      8.833     11.459
REMARK  Name = 
REMARK  9 active torsions:
REMARK  status: ('A' for Active; 'I' for Inactive)
REMARK    1  A    between atoms: C_1  and  C_2
REMARK    2  A    between atoms: C_6  and  C_7
REMARK    3  A    between atoms: N_9  and  C_10
REMARK    4  A    between atoms: C_10  and  C_11
REMARK    5  A    between atoms: C_10  and  C_12
REMARK    6  A    between atoms: C_13  and  N_14
REMARK    7  A    between atoms: C_15  and  C_17
REMARK    8  A    between atoms: C_19  and  C_20
REMARK    9  A    between atoms: N_25  and  C_26
REMARK                            x       y       z     vdW  Elec       q    Type
REMARK                         _______ _______ _______ _____ _____    ______ ____
ROOT
ATOM      1  N   UNL     1      -0.235  12.336  20.147  0.00  0.00    +0.000 N 
ATOM      2  C   UNL     1      -1.253  12.804  19.325  0.00  0.00    +0.000 C 
ATOM      3  O   UNL     1      -0.885  13.566  18.422  0.00  0.00    +0.000 OA
ATOM      4  H   UNL     1       0.628  12.425  19.619  0.00  0.00    +0.000 HD
ENDROOT
BRANCH   1  11
ATOM      5  C   UNL     1       0.465   9.750  19.079  0.00  0.00    +0.000 C 
ATOM      6  C   UNL     1       0.009   9.959  20.505  0.00  0.00    +0.000 A 
ATOM      7  C   UNL     1      -0.028   8.837  21.349  0.00  0.00    +0.000 A 
ATOM      8  C   UNL     1      -0.398   8.964  22.684  0.00  0.00    +0.000 A 
ATOM      9  C   UNL     1      -0.739  10.213  23.192  0.00  0.00    +0.000 A 
ATOM     10  C   UNL     1      -0.718  11.361  22.375  0.00  0.00    +0.000 A 
ATOM     11  C   UNL     1      -0.294  11.240  21.034  0.00  0.00    +0.000 A 
BRANCH  10  12
ATOM     12  C   UNL     1      -1.076  12.662  23.021  0.00  0.00    +0.000 C 
ATOM     13  O   UNL     1      -0.249  13.561  23.135  0.00  0.00    +0.000 OA
ATOM     14  N   UNL     1      -2.379  12.756  23.484  0.00  0.00    +0.000 N 
ATOM     15  H   UNL     1      -3.057  12.096  23.129  0.00  0.00    +0.000 HD
BRANCH  14  16
ATOM     16  C   UNL     1      -2.899  13.932  24.169  0.00  0.00    +0.000 C 
ATOM     17  C   UNL     1      -2.813  15.150  23.256  0.00  0.00    +0.000 C 
ATOM     18  C   UNL     1      -4.346  13.692  24.607  0.00  0.00    +0.000 C 
ENDBRANCH  14  16
ENDBRANCH  10  12
ENDBRANCH   1  11
BRANCH   2  19
ATOM     19  C   UNL     1      -2.650  12.506  19.593  0.00  0.00    +0.000 A 
ATOM     20  C   UNL     1      -3.446  12.857  20.665  0.00  0.00    +0.000 A 
ATOM     21  C   UNL     1      -4.784  12.669  20.281  0.00  0.00    +0.000 A 
ATOM     22  N   UNL     1      -4.842  12.119  19.060  0.00  0.00    +0.000 NA
ATOM     23  N   UNL     1      -3.536  11.897  18.704  0.00  0.00    +0.000 N 
BRANCH  23  24
ATOM     24  C   UNL     1      -3.273  11.138  17.528  0.00  0.00    +0.000 A 
ATOM     25  C   UNL     1      -3.903  11.502  16.328  0.00  0.00    +0.000 A 
ATOM     26  C   UNL     1      -3.600  10.824  15.145  0.00  0.00    +0.000 A 
ATOM     27  C   UNL     1      -2.707   9.755  15.164  0.00  0.00    +0.000 A 
ATOM     28  C   UNL     1      -2.126   9.350  16.365  0.00  0.00    +0.000 A 
ATOM     29  C   UNL     1      -2.409  10.037  17.548  0.00  0.00    +0.000 A 
ENDBRANCH  23  24
BRANCH  21  30
ATOM     30  C   UNL     1      -5.979  13.109  21.086  0.00  0.00    +0.000 C 
ATOM     31  F   UNL     1      -5.754  14.324  21.670  0.00  0.00    +0.000 F 
ATOM     32  F   UNL     1      -7.098  13.262  20.330  0.00  0.00    +0.000 F 
ATOM     33  F   UNL     1      -6.282  12.256  22.097  0.00  0.00    +0.000 F 
ENDBRANCH  21  30
ENDBRANCH   2  19
TORSDOF 6
ENDMDL
MODEL 4
REMARK VINA RESULT:      -7.1      7.731     11.139
REMARK  Name = 
REMARK  9 active torsions:
REMARK  status: ('A' for Active; 'I' for Inactive)
REMARK    1  A    between atoms: C_1  and  C_2
REMARK    2  A    between atoms: C_6  and  C_7
REMARK    3  A    between atoms: N_9  and  C_10
REMARK    4  A    between atoms: C_10  and  C_11
REMARK    5  A    between atoms: C_10  and  C_12
REMARK    6  A    between atoms: C_13  and  N_14
REMARK    7  A    between atoms: C_15  and  C_17
REMARK    8  A    between atoms: C_19  and  C_20
REMARK    9  A    between atoms: N_25  and  C_26
REMARK                            x       y       z     vdW  Elec       q    Type
REMARK                         _______ _______ _______ _____ _____    ______ ____
ROOT
ATOM      1  N   UNL     1      -2.269  13.127  19.020  0.00  0.00    +0.000 N 
ATOM      2  C   UNL     1      -1.223  13.011  19.928  0.00  0.00    +0.000 C 
ATOM      3  O   UNL     1      -0.455  13.981  19.965  0.00  0.00    +0.000 OA
ATOM      4  H   UNL     1      -2.391  14.120  18.843  0.00  0.00    +0.000 HD
ENDROOT
BRANCH   1  11
ATOM      5  C   UNL     1      -2.286  10.862  17.234  0.00  0.00    +0.000 C 
ATOM      6  C   UNL     1      -3.479  11.262  18.072  0.00  0.00    +0.000 A 
ATOM      7  C   UNL     1      -4.627  10.457  17.999  0.00  0.00    +0.000 A 
ATOM      8  C   UNL     1      -5.746  10.742  18.774  0.00  0.00    +0.000 A 
ATOM      9  C   UNL     1      -5.733  11.839  19.630  0.00  0.00    +0.000 A 
ATOM     10  C   UNL     1      -4.601  12.672  19.727  0.00  0.00    +0.000 A 
ATOM     11  C   UNL     1      -3.448  12.353  18.978  0.00  0.00    +0.000 A 
BRANCH  10  12
ATOM     12  C   UNL     1      -4.676  13.811  20.696  0.00  0.00    +0.000 C 
ATOM     13  O   UNL     1      -3.714  14.548  20.881  0.00  0.00    +0.000 OA
ATOM     14  N   UNL     1      -5.884  13.945  21.361  0.00  0.00    +0.000 N 
ATOM     15  H   UNL     1      -6.693  13.477  20.975  0.00  0.00    +0.000 HD
BRANCH  14  16
ATOM     16  C   UNL     1      -6.134  14.972  22.364  0.00  0.00    +0.000 C 
ATOM     17  C   UNL     1      -6.773  16.194  21.713  0.00  0.00    +0.000 C 
ATOM     18  C   UNL     1      -7.034  14.423  23.472  0.00  0.00    +0.000 C 
ENDBRANCH  14  16
ENDBRANCH  10  12
ENDBRANCH   1  11
BRANCH   2  19
ATOM     19  C   UNL     1      -0.997  11.789  20.682  0.00  0.00    +0.000 A 
ATOM     20  C   UNL     1      -0.450  10.585  20.284  0.00  0.00    +0.000 A 
ATOM     21  C   UNL     1      -0.099   9.874  21.443  0.00  0.00    +0.000 A 
ATOM     22  N   UNL     1      -0.501  10.540  22.535  0.00  0.00    +0.000 NA
ATOM     23  N   UNL     1      -1.169  11.640  22.058  0.00  0.00    +0.000 N 
BRANCH  23  24
ATOM     24  C   UNL     1      -1.888  12.451  22.983  0.00  0.00    +0.000 A 
ATOM     25  C   UNL     1      -1.330  13.669  23.397  0.00  0.00    +0.000 A 
ATOM     26  C   UNL     1      -2.050  14.519  24.239  0.00  0.00    +0.000 A 
ATOM     27  C   UNL     1      -3.305  14.135  24.708  0.00  0.00    +0.000 A 
ATOM     28  C   UNL     1      -3.837  12.897  24.348  0.00  0.00    +0.000 A 
ATOM     29  C   UNL     1      -3.131  12.052  23.489  0.00  0.00    +0.000 A 
ENDBRANCH  23  24
BRANCH  21  30
ATOM     30  C   UNL     1       0.697   8.596  21.459  0.00  0.00    +0.000 C 
ATOM     31  F   UNL     1       1.438   8.468  20.317  0.00  0.00    +0.000 F 
ATOM     32  F   UNL     1       1.586   8.539  22.485  0.00  0.00    +0.000 F 
ATOM     33  F   UNL     1      -0.080   7.486  21.529  0.00  0.00    +0.000 F 
ENDBRANCH  21  30
ENDBRANCH   2  19
TORSDOF 6
ENDMDL
MODEL 5
REMARK VINA RESULT:      -7.0      8.106     11.079
REMARK  Name = 
REMARK  9 active torsions:
REMARK  status: ('A' for Active; 'I' for Inactive)
REMARK    1  A    between atoms: C_1  and  C_2
REMARK    2  A    between atoms: C_6  and  C_7
REMARK    3  A    between atoms: N_9  and  C_10
REMARK    4  A    between atoms: C_10  and  C_11
REMARK    5  A    between atoms: C_10  and  C_12
REMARK    6  A    between atoms: C_13  and  N_14
REMARK    7  A    between atoms: C_15  and  C_17
REMARK    8  A    between atoms: C_19  and  C_20
REMARK    9  A    between atoms: N_25  and  C_26
REMARK                            x       y       z     vdW  Elec       q    Type
REMARK                         _______ _______ _______ _____ _____    ______ ____
ROOT
ATOM      1  N   UNL     1      -1.782  14.170  20.112  0.00  0.00    +0.000 N 
ATOM      2  C   UNL     1      -0.957  13.373  19.328  0.00  0.00    +0.000 C 
ATOM      3  O   UNL     1      -0.507  13.925  18.316  0.00  0.00    +0.000 OA
ATOM      4  H   UNL     1      -1.551  15.134  19.888  0.00  0.00    +0.000 HD
ENDROOT
BRANCH   1  11
ATOM      5  C   UNL     1       0.232  14.515  22.148  0.00  0.00    +0.000 C 
ATOM      6  C   UNL     1      -1.178  14.062  22.450  0.00  0.00    +0.000 A 
ATOM      7  C   UNL     1      -1.521  13.846  23.794  0.00  0.00    +0.000 A 
ATOM      8  C   UNL     1      -2.812  13.469  24.147  0.00  0.00    +0.000 A 
ATOM      9  C   UNL     1      -3.777  13.299  23.160  0.00  0.00    +0.000 A 
ATOM     10  C   UNL     1      -3.470  13.503  21.800  0.00  0.00    +0.000 A 
ATOM     11  C   UNL     1      -2.174  13.934  21.447  0.00  0.00    +0.000 A 
BRANCH  10  12
ATOM     12  C   UNL     1      -4.584  13.321  20.817  0.00  0.00    +0.000 C 
ATOM     13  O   UNL     1      -4.739  14.102  19.885  0.00  0.00    +0.000 OA
ATOM     14  N   UNL     1      -5.414  12.236  21.055  0.00  0.00    +0.000 N 
ATOM     15  H   UNL     1      -5.077  11.507  21.669  0.00  0.00    +0.000 HD
BRANCH  14  16
ATOM     16  C   UNL     1      -6.568  11.918  20.225  0.00  0.00    +0.000 C 
ATOM     17  C   UNL     1      -6.609  10.422  19.936  0.00  0.00    +0.000 C 
ATOM     18  C   UNL     1      -7.857  12.365  20.919  0.00  0.00    +0.000 C 
ENDBRANCH  14  16
ENDBRANCH  10  12
ENDBRANCH   1  11
BRANCH   2  19
ATOM     19  C   UNL     1      -0.746  11.965  19.627  0.00  0.00    +0.000 A 
ATOM     20  C   UNL     1       0.072  11.366  20.564  0.00  0.00    +0.000 A 
ATOM     21  C   UNL     1      -0.362  10.039  20.720  0.00  0.00    +0.000 A 
ATOM     22  N   UNL     1      -1.340   9.766  19.845  0.00  0.00    +0.000 NA
ATOM     23  N   UNL     1      -1.475  10.904  19.090  0.00  0.00    +0.000 N 
BRANCH  23  24
ATOM     24  C   UNL     1      -2.312  10.859  17.938  0.00  0.00    +0.000 A 
ATOM     25  C   UNL     1      -1.894  10.118  16.822  0.00  0.00    +0.000 A 
ATOM     26  C   UNL     1      -2.733   9.992  15.713  0.00  0.00    +0.000 A 
ATOM     27  C   UNL     1      -3.965  10.641  15.693  0.00  0.00    +0.000 A 
ATOM     28  C   UNL     1      -4.357  11.429  16.775  0.00  0.00    +0.000 A 
ATOM     29  C   UNL     1      -3.533  11.541  17.897  0.00  0.00    +0.000 A 
ENDBRANCH  23  24
BRANCH  21  30
ATOM     30  C   UNL     1       0.136   9.092  21.779  0.00  0.00    +0.000 C 
ATOM     31  F   UNL     1       0.760   8.014  21.216  0.00  0.00    +0.000 F 
ATOM     32  F   UNL     1       1.052   9.660  22.607  0.00  0.00    +0.000 F 
ATOM     33  F   UNL     1      -0.858   8.589  22.554  0.00  0.00    +0.000 F 
ENDBRANCH  21  30
ENDBRANCH   2  19
TORSDOF 6
ENDMDL
MODEL 6
REMARK VINA RESULT:      -7.0      7.778     11.126
REMARK  Name = 
REMARK  9 active torsions:
REMARK  status: ('A' for Active; 'I' for Inactive)
REMARK    1  A    between atoms: C_1  and  C_2
REMARK    2  A    between atoms: C_6  and  C_7
REMARK    3  A    between atoms: N_9  and  C_10
REMARK    4  A    between atoms: C_10  and  C_11
REMARK    5  A    between atoms: C_10  and  C_12
REMARK    6  A    between atoms: C_13  and  N_14
REMARK    7  A    between atoms: C_15  and  C_17
REMARK    8  A    between atoms: C_19  and  C_20
REMARK    9  A    between atoms: N_25  and  C_26
REMARK                            x       y       z     vdW  Elec       q    Type
REMARK                         _______ _______ _______ _____ _____    ______ ____
ROOT
ATOM      1  N   UNL     1      -2.222  13.133  18.988  0.00  0.00    +0.000 N 
ATOM      2  C   UNL     1      -1.190  13.038  19.914  0.00  0.00    +0.000 C 
ATOM      3  O   UNL     1      -0.427  14.012  19.946  0.00  0.00    +0.000 OA
ATOM      4  H   UNL     1      -2.346  14.122  18.793  0.00  0.00    +0.000 HD
ENDROOT
BRANCH   1  11
ATOM      5  C   UNL     1      -2.221  10.871  17.200  0.00  0.00    +0.000 C 
ATOM      6  C   UNL     1      -3.419  11.263  18.035  0.00  0.00    +0.000 A 
ATOM      7  C   UNL     1      -4.562  10.451  17.958  0.00  0.00    +0.000 A 
ATOM      8  C   UNL     1      -5.685  10.730  18.730  0.00  0.00    +0.000 A 
ATOM      9  C   UNL     1      -5.680  11.825  19.587  0.00  0.00    +0.000 A 
ATOM     10  C   UNL     1      -4.553  12.665  19.689  0.00  0.00    +0.000 A 
ATOM     11  C   UNL     1      -3.397  12.353  18.942  0.00  0.00    +0.000 A 
BRANCH  10  12
ATOM     12  C   UNL     1      -4.638  13.801  20.658  0.00  0.00    +0.000 C 
ATOM     13  O   UNL     1      -3.706  14.587  20.795  0.00  0.00    +0.000 OA
ATOM     14  N   UNL     1      -5.817  13.877  21.382  0.00  0.00    +0.000 N 
ATOM     15  H   UNL     1      -6.619  13.369  21.037  0.00  0.00    +0.000 HD
BRANCH  14  16
ATOM     16  C   UNL     1      -6.067  14.895  22.395  0.00  0.00    +0.000 C 
ATOM     17  C   UNL     1      -6.699  16.126  21.754  0.00  0.00    +0.000 C 
ATOM     18  C   UNL     1      -6.976  14.337  23.492  0.00  0.00    +0.000 C 
ENDBRANCH  14  16
ENDBRANCH  10  12
ENDBRANCH   1  11
BRANCH   2  19
ATOM     19  C   UNL     1      -0.969  11.830  20.692  0.00  0.00    +0.000 A 
ATOM     20  C   UNL     1      -0.419  10.620  20.321  0.00  0.00    +0.000 A 
ATOM     21  C   UNL     1      -0.076   9.930  21.496  0.00  0.00    +0.000 A 
ATOM     22  N   UNL     1      -0.488  10.616  22.572  0.00  0.00    +0.000 NA
ATOM     23  N   UNL     1      -1.152  11.707  22.069  0.00  0.00    +0.000 N 
BRANCH  23  24
ATOM     24  C   UNL     1      -1.879  12.534  22.973  0.00  0.00    +0.000 A 
ATOM     25  C   UNL     1      -3.119  12.089  23.456  0.00  0.00    +0.000 A 
ATOM     26  C   UNL     1      -3.812  12.844  24.404  0.00  0.00    +0.000 A 
ATOM     27  C   UNL     1      -3.296  14.063  24.837  0.00  0.00    +0.000 A 
ATOM     28  C   UNL     1      -2.094  14.539  24.313  0.00  0.00    +0.000 A 
ATOM     29  C   UNL     1      -1.385  13.779  23.380  0.00  0.00    +0.000 A 
ENDBRANCH  23  24
BRANCH  21  30
ATOM     30  C   UNL     1       0.720   8.653  21.541  0.00  0.00    +0.000 C 
ATOM     31  F   UNL     1       1.493   8.599  22.667  0.00  0.00    +0.000 F 
ATOM     32  F   UNL     1      -0.064   7.543  21.577  0.00  0.00    +0.000 F 
ATOM     33  F   UNL     1       1.571   8.519  20.493  0.00  0.00    +0.000 F 
ENDBRANCH  21  30
ENDBRANCH   2  19
TORSDOF 6
ENDMDL
MODEL 7
REMARK VINA RESULT:      -6.8      6.273      9.993
REMARK  Name = 
REMARK  9 active torsions:
REMARK  status: ('A' for Active; 'I' for Inactive)
REMARK    1  A    between atoms: C_1  and  C_2
REMARK    2  A    between atoms: C_6  and  C_7
REMARK    3  A    between atoms: N_9  and  C_10
REMARK    4  A    between atoms: C_10  and  C_11
REMARK    5  A    between atoms: C_10  and  C_12
REMARK    6  A    between atoms: C_13  and  N_14
REMARK    7  A    between atoms: C_15  and  C_17
REMARK    8  A    between atoms: C_19  and  C_20
REMARK    9  A    between atoms: N_25  and  C_26
REMARK                            x       y       z     vdW  Elec       q    Type
REMARK                         _______ _______ _______ _____ _____    ______ ____
ROOT
ATOM      1  N   UNL     1       1.031  12.896  21.022  0.00  0.00    +0.000 N 
ATOM      2  C   UNL     1       0.557  11.591  21.085  0.00  0.00    +0.000 C 
ATOM      3  O   UNL     1       1.109  10.876  21.931  0.00  0.00    +0.000 OA
ATOM      4  H   UNL     1       1.470  13.088  21.918  0.00  0.00    +0.000 HD
ENDROOT
BRANCH   1  11
ATOM      5  C   UNL     1       1.939  13.603  18.378  0.00  0.00    +0.000 C 
ATOM      6  C   UNL     1       0.875  14.378  19.120  0.00  0.00    +0.000 A 
ATOM      7  C   UNL     1       0.279  15.465  18.459  0.00  0.00    +0.000 A 
ATOM      8  C   UNL     1      -0.736  16.196  19.067  0.00  0.00    +0.000 A 
ATOM      9  C   UNL     1      -1.166  15.853  20.344  0.00  0.00    +0.000 A 
ATOM     10  C   UNL     1      -0.590  14.772  21.040  0.00  0.00    +0.000 A 
ATOM     11  C   UNL     1       0.405  13.999  20.404  0.00  0.00    +0.000 A 
BRANCH  10  12
ATOM     12  C   UNL     1      -1.140  14.467  22.398  0.00  0.00    +0.000 C 
ATOM     13  O   UNL     1      -0.407  14.406  23.379  0.00  0.00    +0.000 OA
ATOM     14  N   UNL     1      -2.507  14.245  22.448  0.00  0.00    +0.000 N 
ATOM     15  H   UNL     1      -3.068  14.563  21.670  0.00  0.00    +0.000 HD
BRANCH  14  16
ATOM     16  C   UNL     1      -3.216  13.903  23.674  0.00  0.00    +0.000 C 
ATOM     17  C   UNL     1      -4.541  14.655  23.741  0.00  0.00    +0.000 C 
ATOM     18  C   UNL     1      -3.452  12.393  23.744  0.00  0.00    +0.000 C 
ENDBRANCH  14  16
ENDBRANCH  10  12
ENDBRANCH   1  11
BRANCH   2  19
ATOM     19  C   UNL     1      -0.429  11.090  20.141  0.00  0.00    +0.000 A 
ATOM     20  C   UNL     1      -1.737  11.478  19.930  0.00  0.00    +0.000 A 
ATOM     21  C   UNL     1      -2.133  10.973  18.680  0.00  0.00    +0.000 A 
ATOM     22  N   UNL     1      -1.164  10.206  18.162  0.00  0.00    +0.000 NA
ATOM     23  N   UNL     1      -0.183  10.172  19.121  0.00  0.00    +0.000 N 
BRANCH  23  24
ATOM     24  C   UNL     1       0.907   9.271  18.944  0.00  0.00    +0.000 A 
ATOM     25  C   UNL     1       1.177   8.325  19.945  0.00  0.00    +0.000 A 
ATOM     26  C   UNL     1       2.187   7.380  19.760  0.00  0.00    +0.000 A 
ATOM     27  C   UNL     1       2.961   7.404  18.601  0.00  0.00    +0.000 A 
ATOM     28  C   UNL     1       2.736   8.381  17.632  0.00  0.00    +0.000 A 
ATOM     29  C   UNL     1       1.713   9.317  17.801  0.00  0.00    +0.000 A 
ENDBRANCH  23  24
BRANCH  21  30
ATOM     30  C   UNL     1      -3.422  11.321  17.983  0.00  0.00    +0.000 C 
ATOM     31  F   UNL     1      -3.183  11.804  16.727  0.00  0.00    +0.000 F 
ATOM     32  F   UNL     1      -4.240  10.248  17.818  0.00  0.00    +0.000 F 
ATOM     33  F   UNL     1      -4.133  12.281  18.626  0.00  0.00    +0.000 F 
ENDBRANCH  21  30
ENDBRANCH   2  19
TORSDOF 6
ENDMDL
MODEL 8
REMARK VINA RESULT:      -6.8      8.400     11.238
REMARK  Name = 
REMARK  9 active torsions:
REMARK  status: ('A' for Active; 'I' for Inactive)
REMARK    1  A    between atoms: C_1  and  C_2
REMARK    2  A    between atoms: C_6  and  C_7
REMARK    3  A    between atoms: N_9  and  C_10
REMARK    4  A    between atoms: C_10  and  C_11
REMARK    5  A    between atoms: C_10  and  C_12
REMARK    6  A    between atoms: C_13  and  N_14
REMARK    7  A    between atoms: C_15  and  C_17
REMARK    8  A    between atoms: C_19  and  C_20
REMARK    9  A    between atoms: N_25  and  C_26
REMARK                            x       y       z     vdW  Elec       q    Type
REMARK                         _______ _______ _______ _____ _____    ______ ____
ROOT
ATOM      1  N   UNL     1      -1.892  13.987  19.683  0.00  0.00    +0.000 N 
ATOM      2  C   UNL     1      -2.662  13.270  20.591  0.00  0.00    +0.000 C 
ATOM      3  O   UNL     1      -3.878  13.496  20.537  0.00  0.00    +0.000 OA
ATOM      4  H   UNL     1      -2.516  14.267  18.932  0.00  0.00    +0.000 HD
ENDROOT
BRANCH   1  11
ATOM      5  C   UNL     1       0.107  15.916  20.457  0.00  0.00    +0.000 C 
ATOM      6  C   UNL     1       0.422  14.684  19.640  0.00  0.00    +0.000 A 
ATOM      7  C   UNL     1       1.762  14.458  19.287  0.00  0.00    +0.000 A 
ATOM      8  C   UNL     1       2.128  13.323  18.573  0.00  0.00    +0.000 A 
ATOM      9  C   UNL     1       1.158  12.399  18.199  0.00  0.00    +0.000 A 
ATOM     10  C   UNL     1      -0.198  12.592  18.531  0.00  0.00    +0.000 A 
ATOM     11  C   UNL     1      -0.561  13.719  19.299  0.00  0.00    +0.000 A 
BRANCH  10  12
ATOM     12  C   UNL     1      -1.160  11.528  18.106  0.00  0.00    +0.000 C 
ATOM     13  O   UNL     1      -1.047  10.375  18.508  0.00  0.00    +0.000 OA
ATOM     14  N   UNL     1      -2.151  11.940  17.229  0.00  0.00    +0.000 N 
ATOM     15  H   UNL     1      -2.335  12.931  17.152  0.00  0.00    +0.000 HD
BRANCH  14  16
ATOM     16  C   UNL     1      -3.157  11.039  16.681  0.00  0.00    +0.000 C 
ATOM     17  C   UNL     1      -4.543  11.660  16.813  0.00  0.00    +0.000 C 
ATOM     18  C   UNL     1      -2.846  10.728  15.216  0.00  0.00    +0.000 C 
ENDBRANCH  14  16
ENDBRANCH  10  12
ENDBRANCH   1  11
BRANCH   2  19
ATOM     19  C   UNL     1      -2.057  12.415  21.599  0.00  0.00    +0.000 A 
ATOM     20  C   UNL     1      -1.660  11.094  21.525  0.00  0.00    +0.000 A 
ATOM     21  C   UNL     1      -0.800  10.848  22.608  0.00  0.00    +0.000 A 
ATOM     22  N   UNL     1      -0.734  11.926  23.401  0.00  0.00    +0.000 NA
ATOM     23  N   UNL     1      -1.609  12.830  22.854  0.00  0.00    +0.000 N 
BRANCH  23  24
ATOM     24  C   UNL     1      -1.909  14.014  23.586  0.00  0.00    +0.000 A 
ATOM     25  C   UNL     1      -0.909  14.984  23.749  0.00  0.00    +0.000 A 
ATOM     26  C   UNL     1      -1.201  16.189  24.393  0.00  0.00    +0.000 A 
ATOM     27  C   UNL     1      -2.474  16.408  24.916  0.00  0.00    +0.000 A 
ATOM     28  C   UNL     1      -3.453  15.421  24.810  0.00  0.00    +0.000 A 
ATOM     29  C   UNL     1      -3.174  14.223  24.148  0.00  0.00    +0.000 A 
ENDBRANCH  23  24
BRANCH  21  30
ATOM     30  C   UNL     1       0.004   9.588  22.797  0.00  0.00    +0.000 C 
ATOM     31  F   UNL     1       0.215   9.339  24.124  0.00  0.00    +0.000 F 
ATOM     32  F   UNL     1      -0.621   8.485  22.307  0.00  0.00    +0.000 F 
ATOM     33  F   UNL     1       1.232   9.650  22.224  0.00  0.00    +0.000 F 
ENDBRANCH  21  30
ENDBRANCH   2  19
TORSDOF 6
ENDMDL
MODEL 9
REMARK VINA RESULT:      -6.8      8.024     10.788
REMARK  Name = 
REMARK  9 active torsions:
REMARK  status: ('A' for Active; 'I' for Inactive)
REMARK    1  A    between atoms: C_1  and  C_2
REMARK    2  A    between atoms: C_6  and  C_7
REMARK    3  A    between atoms: N_9  and  C_10
REMARK    4  A    between atoms: C_10  and  C_11
REMARK    5  A    between atoms: C_10  and  C_12
REMARK    6  A    between atoms: C_13  and  N_14
REMARK    7  A    between atoms: C_15  and  C_17
REMARK    8  A    between atoms: C_19  and  C_20
REMARK    9  A    between atoms: N_25  and  C_26
REMARK                            x       y       z     vdW  Elec       q    Type
REMARK                         _______ _______ _______ _____ _____    ______ ____
ROOT
ATOM      1  N   UNL     1      -2.174  13.828  19.717  0.00  0.00    +0.000 N 
ATOM      2  C   UNL     1      -1.315  12.791  19.373  0.00  0.00    +0.000 C 
ATOM      3  O   UNL     1      -1.329  12.477  18.176  0.00  0.00    +0.000 OA
ATOM      4  H   UNL     1      -2.360  14.345  18.862  0.00  0.00    +0.000 HD
ENDROOT
BRANCH   1  11
ATOM      5  C   UNL     1      -0.374  16.080  19.773  0.00  0.00    +0.000 C 
ATOM      6  C   UNL     1      -1.235  15.683  20.949  0.00  0.00    +0.000 A 
ATOM      7  C   UNL     1      -1.178  16.484  22.101  0.00  0.00    +0.000 A 
ATOM      8  C   UNL     1      -1.975  16.200  23.205  0.00  0.00    +0.000 A 
ATOM      9  C   UNL     1      -2.837  15.109  23.174  0.00  0.00    +0.000 A 
ATOM     10  C   UNL     1      -2.919  14.279  22.037  0.00  0.00    +0.000 A 
ATOM     11  C   UNL     1      -2.148  14.597  20.899  0.00  0.00    +0.000 A 
BRANCH  10  12
ATOM     12  C   UNL     1      -3.896  13.147  22.092  0.00  0.00    +0.000 C 
ATOM     13  O   UNL     1      -3.726  12.201  22.852  0.00  0.00    +0.000 OA
ATOM     14  N   UNL     1      -4.969  13.247  21.220  0.00  0.00    +0.000 N 
ATOM     15  H   UNL     1      -5.177  14.154  20.825  0.00  0.00    +0.000 HD
BRANCH  14  16
ATOM     16  C   UNL     1      -6.003  12.227  21.107  0.00  0.00    +0.000 C 
ATOM     17  C   UNL     1      -7.318  12.749  21.677  0.00  0.00    +0.000 C 
ATOM     18  C   UNL     1      -6.180  11.812  19.645  0.00  0.00    +0.000 C 
ENDBRANCH  14  16
ENDBRANCH  10  12
ENDBRANCH   1  11
BRANCH   2  19
ATOM     19  C   UNL     1      -0.553  12.065  20.377  0.00  0.00    +0.000 A 
ATOM     20  C   UNL     1      -0.949  11.068  21.246  0.00  0.00    +0.000 A 
ATOM     21  C   UNL     1       0.211  10.438  21.726  0.00  0.00    +0.000 A 
ATOM     22  N   UNL     1       1.302  11.071  21.274  0.00  0.00    +0.000 NA
ATOM     23  N   UNL     1       0.827  12.144  20.563  0.00  0.00    +0.000 N 
BRANCH  23  24
ATOM     24  C   UNL     1       1.756  13.126  20.114  0.00  0.00    +0.000 A 
ATOM     25  C   UNL     1       2.139  13.134  18.765  0.00  0.00    +0.000 A 
ATOM     26  C   UNL     1       2.985  14.136  18.284  0.00  0.00    +0.000 A 
ATOM     27  C   UNL     1       3.487  15.101  19.154  0.00  0.00    +0.000 A 
ATOM     28  C   UNL     1       3.158  15.060  20.508  0.00  0.00    +0.000 A 
ATOM     29  C   UNL     1       2.295  14.074  20.992  0.00  0.00    +0.000 A 
ENDBRANCH  23  24
BRANCH  21  30
ATOM     30  C   UNL     1       0.225   9.180  22.553  0.00  0.00    +0.000 C 
ATOM     31  F   UNL     1      -0.828   8.371  22.229  0.00  0.00    +0.000 F 
ATOM     32  F   UNL     1       1.342   8.431  22.356  0.00  0.00    +0.000 F 
ATOM     33  F   UNL     1       0.122   9.417  23.885  0.00  0.00    +0.000 F 
ENDBRANCH  21  30
ENDBRANCH   2  19
TORSDOF 6
ENDMDL
