MODEL 1
REMARK VINA RESULT:      -6.2      0.000      0.000
REMARK  Name = 
REMARK  2 active torsions:
REMARK  status: ('A' for Active; 'I' for Inactive)
REMARK    1  A    between atoms: C_1  and  C_2
REMARK    2  A    between atoms: N_9  and  C_10
REMARK                            x       y       z     vdW  Elec       q    Type
REMARK                         _______ _______ _______ _____ _____    ______ ____
ROOT
ATOM      1  C   UNL     1      -0.220   9.707  21.955  0.00  0.00    +0.000 C 
ATOM      2  C   UNL     1       0.536   9.190  20.785  0.00  0.00    +0.000 A 
ATOM      3  C   UNL     1       0.599   9.776  19.535  0.00  0.00    +0.000 A 
ATOM      4  S   UNL     1       1.586   8.836  18.502  0.00  0.00    +0.000 S 
ATOM      5  C   UNL     1       1.902   7.763  19.793  0.00  0.00    +0.000 A 
ATOM      6  N   UNL     1       2.691   6.648  19.629  0.00  0.00    +0.000 N 
ATOM      7  C   UNL     1       3.696   6.544  18.693  0.00  0.00    +0.000 C 
ATOM      8  O   UNL     1       4.112   7.459  17.988  0.00  0.00    +0.000 OA
ATOM      9  N   UNL     1       4.184   5.244  18.613  0.00  0.00    +0.000 N 
ATOM     10  N   UNL     1       1.261   8.012  20.912  0.00  0.00    +0.000 NA
ATOM     11  H   UNL     1       2.753   6.070  20.452  0.00  0.00    +0.000 HD
ATOM     12  H   UNL     1       3.492   4.529  18.797  0.00  0.00    +0.000 HD
ENDROOT
BRANCH   9  13
ATOM     13  C   UNL     1       5.244   4.902  17.740  0.00  0.00    +0.000 A 
ATOM     14  C   UNL     1       6.573   4.889  18.169  0.00  0.00    +0.000 A 
ATOM     15  C   UNL     1       7.561   4.588  17.248  0.00  0.00    +0.000 A 
ATOM     16  N   UNL     1       7.316   4.311  15.952  0.00  0.00    +0.000 NA
ATOM     17  C   UNL     1       6.022   4.326  15.575  0.00  0.00    +0.000 A 
ATOM     18 CL   UNL     1       5.765   4.038  13.903  0.00  0.00    +0.000 Cl
ATOM     19  C   UNL     1       4.954   4.583  16.418  0.00  0.00    +0.000 A 
ENDBRANCH   9  13
TORSDOF 1
ENDMDL
MODEL 2
REMARK VINA RESULT:      -6.1      6.392      8.097
REMARK  Name = 
REMARK  2 active torsions:
REMARK  status: ('A' for Active; 'I' for Inactive)
REMARK    1  A    between atoms: C_1  and  C_2
REMARK    2  A    between atoms: N_9  and  C_10
REMARK                            x       y       z     vdW  Elec       q    Type
REMARK                         _______ _______ _______ _____ _____    ______ ____
ROOT
ATOM      1  C   UNL     1       5.909   4.024  15.400  0.00  0.00    +0.000 C 
ATOM      2  C   UNL     1       6.339   4.947  16.482  0.00  0.00    +0.000 A 
ATOM      3  C   UNL     1       6.362   4.660  17.834  0.00  0.00    +0.000 A 
ATOM      4  S   UNL     1       6.929   6.017  18.705  0.00  0.00    +0.000 S 
ATOM      5  C   UNL     1       7.156   6.858  17.236  0.00  0.00    +0.000 A 
ATOM      6  N   UNL     1       7.616   8.154  17.208  0.00  0.00    +0.000 N 
ATOM      7  C   UNL     1       8.419   8.709  18.180  0.00  0.00    +0.000 C 
ATOM      8  O   UNL     1       8.940   8.099  19.110  0.00  0.00    +0.000 OA
ATOM      9  N   UNL     1       8.558  10.082  18.001  0.00  0.00    +0.000 N 
ATOM     10  N   UNL     1       6.764   6.228  16.152  0.00  0.00    +0.000 NA
ATOM     11  H   UNL     1       7.653   8.552  16.283  0.00  0.00    +0.000 HD
ATOM     12  H   UNL     1       7.746  10.531  17.599  0.00  0.00    +0.000 HD
ENDROOT
BRANCH   9  13
ATOM     13  C   UNL     1       9.365  10.864  18.863  0.00  0.00    +0.000 A 
ATOM     14  C   UNL     1       9.141  10.905  20.240  0.00  0.00    +0.000 A 
ATOM     15  C   UNL     1       9.943  11.726  21.014  0.00  0.00    +0.000 A 
ATOM     16  N   UNL     1      10.927  12.497  20.514  0.00  0.00    +0.000 NA
ATOM     17  C   UNL     1      11.118  12.428  19.181  0.00  0.00    +0.000 A 
ATOM     18 CL   UNL     1      12.333  13.480  18.581  0.00  0.00    +0.000 Cl
ATOM     19  C   UNL     1      10.398  11.618  18.319  0.00  0.00    +0.000 A 
ENDBRANCH   9  13
TORSDOF 1
ENDMDL
MODEL 3
REMARK VINA RESULT:      -5.9      2.098      3.098
REMARK  Name = 
REMARK  2 active torsions:
REMARK  status: ('A' for Active; 'I' for Inactive)
REMARK    1  A    between atoms: C_1  and  C_2
REMARK    2  A    between atoms: N_9  and  C_10
REMARK                            x       y       z     vdW  Elec       q    Type
REMARK                         _______ _______ _______ _____ _____    ______ ____
ROOT
ATOM      1  C   UNL     1      -0.355  12.775  22.253  0.00  0.00    +0.000 C 
ATOM      2  C   UNL     1      -0.127  11.666  21.291  0.00  0.00    +0.000 A 
ATOM      3  C   UNL     1      -0.564  11.625  19.980  0.00  0.00    +0.000 A 
ATOM      4  S   UNL     1      -0.073  10.159  19.250  0.00  0.00    +0.000 S 
ATOM      5  C   UNL     1       0.726   9.715  20.694  0.00  0.00    +0.000 A 
ATOM      6  N   UNL     1       1.381   8.512  20.818  0.00  0.00    +0.000 N 
ATOM      7  C   UNL     1       1.930   7.820  19.761  0.00  0.00    +0.000 C 
ATOM      8  O   UNL     1       2.035   8.238  18.611  0.00  0.00    +0.000 OA
ATOM      9  N   UNL     1       2.341   6.548  20.146  0.00  0.00    +0.000 N 
ATOM     10  N   UNL     1       0.583  10.545  21.703  0.00  0.00    +0.000 NA
ATOM     11  H   UNL     1       1.762   8.350  21.736  0.00  0.00    +0.000 HD
ATOM     12  H   UNL     1       1.776   6.133  20.875  0.00  0.00    +0.000 HD
ENDROOT
BRANCH   9  13
ATOM     13  C   UNL     1       2.966   5.663  19.234  0.00  0.00    +0.000 A 
ATOM     14  C   UNL     1       2.227   4.770  18.456  0.00  0.00    +0.000 A 
ATOM     15  C   UNL     1       2.909   3.904  17.618  0.00  0.00    +0.000 A 
ATOM     16  N   UNL     1       4.251   3.867  17.514  0.00  0.00    +0.000 NA
ATOM     17  C   UNL     1       4.932   4.747  18.275  0.00  0.00    +0.000 A 
ATOM     18 CL   UNL     1       6.638   4.614  18.163  0.00  0.00    +0.000 Cl
ATOM     19  C   UNL     1       4.351   5.676  19.122  0.00  0.00    +0.000 A 
ENDBRANCH   9  13
TORSDOF 1
ENDMDL
MODEL 4
REMARK VINA RESULT:      -5.8      2.633      3.151
REMARK  Name = 
REMARK  2 active torsions:
REMARK  status: ('A' for Active; 'I' for Inactive)
REMARK    1  A    between atoms: C_1  and  C_2
REMARK    2  A    between atoms: N_9  and  C_10
REMARK                            x       y       z     vdW  Elec       q    Type
REMARK                         _______ _______ _______ _____ _____    ______ ____
ROOT
ATOM      1  C   UNL     1      -1.544  12.389  20.436  0.00  0.00    +0.000 C 
ATOM      2  C   UNL     1      -0.582  11.285  20.689  0.00  0.00    +0.000 A 
ATOM      3  C   UNL     1      -0.196  10.812  21.929  0.00  0.00    +0.000 A 
ATOM      4  S   UNL     1       0.925   9.536  21.740  0.00  0.00    +0.000 S 
ATOM      5  C   UNL     1       0.773   9.662  20.043  0.00  0.00    +0.000 A 
ATOM      6  N   UNL     1       1.495   8.860  19.190  0.00  0.00    +0.000 N 
ATOM      7  C   UNL     1       1.950   7.601  19.515  0.00  0.00    +0.000 C 
ATOM      8  O   UNL     1       1.660   6.978  20.532  0.00  0.00    +0.000 OA
ATOM      9  N   UNL     1       2.821   7.110  18.547  0.00  0.00    +0.000 N 
ATOM     10  N   UNL     1       0.009  10.640  19.610  0.00  0.00    +0.000 NA
ATOM     11  H   UNL     1       1.355   9.074  18.216  0.00  0.00    +0.000 HD
ATOM     12  H   UNL     1       3.374   7.822  18.088  0.00  0.00    +0.000 HD
ENDROOT
BRANCH   9  13
ATOM     13  C   UNL     1       3.391   5.819  18.649  0.00  0.00    +0.000 A 
ATOM     14  C   UNL     1       4.668   5.622  19.179  0.00  0.00    +0.000 A 
ATOM     15  C   UNL     1       5.179   4.335  19.208  0.00  0.00    +0.000 A 
ATOM     16  N   UNL     1       4.516   3.257  18.746  0.00  0.00    +0.000 NA
ATOM     17  C   UNL     1       3.285   3.484  18.247  0.00  0.00    +0.000 A 
ATOM     18 CL   UNL     1       2.509   2.095  17.606  0.00  0.00    +0.000 Cl
ATOM     19  C   UNL     1       2.666   4.722  18.199  0.00  0.00    +0.000 A 
ENDBRANCH   9  13
TORSDOF 1
ENDMDL
MODEL 5
REMARK VINA RESULT:      -5.8      4.318      4.620
REMARK  Name = 
REMARK  2 active torsions:
REMARK  status: ('A' for Active; 'I' for Inactive)
REMARK    1  A    between atoms: C_1  and  C_2
REMARK    2  A    between atoms: N_9  and  C_10
REMARK                            x       y       z     vdW  Elec       q    Type
REMARK                         _______ _______ _______ _____ _____    ______ ____
ROOT
ATOM      1  C   UNL     1       1.462   2.679  22.027  0.00  0.00    +0.000 C 
ATOM      2  C   UNL     1       1.899   2.648  20.607  0.00  0.00    +0.000 A 
ATOM      3  C   UNL     1       1.110   2.318  19.521  0.00  0.00    +0.000 A 
ATOM      4  S   UNL     1       2.030   2.419  18.084  0.00  0.00    +0.000 S 
ATOM      5  C   UNL     1       3.379   2.945  18.991  0.00  0.00    +0.000 A 
ATOM      6  N   UNL     1       4.590   3.213  18.398  0.00  0.00    +0.000 N 
ATOM      7  C   UNL     1       4.736   3.617  17.089  0.00  0.00    +0.000 C 
ATOM      8  O   UNL     1       3.820   3.925  16.331  0.00  0.00    +0.000 OA
ATOM      9  N   UNL     1       6.072   3.613  16.701  0.00  0.00    +0.000 N 
ATOM     10  N   UNL     1       3.213   2.972  20.294  0.00  0.00    +0.000 NA
ATOM     11  H   UNL     1       5.316   3.461  19.050  0.00  0.00    +0.000 HD
ATOM     12  H   UNL     1       6.631   2.899  17.149  0.00  0.00    +0.000 HD
ENDROOT
BRANCH   9  13
ATOM     13  C   UNL     1       6.470   4.023  15.406  0.00  0.00    +0.000 A 
ATOM     14  C   UNL     1       7.379   5.064  15.213  0.00  0.00    +0.000 A 
ATOM     15  C   UNL     1       7.688   5.439  13.917  0.00  0.00    +0.000 A 
ATOM     16  N   UNL     1       7.155   4.859  12.824  0.00  0.00    +0.000 NA
ATOM     17  C   UNL     1       6.285   3.854  13.048  0.00  0.00    +0.000 A 
ATOM     18 CL   UNL     1       5.579   3.195  11.630  0.00  0.00    +0.000 Cl
ATOM     19  C   UNL     1       5.931   3.378  14.299  0.00  0.00    +0.000 A 
ENDBRANCH   9  13
TORSDOF 1
ENDMDL
MODEL 6
REMARK VINA RESULT:      -5.8      6.195      7.808
REMARK  Name = 
REMARK  2 active torsions:
REMARK  status: ('A' for Active; 'I' for Inactive)
REMARK    1  A    between atoms: C_1  and  C_2
REMARK    2  A    between atoms: N_9  and  C_10
REMARK                            x       y       z     vdW  Elec       q    Type
REMARK                         _______ _______ _______ _____ _____    ______ ____
ROOT
ATOM      1  C   UNL     1       5.224   3.796  15.838  0.00  0.00    +0.000 C 
ATOM      2  C   UNL     1       5.834   4.743  16.807  0.00  0.00    +0.000 A 
ATOM      3  C   UNL     1       6.102   4.483  18.138  0.00  0.00    +0.000 A 
ATOM      4  S   UNL     1       6.805   5.860  18.868  0.00  0.00    +0.000 S 
ATOM      5  C   UNL     1       6.757   6.673  17.366  0.00  0.00    +0.000 A 
ATOM      6  N   UNL     1       7.193   7.970  17.232  0.00  0.00    +0.000 N 
ATOM      7  C   UNL     1       8.153   8.548  18.033  0.00  0.00    +0.000 C 
ATOM      8  O   UNL     1       8.837   7.960  18.865  0.00  0.00    +0.000 OA
ATOM      9  N   UNL     1       8.245   9.918  17.807  0.00  0.00    +0.000 N 
ATOM     10  N   UNL     1       6.182   6.019  16.382  0.00  0.00    +0.000 NA
ATOM     11  H   UNL     1       7.060   8.350  16.308  0.00  0.00    +0.000 HD
ATOM     12  H   UNL     1       7.370  10.355  17.549  0.00  0.00    +0.000 HD
ENDROOT
BRANCH   9  13
ATOM     13  C   UNL     1       9.187  10.721  18.494  0.00  0.00    +0.000 A 
ATOM     14  C   UNL     1      10.404  11.081  17.915  0.00  0.00    +0.000 A 
ATOM     15  C   UNL     1      11.295  11.833  18.663  0.00  0.00    +0.000 A 
ATOM     16  N   UNL     1      11.058  12.232  19.927  0.00  0.00    +0.000 NA
ATOM     17  C   UNL     1       9.870  11.872  20.452  0.00  0.00    +0.000 A 
ATOM     18 CL   UNL     1       9.642  12.342  22.086  0.00  0.00    +0.000 Cl
ATOM     19  C   UNL     1       8.895  11.151  19.783  0.00  0.00    +0.000 A 
ENDBRANCH   9  13
TORSDOF 1
ENDMDL
MODEL 7
REMARK VINA RESULT:      -5.7      2.549      3.401
REMARK  Name = 
REMARK  2 active torsions:
REMARK  status: ('A' for Active; 'I' for Inactive)
REMARK    1  A    between atoms: C_1  and  C_2
REMARK    2  A    between atoms: N_9  and  C_10
REMARK                            x       y       z     vdW  Elec       q    Type
REMARK                         _______ _______ _______ _____ _____    ______ ____
ROOT
ATOM      1  C   UNL     1      -0.186  13.368  20.761  0.00  0.00    +0.000 C 
ATOM      2  C   UNL     1       0.025  12.048  20.112  0.00  0.00    +0.000 A 
ATOM      3  C   UNL     1      -0.347  11.707  18.825  0.00  0.00    +0.000 A 
ATOM      4  S   UNL     1       0.095  10.087  18.504  0.00  0.00    +0.000 S 
ATOM      5  C   UNL     1       0.793   9.976  20.060  0.00  0.00    +0.000 A 
ATOM      6  N   UNL     1       1.369   8.811  20.513  0.00  0.00    +0.000 N 
ATOM      7  C   UNL     1       1.930   7.858  19.691  0.00  0.00    +0.000 C 
ATOM      8  O   UNL     1       2.117   7.977  18.484  0.00  0.00    +0.000 OA
ATOM      9  N   UNL     1       2.246   6.702  20.398  0.00  0.00    +0.000 N 
ATOM     10  N   UNL     1       0.647  11.032  20.827  0.00  0.00    +0.000 NA
ATOM     11  H   UNL     1       1.693   8.862  21.465  0.00  0.00    +0.000 HD
ATOM     12  H   UNL     1       1.622   6.503  21.168  0.00  0.00    +0.000 HD
ENDROOT
BRANCH   9  13
ATOM     13  C   UNL     1       2.864   5.594  19.769  0.00  0.00    +0.000 A 
ATOM     14  C   UNL     1       4.235   5.568  19.513  0.00  0.00    +0.000 A 
ATOM     15  C   UNL     1       4.763   4.469  18.855  0.00  0.00    +0.000 A 
ATOM     16  N   UNL     1       4.025   3.422  18.438  0.00  0.00    +0.000 NA
ATOM     17  C   UNL     1       2.706   3.479  18.707  0.00  0.00    +0.000 A 
ATOM     18 CL   UNL     1       1.797   2.159  18.096  0.00  0.00    +0.000 Cl
ATOM     19  C   UNL     1       2.080   4.512  19.386  0.00  0.00    +0.000 A 
ENDBRANCH   9  13
TORSDOF 1
ENDMDL
MODEL 8
REMARK VINA RESULT:      -5.7      3.795      7.722
REMARK  Name = 
REMARK  2 active torsions:
REMARK  status: ('A' for Active; 'I' for Inactive)
REMARK    1  A    between atoms: C_1  and  C_2
REMARK    2  A    between atoms: N_9  and  C_10
REMARK                            x       y       z     vdW  Elec       q    Type
REMARK                         _______ _______ _______ _____ _____    ______ ____
ROOT
ATOM      1  C   UNL     1       7.163   4.606  17.341  0.00  0.00    +0.000 C 
ATOM      2  C   UNL     1       5.784   5.051  17.669  0.00  0.00    +0.000 A 
ATOM      3  C   UNL     1       4.815   4.294  18.300  0.00  0.00    +0.000 A 
ATOM      4  S   UNL     1       3.383   5.212  18.473  0.00  0.00    +0.000 S 
ATOM      5  C   UNL     1       4.164   6.553  17.758  0.00  0.00    +0.000 A 
ATOM      6  N   UNL     1       3.509   7.744  17.547  0.00  0.00    +0.000 N 
ATOM      7  C   UNL     1       2.448   8.185  18.307  0.00  0.00    +0.000 C 
ATOM      8  O   UNL     1       2.040   7.660  19.339  0.00  0.00    +0.000 OA
ATOM      9  N   UNL     1       1.854   9.311  17.744  0.00  0.00    +0.000 N 
ATOM     10  N   UNL     1       5.387   6.338  17.329  0.00  0.00    +0.000 NA
ATOM     11  H   UNL     1       4.065   8.434  17.068  0.00  0.00    +0.000 HD
ATOM     12  H   UNL     1       1.890   9.337  16.733  0.00  0.00    +0.000 HD
ENDROOT
BRANCH   9  13
ATOM     13  C   UNL     1       0.762   9.962  18.365  0.00  0.00    +0.000 A 
ATOM     14  C   UNL     1      -0.549   9.783  17.920  0.00  0.00    +0.000 A 
ATOM     15  C   UNL     1      -1.562  10.486  18.549  0.00  0.00    +0.000 A 
ATOM     16  N   UNL     1      -1.356  11.344  19.566  0.00  0.00    +0.000 NA
ATOM     17  C   UNL     1      -0.080  11.488  19.974  0.00  0.00    +0.000 A 
ATOM     18 CL   UNL     1       0.142  12.642  21.224  0.00  0.00    +0.000 Cl
ATOM     19  C   UNL     1       1.004  10.811  19.439  0.00  0.00    +0.000 A 
ENDBRANCH   9  13
TORSDOF 1
ENDMDL
MODEL 9
REMARK VINA RESULT:      -5.7      2.490      3.068
REMARK  Name = 
REMARK  2 active torsions:
REMARK  status: ('A' for Active; 'I' for Inactive)
REMARK    1  A    between atoms: C_1  and  C_2
REMARK    2  A    between atoms: N_9  and  C_10
REMARK                            x       y       z     vdW  Elec       q    Type
REMARK                         _______ _______ _______ _____ _____    ______ ____
ROOT
ATOM      1  C   UNL     1      -2.200  11.802  19.004  0.00  0.00    +0.000 C 
ATOM      2  C   UNL     1      -0.984  11.023  19.352  0.00  0.00    +0.000 A 
ATOM      3  C   UNL     1      -0.415  10.924  20.607  0.00  0.00    +0.000 A 
ATOM      4  S   UNL     1       0.969   9.922  20.539  0.00  0.00    +0.000 S 
ATOM      5  C   UNL     1       0.681   9.649  18.877  0.00  0.00    +0.000 A 
ATOM      6  N   UNL     1       1.520   8.868  18.116  0.00  0.00    +0.000 N 
ATOM      7  C   UNL     1       2.288   7.842  18.621  0.00  0.00    +0.000 C 
ATOM      8  O   UNL     1       2.226   7.399  19.765  0.00  0.00    +0.000 OA
ATOM      9  N   UNL     1       3.188   7.366  17.672  0.00  0.00    +0.000 N 
ATOM     10  N   UNL     1      -0.324  10.314  18.356  0.00  0.00    +0.000 NA
ATOM     11  H   UNL     1       1.269   8.833  17.142  0.00  0.00    +0.000 HD
ATOM     12  H   UNL     1       3.520   8.071  17.026  0.00  0.00    +0.000 HD
ENDROOT
BRANCH   9  13
ATOM     13  C   UNL     1       4.062   6.289  17.953  0.00  0.00    +0.000 A 
ATOM     14  C   UNL     1       3.593   4.981  18.088  0.00  0.00    +0.000 A 
ATOM     15  C   UNL     1       4.500   3.984  18.406  0.00  0.00    +0.000 A 
ATOM     16  N   UNL     1       5.814   4.205  18.603  0.00  0.00    +0.000 NA
ATOM     17  C   UNL     1       6.232   5.478  18.459  0.00  0.00    +0.000 A 
ATOM     18 CL   UNL     1       7.898   5.722  18.789  0.00  0.00    +0.000 Cl
ATOM     19  C   UNL     1       5.419   6.544  18.112  0.00  0.00    +0.000 A 
ENDBRANCH   9  13
TORSDOF 1
ENDMDL
