MODEL 1
REMARK VINA RESULT:      -7.6      0.000      0.000
REMARK  Name = 
REMARK  13 active torsions:
REMARK  status: ('A' for Active; 'I' for Inactive)
REMARK    1  A    between atoms: C_1  and  C_2
REMARK    2  A    between atoms: C_2  and  C_3
REMARK    3  A    between atoms: C_3  and  C_4
REMARK    4  A    between atoms: C_3  and  C_5
REMARK    5  A    between atoms: C_3  and  C_7
REMARK    6  A    between atoms: C_5  and  C_6
REMARK    7  A    between atoms: C_7  and  C_8
REMARK    8  A    between atoms: C_11  and  C_12
REMARK    9  A    between atoms: C_12  and  C_13
REMARK   10  A    between atoms: C_13  and  C_14
REMARK   11  A    between atoms: C_17  and  C_18
REMARK   12  A    between atoms: C_23  and  C_24
REMARK   13  A    between atoms: C_24  and  O_26
REMARK                            x       y       z     vdW  Elec       q    Type
REMARK                         _______ _______ _______ _____ _____    ______ ____
ROOT
ATOM      1  C   UNL     1       7.012   6.887  18.056  0.00  0.00    +0.000 A 
ATOM      2  C   UNL     1       7.012   5.855  18.993  0.00  0.00    +0.000 A 
ATOM      3  C   UNL     1       5.903   5.020  19.108  0.00  0.00    +0.000 A 
ATOM      4  C   UNL     1       4.745   5.203  18.323  0.00  0.00    +0.000 A 
ATOM      5  C   UNL     1       4.741   6.295  17.442  0.00  0.00    +0.000 A 
ATOM      6  C   UNL     1       5.872   7.104  17.282  0.00  0.00    +0.000 A 
ENDROOT
BRANCH   4   7
ATOM      7  C   UNL     1       3.616   4.243  18.432  0.00  0.00    +0.000 A 
ATOM      8  C   UNL     1       3.656   3.078  17.625  0.00  0.00    +0.000 A 
ATOM      9  C   UNL     1       2.613   2.150  17.588  0.00  0.00    +0.000 A 
ATOM     10  C   UNL     1       1.498   2.336  18.387  0.00  0.00    +0.000 A 
ATOM     11  C   UNL     1       1.435   3.445  19.225  0.00  0.00    +0.000 A 
ATOM     12  C   UNL     1       2.471   4.403  19.253  0.00  0.00    +0.000 A 
BRANCH  12  13
ATOM     13  C   UNL     1       2.225   5.518  20.209  0.00  0.00    +0.000 C 
ATOM     14  O   UNL     1       1.982   6.652  19.830  0.00  0.00    +0.000 OA
BRANCH  13  15
ATOM     15  O   UNL     1       2.391   5.209  21.510  0.00  0.00    +0.000 OA
ATOM     16  H   UNL     1       2.496   4.258  21.698  0.00  0.00    +0.000 HD
ENDBRANCH  13  15
ENDBRANCH  12  13
ENDBRANCH   4   7
BRANCH   1  17
ATOM     17  C   UNL     1       8.248   7.719  17.863  0.00  0.00    +0.000 C 
BRANCH  17  18
ATOM     18  C   UNL     1       7.906   9.203  17.715  0.00  0.00    +0.000 C 
BRANCH  18  22
ATOM     19  C   UNL     1      10.461  11.583  18.741  0.00  0.00    +0.000 A 
ATOM     20  C   UNL     1      10.013  11.050  19.933  0.00  0.00    +0.000 A 
ATOM     21  N   UNL     1       9.096  10.063  19.723  0.00  0.00    +0.000 NA
ATOM     22  C   UNL     1       8.937  10.003  18.424  0.00  0.00    +0.000 A 
ATOM     23  N   UNL     1       9.772  10.887  17.781  0.00  0.00    +0.000 N 
ATOM     24  H   UNL     1       9.818  11.032  16.780  0.00  0.00    +0.000 HD
BRANCH  19  25
ATOM     25  C   UNL     1      11.427  12.678  18.413  0.00  0.00    +0.000 C 
BRANCH  25  26
ATOM     26  C   UNL     1      10.907  14.127  18.681  0.00  0.00    +0.000 C 
ATOM     27  C   UNL     1      11.769  15.127  17.873  0.00  0.00    +0.000 C 
BRANCH  26  29
ATOM     28  C   UNL     1       8.369  14.519  19.194  0.00  0.00    +0.000 C 
ATOM     29  C   UNL     1       9.437  14.199  18.151  0.00  0.00    +0.000 C 
ENDBRANCH  26  29
BRANCH  26  30
ATOM     30  C   UNL     1      10.964  14.512  20.188  0.00  0.00    +0.000 C 
ATOM     31  C   UNL     1      11.612  15.862  20.493  0.00  0.00    +0.000 C 
ENDBRANCH  26  30
ENDBRANCH  25  26
ENDBRANCH  19  25
ENDBRANCH  18  22
ENDBRANCH  17  18
ENDBRANCH   1  17
TORSDOF 10
ENDMDL
MODEL 2
REMARK VINA RESULT:      -7.6      3.224     10.389
REMARK  Name = 
REMARK  13 active torsions:
REMARK  status: ('A' for Active; 'I' for Inactive)
REMARK    1  A    between atoms: C_1  and  C_2
REMARK    2  A    between atoms: C_2  and  C_3
REMARK    3  A    between atoms: C_3  and  C_4
REMARK    4  A    between atoms: C_3  and  C_5
REMARK    5  A    between atoms: C_3  and  C_7
REMARK    6  A    between atoms: C_5  and  C_6
REMARK    7  A    between atoms: C_7  and  C_8
REMARK    8  A    between atoms: C_11  and  C_12
REMARK    9  A    between atoms: C_12  and  C_13
REMARK   10  A    between atoms: C_13  and  C_14
REMARK   11  A    between atoms: C_17  and  C_18
REMARK   12  A    between atoms: C_23  and  C_24
REMARK   13  A    between atoms: C_24  and  O_26
REMARK                            x       y       z     vdW  Elec       q    Type
REMARK                         _______ _______ _______ _____ _____    ______ ____
ROOT
ATOM      1  C   UNL     1       8.412   9.588  18.181  0.00  0.00    +0.000 A 
ATOM      2  C   UNL     1       8.230  10.794  17.505  0.00  0.00    +0.000 A 
ATOM      3  C   UNL     1       8.852  11.952  17.967  0.00  0.00    +0.000 A 
ATOM      4  C   UNL     1       9.644  11.960  19.134  0.00  0.00    +0.000 A 
ATOM      5  C   UNL     1       9.750  10.751  19.839  0.00  0.00    +0.000 A 
ATOM      6  C   UNL     1       9.174   9.572  19.351  0.00  0.00    +0.000 A 
ENDROOT
BRANCH   4   7
ATOM      7  C   UNL     1      10.343  13.204  19.546  0.00  0.00    +0.000 A 
ATOM      8  C   UNL     1      11.549  13.540  18.879  0.00  0.00    +0.000 A 
ATOM      9  C   UNL     1      12.329  14.640  19.239  0.00  0.00    +0.000 A 
ATOM     10  C   UNL     1      11.913  15.473  20.265  0.00  0.00    +0.000 A 
ATOM     11  C   UNL     1      10.715  15.203  20.920  0.00  0.00    +0.000 A 
ATOM     12  C   UNL     1       9.931  14.080  20.582  0.00  0.00    +0.000 A 
BRANCH  12  13
ATOM     13  C   UNL     1       8.687  13.957  21.393  0.00  0.00    +0.000 C 
ATOM     14  O   UNL     1       7.582  14.146  20.911  0.00  0.00    +0.000 OA
BRANCH  13  15
ATOM     15  O   UNL     1       8.875  13.728  22.707  0.00  0.00    +0.000 OA
ATOM     16  H   UNL     1       8.057  13.666  23.235  0.00  0.00    +0.000 HD
ENDBRANCH  13  15
ENDBRANCH  12  13
ENDBRANCH   4   7
BRANCH   1  17
ATOM     17  C   UNL     1       7.827   8.323  17.622  0.00  0.00    +0.000 C 
BRANCH  17  18
ATOM     18  C   UNL     1       8.113   7.125  18.530  0.00  0.00    +0.000 C 
BRANCH  18  22
ATOM     19  C   UNL     1       5.324   4.787  18.482  0.00  0.00    +0.000 A 
ATOM     20  C   UNL     1       5.837   4.711  17.203  0.00  0.00    +0.000 A 
ATOM     21  N   UNL     1       6.959   5.475  17.071  0.00  0.00    +0.000 NA
ATOM     22  C   UNL     1       7.127   6.056  18.232  0.00  0.00    +0.000 A 
ATOM     23  N   UNL     1       6.174   5.643  19.136  0.00  0.00    +0.000 N 
ATOM     24  H   UNL     1       6.090   5.964  20.091  0.00  0.00    +0.000 HD
BRANCH  19  25
ATOM     25  C   UNL     1       4.124   4.179  19.137  0.00  0.00    +0.000 C 
BRANCH  25  26
ATOM     26  C   UNL     1       2.752   4.801  18.722  0.00  0.00    +0.000 C 
ATOM     27  C   UNL     1       2.074   3.874  17.684  0.00  0.00    +0.000 C 
BRANCH  26  29
ATOM     28  C   UNL     1       1.005   3.609  20.266  0.00  0.00    +0.000 C 
ATOM     29  C   UNL     1       1.856   4.849  20.003  0.00  0.00    +0.000 C 
ENDBRANCH  26  29
BRANCH  26  30
ATOM     30  C   UNL     1       2.904   6.223  18.107  0.00  0.00    +0.000 C 
ATOM     31  C   UNL     1       2.429   7.372  18.994  0.00  0.00    +0.000 C 
ENDBRANCH  26  30
ENDBRANCH  25  26
ENDBRANCH  19  25
ENDBRANCH  18  22
ENDBRANCH  17  18
ENDBRANCH   1  17
TORSDOF 10
ENDMDL
MODEL 3
REMARK VINA RESULT:      -7.5      0.999      1.877
REMARK  Name = 
REMARK  13 active torsions:
REMARK  status: ('A' for Active; 'I' for Inactive)
REMARK    1  A    between atoms: C_1  and  C_2
REMARK    2  A    between atoms: C_2  and  C_3
REMARK    3  A    between atoms: C_3  and  C_4
REMARK    4  A    between atoms: C_3  and  C_5
REMARK    5  A    between atoms: C_3  and  C_7
REMARK    6  A    between atoms: C_5  and  C_6
REMARK    7  A    between atoms: C_7  and  C_8
REMARK    8  A    between atoms: C_11  and  C_12
REMARK    9  A    between atoms: C_12  and  C_13
REMARK   10  A    between atoms: C_13  and  C_14
REMARK   11  A    between atoms: C_17  and  C_18
REMARK   12  A    between atoms: C_23  and  C_24
REMARK   13  A    between atoms: C_24  and  O_26
REMARK                            x       y       z     vdW  Elec       q    Type
REMARK                         _______ _______ _______ _____ _____    ______ ____
ROOT
ATOM      1  C   UNL     1       6.801   6.986  17.645  0.00  0.00    +0.000 A 
ATOM      2  C   UNL     1       5.633   7.075  16.889  0.00  0.00    +0.000 A 
ATOM      3  C   UNL     1       4.592   6.175  17.106  0.00  0.00    +0.000 A 
ATOM      4  C   UNL     1       4.690   5.135  18.055  0.00  0.00    +0.000 A 
ATOM      5  C   UNL     1       5.904   5.020  18.749  0.00  0.00    +0.000 A 
ATOM      6  C   UNL     1       6.932   5.954  18.575  0.00  0.00    +0.000 A 
ENDROOT
BRANCH   4   7
ATOM      7  C   UNL     1       3.526   4.244  18.300  0.00  0.00    +0.000 A 
ATOM      8  C   UNL     1       3.475   3.012  17.600  0.00  0.00    +0.000 A 
ATOM      9  C   UNL     1       2.390   2.137  17.692  0.00  0.00    +0.000 A 
ATOM     10  C   UNL     1       1.324   2.447  18.519  0.00  0.00    +0.000 A 
ATOM     11  C   UNL     1       1.352   3.628  19.256  0.00  0.00    +0.000 A 
ATOM     12  C   UNL     1       2.430   4.532  19.152  0.00  0.00    +0.000 A 
BRANCH  12  13
ATOM     13  C   UNL     1       2.280   5.738  20.014  0.00  0.00    +0.000 C 
ATOM     14  O   UNL     1       2.139   6.855  19.543  0.00  0.00    +0.000 OA
BRANCH  13  15
ATOM     15  O   UNL     1       2.415   5.521  21.337  0.00  0.00    +0.000 OA
ATOM     16  H   UNL     1       2.696   6.299  21.855  0.00  0.00    +0.000 HD
ENDBRANCH  13  15
ENDBRANCH  12  13
ENDBRANCH   4   7
BRANCH   1  17
ATOM     17  C   UNL     1       7.877   8.021  17.480  0.00  0.00    +0.000 C 
BRANCH  17  18
ATOM     18  C   UNL     1       8.582   8.309  18.807  0.00  0.00    +0.000 C 
BRANCH  18  22
ATOM     19  C   UNL     1       9.902  11.608  19.598  0.00  0.00    +0.000 A 
ATOM     20  C   UNL     1       9.728  11.645  18.229  0.00  0.00    +0.000 A 
ATOM     21  N   UNL     1       9.151  10.497  17.770  0.00  0.00    +0.000 NA
ATOM     22  C   UNL     1       9.003   9.733  18.823  0.00  0.00    +0.000 A 
ATOM     23  N   UNL     1       9.415  10.379  19.967  0.00  0.00    +0.000 N 
ATOM     24  H   UNL     1       9.412   9.986  20.899  0.00  0.00    +0.000 HD
BRANCH  19  25
ATOM     25  C   UNL     1      10.495  12.572  20.576  0.00  0.00    +0.000 C 
BRANCH  25  26
ATOM     26  C   UNL     1       9.889  14.013  20.541  0.00  0.00    +0.000 C 
ATOM     27  C   UNL     1       8.356  13.908  20.354  0.00  0.00    +0.000 C 
BRANCH  26  29
ATOM     28  C   UNL     1       9.022  14.641  22.930  0.00  0.00    +0.000 C 
ATOM     29  C   UNL     1      10.175  14.672  21.930  0.00  0.00    +0.000 C 
ENDBRANCH  26  29
BRANCH  26  30
ATOM     30  C   UNL     1      10.481  14.880  19.392  0.00  0.00    +0.000 C 
ATOM     31  C   UNL     1      11.918  15.354  19.605  0.00  0.00    +0.000 C 
ENDBRANCH  26  30
ENDBRANCH  25  26
ENDBRANCH  19  25
ENDBRANCH  18  22
ENDBRANCH  17  18
ENDBRANCH   1  17
TORSDOF 10
ENDMDL
MODEL 4
REMARK VINA RESULT:      -7.5      5.947      9.192
REMARK  Name = 
REMARK  13 active torsions:
REMARK  status: ('A' for Active; 'I' for Inactive)
REMARK    1  A    between atoms: C_1  and  C_2
REMARK    2  A    between atoms: C_2  and  C_3
REMARK    3  A    between atoms: C_3  and  C_4
REMARK    4  A    between atoms: C_3  and  C_5
REMARK    5  A    between atoms: C_3  and  C_7
REMARK    6  A    between atoms: C_5  and  C_6
REMARK    7  A    between atoms: C_7  and  C_8
REMARK    8  A    between atoms: C_11  and  C_12
REMARK    9  A    between atoms: C_12  and  C_13
REMARK   10  A    between atoms: C_13  and  C_14
REMARK   11  A    between atoms: C_17  and  C_18
REMARK   12  A    between atoms: C_23  and  C_24
REMARK   13  A    between atoms: C_24  and  O_26
REMARK                            x       y       z     vdW  Elec       q    Type
REMARK                         _______ _______ _______ _____ _____    ______ ____
ROOT
ATOM      1  C   UNL     1       1.927   7.221  20.093  0.00  0.00    +0.000 A 
ATOM      2  C   UNL     1       2.187   7.762  18.836  0.00  0.00    +0.000 A 
ATOM      3  C   UNL     1       1.752   9.050  18.529  0.00  0.00    +0.000 A 
ATOM      4  C   UNL     1       1.015   9.828  19.446  0.00  0.00    +0.000 A 
ATOM      5  C   UNL     1       0.701   9.231  20.677  0.00  0.00    +0.000 A 
ATOM      6  C   UNL     1       1.181   7.960  21.012  0.00  0.00    +0.000 A 
ENDROOT
BRANCH   4   7
ATOM      7  C   UNL     1       0.635  11.222  19.098  0.00  0.00    +0.000 A 
ATOM      8  C   UNL     1       1.526  12.263  19.463  0.00  0.00    +0.000 A 
ATOM      9  C   UNL     1       1.233  13.612  19.258  0.00  0.00    +0.000 A 
ATOM     10  C   UNL     1       0.045  13.974  18.645  0.00  0.00    +0.000 A 
ATOM     11  C   UNL     1      -0.841  12.981  18.234  0.00  0.00    +0.000 A 
ATOM     12  C   UNL     1      -0.567  11.616  18.459  0.00  0.00    +0.000 A 
BRANCH  12  13
ATOM     13  C   UNL     1      -1.631  10.705  17.951  0.00  0.00    +0.000 C 
ATOM     14  O   UNL     1      -2.716  10.609  18.502  0.00  0.00    +0.000 OA
BRANCH  13  15
ATOM     15  O   UNL     1      -1.275   9.925  16.911  0.00  0.00    +0.000 OA
ATOM     16  H   UNL     1      -0.676   9.189  17.135  0.00  0.00    +0.000 HD
ENDBRANCH  13  15
ENDBRANCH  12  13
ENDBRANCH   4   7
BRANCH   1  17
ATOM     17  C   UNL     1       2.488   5.875  20.456  0.00  0.00    +0.000 C 
BRANCH  17  18
ATOM     18  C   UNL     1       1.581   4.742  19.970  0.00  0.00    +0.000 C 
BRANCH  18  22
ATOM     19  C   UNL     1       3.706   3.497  17.290  0.00  0.00    +0.000 A 
ATOM     20  C   UNL     1       3.418   2.368  18.030  0.00  0.00    +0.000 A 
ATOM     21  N   UNL     1       2.548   2.646  19.043  0.00  0.00    +0.000 NA
ATOM     22  C   UNL     1       2.324   3.934  18.969  0.00  0.00    +0.000 A 
ATOM     23  N   UNL     1       2.981   4.492  17.896  0.00  0.00    +0.000 N 
ATOM     24  H   UNL     1       2.972   5.471  17.644  0.00  0.00    +0.000 HD
BRANCH  19  25
ATOM     25  C   UNL     1       4.597   3.745  16.114  0.00  0.00    +0.000 C 
BRANCH  25  26
ATOM     26  C   UNL     1       5.712   4.818  16.338  0.00  0.00    +0.000 C 
ATOM     27  C   UNL     1       5.086   6.227  16.193  0.00  0.00    +0.000 C 
BRANCH  26  29
ATOM     28  C   UNL     1       7.689   5.027  18.040  0.00  0.00    +0.000 C 
ATOM     29  C   UNL     1       6.228   4.653  17.804  0.00  0.00    +0.000 C 
ENDBRANCH  26  29
BRANCH  26  30
ATOM     30  C   UNL     1       6.885   4.679  15.325  0.00  0.00    +0.000 C 
ATOM     31  C   UNL     1       6.498   4.143  13.947  0.00  0.00    +0.000 C 
ENDBRANCH  26  30
ENDBRANCH  25  26
ENDBRANCH  19  25
ENDBRANCH  18  22
ENDBRANCH  17  18
ENDBRANCH   1  17
TORSDOF 10
ENDMDL
MODEL 5
REMARK VINA RESULT:      -7.5      0.825      1.442
REMARK  Name = 
REMARK  13 active torsions:
REMARK  status: ('A' for Active; 'I' for Inactive)
REMARK    1  A    between atoms: C_1  and  C_2
REMARK    2  A    between atoms: C_2  and  C_3
REMARK    3  A    between atoms: C_3  and  C_4
REMARK    4  A    between atoms: C_3  and  C_5
REMARK    5  A    between atoms: C_3  and  C_7
REMARK    6  A    between atoms: C_5  and  C_6
REMARK    7  A    between atoms: C_7  and  C_8
REMARK    8  A    between atoms: C_11  and  C_12
REMARK    9  A    between atoms: C_12  and  C_13
REMARK   10  A    between atoms: C_13  and  C_14
REMARK   11  A    between atoms: C_17  and  C_18
REMARK   12  A    between atoms: C_23  and  C_24
REMARK   13  A    between atoms: C_24  and  O_26
REMARK                            x       y       z     vdW  Elec       q    Type
REMARK                         _______ _______ _______ _____ _____    ______ ____
ROOT
ATOM      1  C   UNL     1       7.199   6.866  18.094  0.00  0.00    +0.000 A 
ATOM      2  C   UNL     1       6.147   7.012  17.192  0.00  0.00    +0.000 A 
ATOM      3  C   UNL     1       5.035   6.177  17.279  0.00  0.00    +0.000 A 
ATOM      4  C   UNL     1       4.946   5.148  18.240  0.00  0.00    +0.000 A 
ATOM      5  C   UNL     1       6.051   4.973  19.087  0.00  0.00    +0.000 A 
ATOM      6  C   UNL     1       7.147   5.842  19.041  0.00  0.00    +0.000 A 
ENDROOT
BRANCH   4   7
ATOM      7  C   UNL     1       3.710   4.330  18.338  0.00  0.00    +0.000 A 
ATOM      8  C   UNL     1       3.711   3.049  17.729  0.00  0.00    +0.000 A 
ATOM      9  C   UNL     1       2.580   2.231  17.690  0.00  0.00    +0.000 A 
ATOM     10  C   UNL     1       1.406   2.652  18.291  0.00  0.00    +0.000 A 
ATOM     11  C   UNL     1       1.372   3.885  18.935  0.00  0.00    +0.000 A 
ATOM     12  C   UNL     1       2.500   4.731  18.959  0.00  0.00    +0.000 A 
BRANCH  12  13
ATOM     13  C   UNL     1       2.271   6.008  19.693  0.00  0.00    +0.000 C 
ATOM     14  O   UNL     1       2.010   6.029  20.885  0.00  0.00    +0.000 OA
BRANCH  13  15
ATOM     15  O   UNL     1       2.271   7.119  18.931  0.00  0.00    +0.000 OA
ATOM     16  H   UNL     1       1.627   7.801  19.199  0.00  0.00    +0.000 HD
ENDBRANCH  13  15
ENDBRANCH  12  13
ENDBRANCH   4   7
BRANCH   1  17
ATOM     17  C   UNL     1       8.347   7.834  18.064  0.00  0.00    +0.000 C 
BRANCH  17  18
ATOM     18  C   UNL     1       7.867   9.264  17.804  0.00  0.00    +0.000 C 
BRANCH  18  22
ATOM     19  C   UNL     1       9.932  12.111  18.740  0.00  0.00    +0.000 A 
ATOM     20  C   UNL     1      10.045  11.257  19.819  0.00  0.00    +0.000 A 
ATOM     21  N   UNL     1       9.388  10.083  19.593  0.00  0.00    +0.000 NA
ATOM     22  C   UNL     1       8.836  10.210  18.413  0.00  0.00    +0.000 A 
ATOM     23  N   UNL     1       9.166  11.416  17.839  0.00  0.00    +0.000 N 
ATOM     24  H   UNL     1       8.846  11.747  16.937  0.00  0.00    +0.000 HD
BRANCH  19  25
ATOM     25  C   UNL     1      10.430  13.498  18.482  0.00  0.00    +0.000 C 
BRANCH  25  26
ATOM     26  C   UNL     1       9.847  14.601  19.424  0.00  0.00    +0.000 C 
ATOM     27  C   UNL     1      10.101  15.989  18.788  0.00  0.00    +0.000 C 
BRANCH  26  29
ATOM     28  C   UNL     1       7.483  14.916  18.343  0.00  0.00    +0.000 C 
ATOM     29  C   UNL     1       8.303  14.370  19.510  0.00  0.00    +0.000 C 
ENDBRANCH  26  29
BRANCH  26  30
ATOM     30  C   UNL     1      10.485  14.571  20.844  0.00  0.00    +0.000 C 
ATOM     31  C   UNL     1       9.511  14.309  21.992  0.00  0.00    +0.000 C 
ENDBRANCH  26  30
ENDBRANCH  25  26
ENDBRANCH  19  25
ENDBRANCH  18  22
ENDBRANCH  17  18
ENDBRANCH   1  17
TORSDOF 10
ENDMDL
MODEL 6
REMARK VINA RESULT:      -7.5      3.138     10.362
REMARK  Name = 
REMARK  13 active torsions:
REMARK  status: ('A' for Active; 'I' for Inactive)
REMARK    1  A    between atoms: C_1  and  C_2
REMARK    2  A    between atoms: C_2  and  C_3
REMARK    3  A    between atoms: C_3  and  C_4
REMARK    4  A    between atoms: C_3  and  C_5
REMARK    5  A    between atoms: C_3  and  C_7
REMARK    6  A    between atoms: C_5  and  C_6
REMARK    7  A    between atoms: C_7  and  C_8
REMARK    8  A    between atoms: C_11  and  C_12
REMARK    9  A    between atoms: C_12  and  C_13
REMARK   10  A    between atoms: C_13  and  C_14
REMARK   11  A    between atoms: C_17  and  C_18
REMARK   12  A    between atoms: C_23  and  C_24
REMARK   13  A    between atoms: C_24  and  O_26
REMARK                            x       y       z     vdW  Elec       q    Type
REMARK                         _______ _______ _______ _____ _____    ______ ____
ROOT
ATOM      1  C   UNL     1       8.447   9.678  18.203  0.00  0.00    +0.000 A 
ATOM      2  C   UNL     1       9.242   9.665  19.347  0.00  0.00    +0.000 A 
ATOM      3  C   UNL     1       9.822  10.846  19.806  0.00  0.00    +0.000 A 
ATOM      4  C   UNL     1       9.663  12.071  19.123  0.00  0.00    +0.000 A 
ATOM      5  C   UNL     1       8.921  12.043  17.932  0.00  0.00    +0.000 A 
ATOM      6  C   UNL     1       8.290  10.872  17.497  0.00  0.00    +0.000 A 
ENDROOT
BRANCH   4   7
ATOM      7  C   UNL     1      10.244  13.315  19.690  0.00  0.00    +0.000 A 
ATOM      8  C   UNL     1      11.416  13.835  19.086  0.00  0.00    +0.000 A 
ATOM      9  C   UNL     1      12.091  14.951  19.586  0.00  0.00    +0.000 A 
ATOM     10  C   UNL     1      11.596  15.614  20.697  0.00  0.00    +0.000 A 
ATOM     11  C   UNL     1      10.425  15.161  21.297  0.00  0.00    +0.000 A 
ATOM     12  C   UNL     1       9.749  14.020  20.817  0.00  0.00    +0.000 A 
BRANCH  12  13
ATOM     13  C   UNL     1       8.518  13.690  21.588  0.00  0.00    +0.000 C 
ATOM     14  O   UNL     1       8.519  12.859  22.482  0.00  0.00    +0.000 OA
BRANCH  13  15
ATOM     15  O   UNL     1       7.390  14.293  21.161  0.00  0.00    +0.000 OA
ATOM     16  H   UNL     1       6.640  14.248  21.783  0.00  0.00    +0.000 HD
ENDBRANCH  13  15
ENDBRANCH  12  13
ENDBRANCH   4   7
BRANCH   1  17
ATOM     17  C   UNL     1       7.738   8.426  17.772  0.00  0.00    +0.000 C 
BRANCH  17  18
ATOM     18  C   UNL     1       8.271   7.198  18.514  0.00  0.00    +0.000 C 
BRANCH  18  22
ATOM     19  C   UNL     1       5.680   4.651  18.310  0.00  0.00    +0.000 A 
ATOM     20  C   UNL     1       6.370   4.511  17.123  0.00  0.00    +0.000 A 
ATOM     21  N   UNL     1       7.446   5.348  17.072  0.00  0.00    +0.000 NA
ATOM     22  C   UNL     1       7.410   6.034  18.187  0.00  0.00    +0.000 A 
ATOM     23  N   UNL     1       6.371   5.622  18.990  0.00  0.00    +0.000 N 
ATOM     24  H   UNL     1       6.133   6.013  19.892  0.00  0.00    +0.000 HD
BRANCH  19  25
ATOM     25  C   UNL     1       4.443   4.006  18.853  0.00  0.00    +0.000 C 
BRANCH  25  26
ATOM     26  C   UNL     1       3.131   4.839  18.689  0.00  0.00    +0.000 C 
ATOM     27  C   UNL     1       3.404   6.019  17.726  0.00  0.00    +0.000 C 
BRANCH  26  29
ATOM     28  C   UNL     1       2.576   2.546  17.553  0.00  0.00    +0.000 C 
ATOM     29  C   UNL     1       2.064   3.902  18.035  0.00  0.00    +0.000 C 
ENDBRANCH  26  29
BRANCH  26  30
ATOM     30  C   UNL     1       2.609   5.401  20.043  0.00  0.00    +0.000 C 
ATOM     31  C   UNL     1       2.176   4.349  21.063  0.00  0.00    +0.000 C 
ENDBRANCH  26  30
ENDBRANCH  25  26
ENDBRANCH  19  25
ENDBRANCH  18  22
ENDBRANCH  17  18
ENDBRANCH   1  17
TORSDOF 10
ENDMDL
MODEL 7
REMARK VINA RESULT:      -7.4      1.947      2.786
REMARK  Name = 
REMARK  13 active torsions:
REMARK  status: ('A' for Active; 'I' for Inactive)
REMARK    1  A    between atoms: C_1  and  C_2
REMARK    2  A    between atoms: C_2  and  C_3
REMARK    3  A    between atoms: C_3  and  C_4
REMARK    4  A    between atoms: C_3  and  C_5
REMARK    5  A    between atoms: C_3  and  C_7
REMARK    6  A    between atoms: C_5  and  C_6
REMARK    7  A    between atoms: C_7  and  C_8
REMARK    8  A    between atoms: C_11  and  C_12
REMARK    9  A    between atoms: C_12  and  C_13
REMARK   10  A    between atoms: C_13  and  C_14
REMARK   11  A    between atoms: C_17  and  C_18
REMARK   12  A    between atoms: C_23  and  C_24
REMARK   13  A    between atoms: C_24  and  O_26
REMARK                            x       y       z     vdW  Elec       q    Type
REMARK                         _______ _______ _______ _____ _____    ______ ____
ROOT
ATOM      1  C   UNL     1       6.514   6.742  17.820  0.00  0.00    +0.000 A 
ATOM      2  C   UNL     1       5.256   6.815  17.224  0.00  0.00    +0.000 A 
ATOM      3  C   UNL     1       4.207   6.043  17.718  0.00  0.00    +0.000 A 
ATOM      4  C   UNL     1       4.380   5.148  18.795  0.00  0.00    +0.000 A 
ATOM      5  C   UNL     1       5.673   5.038  19.328  0.00  0.00    +0.000 A 
ATOM      6  C   UNL     1       6.719   5.849  18.873  0.00  0.00    +0.000 A 
ENDROOT
BRANCH   4   7
ATOM      7  C   UNL     1       3.213   4.400  19.331  0.00  0.00    +0.000 A 
ATOM      8  C   UNL     1       2.143   5.148  19.884  0.00  0.00    +0.000 A 
ATOM      9  C   UNL     1       1.036   4.548  20.487  0.00  0.00    +0.000 A 
ATOM     10  C   UNL     1       0.941   3.167  20.532  0.00  0.00    +0.000 A 
ATOM     11  C   UNL     1       1.950   2.394  19.966  0.00  0.00    +0.000 A 
ATOM     12  C   UNL     1       3.086   2.989  19.376  0.00  0.00    +0.000 A 
BRANCH  12  13
ATOM     13  C   UNL     1       4.056   2.001  18.826  0.00  0.00    +0.000 C 
ATOM     14  O   UNL     1       4.028   1.650  17.657  0.00  0.00    +0.000 OA
BRANCH  13  15
ATOM     15  O   UNL     1       4.893   1.451  19.728  0.00  0.00    +0.000 OA
ATOM     16  H   UNL     1       5.839   1.493  19.491  0.00  0.00    +0.000 HD
ENDBRANCH  13  15
ENDBRANCH  12  13
ENDBRANCH   4   7
BRANCH   1  17
ATOM     17  C   UNL     1       7.614   7.652  17.352  0.00  0.00    +0.000 C 
BRANCH  17  18
ATOM     18  C   UNL     1       8.509   8.090  18.514  0.00  0.00    +0.000 C 
BRANCH  18  22
ATOM     19  C   UNL     1       9.459  11.575  18.958  0.00  0.00    +0.000 A 
ATOM     20  C   UNL     1       8.689  11.590  17.813  0.00  0.00    +0.000 A 
ATOM     21  N   UNL     1       8.174  10.356  17.545  0.00  0.00    +0.000 NA
ATOM     22  C   UNL     1       8.643   9.569  18.480  0.00  0.00    +0.000 A 
ATOM     23  N   UNL     1       9.405  10.272  19.384  0.00  0.00    +0.000 N 
ATOM     24  H   UNL     1       9.885   9.878  20.183  0.00  0.00    +0.000 HD
BRANCH  19  25
ATOM     25  C   UNL     1      10.252  12.628  19.667  0.00  0.00    +0.000 C 
BRANCH  25  26
ATOM     26  C   UNL     1       9.489  13.384  20.804  0.00  0.00    +0.000 C 
ATOM     27  C   UNL     1      10.437  14.437  21.427  0.00  0.00    +0.000 C 
BRANCH  26  29
ATOM     28  C   UNL     1       8.650  15.152  19.065  0.00  0.00    +0.000 C 
ATOM     29  C   UNL     1       8.287  14.130  20.140  0.00  0.00    +0.000 C 
ENDBRANCH  26  29
BRANCH  26  30
ATOM     30  C   UNL     1       8.989  12.427  21.924  0.00  0.00    +0.000 C 
ATOM     31  C   UNL     1       8.439  13.115  23.173  0.00  0.00    +0.000 C 
ENDBRANCH  26  30
ENDBRANCH  25  26
ENDBRANCH  19  25
ENDBRANCH  18  22
ENDBRANCH  17  18
ENDBRANCH   1  17
TORSDOF 10
ENDMDL
MODEL 8
REMARK VINA RESULT:      -7.4      6.008      9.068
REMARK  Name = 
REMARK  13 active torsions:
REMARK  status: ('A' for Active; 'I' for Inactive)
REMARK    1  A    between atoms: C_1  and  C_2
REMARK    2  A    between atoms: C_2  and  C_3
REMARK    3  A    between atoms: C_3  and  C_4
REMARK    4  A    between atoms: C_3  and  C_5
REMARK    5  A    between atoms: C_3  and  C_7
REMARK    6  A    between atoms: C_5  and  C_6
REMARK    7  A    between atoms: C_7  and  C_8
REMARK    8  A    between atoms: C_11  and  C_12
REMARK    9  A    between atoms: C_12  and  C_13
REMARK   10  A    between atoms: C_13  and  C_14
REMARK   11  A    between atoms: C_17  and  C_18
REMARK   12  A    between atoms: C_23  and  C_24
REMARK   13  A    between atoms: C_24  and  O_26
REMARK                            x       y       z     vdW  Elec       q    Type
REMARK                         _______ _______ _______ _____ _____    ______ ____
ROOT
ATOM      1  C   UNL     1       1.750   7.244  20.353  0.00  0.00    +0.000 A 
ATOM      2  C   UNL     1       2.113   7.752  19.107  0.00  0.00    +0.000 A 
ATOM      3  C   UNL     1       1.744   9.047  18.749  0.00  0.00    +0.000 A 
ATOM      4  C   UNL     1       0.973   9.866  19.600  0.00  0.00    +0.000 A 
ATOM      5  C   UNL     1       0.556   9.304  20.816  0.00  0.00    +0.000 A 
ATOM      6  C   UNL     1       0.969   8.025  21.205  0.00  0.00    +0.000 A 
ENDROOT
BRANCH   4   7
ATOM      7  C   UNL     1       0.665  11.265  19.203  0.00  0.00    +0.000 A 
ATOM      8  C   UNL     1       1.596  12.275  19.557  0.00  0.00    +0.000 A 
ATOM      9  C   UNL     1       1.370  13.630  19.306  0.00  0.00    +0.000 A 
ATOM     10  C   UNL     1       0.213  14.026  18.657  0.00  0.00    +0.000 A 
ATOM     11  C   UNL     1      -0.709  13.063  18.256  0.00  0.00    +0.000 A 
ATOM     12  C   UNL     1      -0.504  11.694  18.526  0.00  0.00    +0.000 A 
BRANCH  12  13
ATOM     13  C   UNL     1      -1.599  10.818  18.022  0.00  0.00    +0.000 C 
ATOM     14  O   UNL     1      -2.697  10.786  18.554  0.00  0.00    +0.000 OA
BRANCH  13  15
ATOM     15  O   UNL     1      -1.259   9.994  17.011  0.00  0.00    +0.000 OA
ATOM     16  H   UNL     1      -1.800   9.186  16.939  0.00  0.00    +0.000 HD
ENDBRANCH  13  15
ENDBRANCH  12  13
ENDBRANCH   4   7
BRANCH   1  17
ATOM     17  C   UNL     1       2.238   5.888  20.776  0.00  0.00    +0.000 C 
BRANCH  17  18
ATOM     18  C   UNL     1       1.561   4.774  19.974  0.00  0.00    +0.000 C 
BRANCH  18  22
ATOM     19  C   UNL     1       4.203   3.508  17.814  0.00  0.00    +0.000 A 
ATOM     20  C   UNL     1       4.225   2.650  18.895  0.00  0.00    +0.000 A 
ATOM     21  N   UNL     1       3.225   2.936  19.777  0.00  0.00    +0.000 NA
ATOM     22  C   UNL     1       2.609   3.981  19.283  0.00  0.00    +0.000 A 
ATOM     23  N   UNL     1       3.148   4.347  18.071  0.00  0.00    +0.000 N 
ATOM     24  H   UNL     1       2.851   5.132  17.507  0.00  0.00    +0.000 HD
BRANCH  19  25
ATOM     25  C   UNL     1       5.071   3.644  16.603  0.00  0.00    +0.000 C 
BRANCH  25  26
ATOM     26  C   UNL     1       6.064   4.852  16.627  0.00  0.00    +0.000 C 
ATOM     27  C   UNL     1       7.195   4.551  17.640  0.00  0.00    +0.000 C 
BRANCH  26  29
ATOM     28  C   UNL     1       6.105   4.037  14.139  0.00  0.00    +0.000 C 
ATOM     29  C   UNL     1       6.693   4.965  15.200  0.00  0.00    +0.000 C 
ENDBRANCH  26  29
BRANCH  26  30
ATOM     30  C   UNL     1       5.369   6.186  17.026  0.00  0.00    +0.000 C 
ATOM     31  C   UNL     1       4.798   6.998  15.864  0.00  0.00    +0.000 C 
ENDBRANCH  26  30
ENDBRANCH  25  26
ENDBRANCH  19  25
ENDBRANCH  18  22
ENDBRANCH  17  18
ENDBRANCH   1  17
TORSDOF 10
ENDMDL
MODEL 9
REMARK VINA RESULT:      -7.3      7.284     10.280
REMARK  Name = 
REMARK  13 active torsions:
REMARK  status: ('A' for Active; 'I' for Inactive)
REMARK    1  A    between atoms: C_1  and  C_2
REMARK    2  A    between atoms: C_2  and  C_3
REMARK    3  A    between atoms: C_3  and  C_4
REMARK    4  A    between atoms: C_3  and  C_5
REMARK    5  A    between atoms: C_3  and  C_7
REMARK    6  A    between atoms: C_5  and  C_6
REMARK    7  A    between atoms: C_7  and  C_8
REMARK    8  A    between atoms: C_11  and  C_12
REMARK    9  A    between atoms: C_12  and  C_13
REMARK   10  A    between atoms: C_13  and  C_14
REMARK   11  A    between atoms: C_17  and  C_18
REMARK   12  A    between atoms: C_23  and  C_24
REMARK   13  A    between atoms: C_24  and  O_26
REMARK                            x       y       z     vdW  Elec       q    Type
REMARK                         _______ _______ _______ _____ _____    ______ ____
ROOT
ATOM      1  C   UNL     1       1.024   9.555  19.604  0.00  0.00    +0.000 A 
ATOM      2  C   UNL     1       1.433   8.470  20.377  0.00  0.00    +0.000 A 
ATOM      3  C   UNL     1       2.183   7.448  19.800  0.00  0.00    +0.000 A 
ATOM      4  C   UNL     1       2.522   7.452  18.430  0.00  0.00    +0.000 A 
ATOM      5  C   UNL     1       2.034   8.517  17.658  0.00  0.00    +0.000 A 
ATOM      6  C   UNL     1       1.327   9.574  18.242  0.00  0.00    +0.000 A 
ENDROOT
BRANCH   4   7
ATOM      7  C   UNL     1       3.384   6.375  17.878  0.00  0.00    +0.000 A 
ATOM      8  C   UNL     1       4.670   6.735  17.399  0.00  0.00    +0.000 A 
ATOM      9  C   UNL     1       5.530   5.821  16.787  0.00  0.00    +0.000 A 
ATOM     10  C   UNL     1       5.148   4.495  16.660  0.00  0.00    +0.000 A 
ATOM     11  C   UNL     1       3.911   4.091  17.153  0.00  0.00    +0.000 A 
ATOM     12  C   UNL     1       3.023   5.010  17.750  0.00  0.00    +0.000 A 
BRANCH  12  13
ATOM     13  C   UNL     1       1.750   4.392  18.215  0.00  0.00    +0.000 C 
ATOM     14  O   UNL     1       1.550   4.130  19.390  0.00  0.00    +0.000 OA
BRANCH  13  15
ATOM     15  O   UNL     1       0.885   4.049  17.239  0.00  0.00    +0.000 OA
ATOM     16  H   UNL     1       1.202   4.215  16.332  0.00  0.00    +0.000 HD
ENDBRANCH  13  15
ENDBRANCH  12  13
ENDBRANCH   4   7
BRANCH   1  17
ATOM     17  C   UNL     1       0.305  10.704  20.252  0.00  0.00    +0.000 C 
BRANCH  17  18
ATOM     18  C   UNL     1       0.119  10.472  21.754  0.00  0.00    +0.000 C 
BRANCH  18  22
ATOM     19  C   UNL     1      -2.380  12.526  23.423  0.00  0.00    +0.000 A 
ATOM     20  C   UNL     1      -1.353  13.410  23.159  0.00  0.00    +0.000 A 
ATOM     21  N   UNL     1      -0.353  12.813  22.448  0.00  0.00    +0.000 NA
ATOM     22  C   UNL     1      -0.722  11.565  22.303  0.00  0.00    +0.000 A 
ATOM     23  N   UNL     1      -1.966  11.349  22.852  0.00  0.00    +0.000 N 
ATOM     24  H   UNL     1      -2.453  10.462  22.876  0.00  0.00    +0.000 HD
BRANCH  19  25
ATOM     25  C   UNL     1      -3.671  12.656  24.168  0.00  0.00    +0.000 C 
BRANCH  25  26
ATOM     26  C   UNL     1      -4.860  13.245  23.343  0.00  0.00    +0.000 C 
ATOM     27  C   UNL     1      -6.191  12.811  24.001  0.00  0.00    +0.000 C 
BRANCH  26  29
ATOM     28  C   UNL     1      -6.001  15.531  23.917  0.00  0.00    +0.000 C 
ATOM     29  C   UNL     1      -4.753  14.803  23.422  0.00  0.00    +0.000 C 
ENDBRANCH  26  29
BRANCH  26  30
ATOM     30  C   UNL     1      -4.850  12.771  21.860  0.00  0.00    +0.000 C 
ATOM     31  C   UNL     1      -6.018  13.265  21.008  0.00  0.00    +0.000 C 
ENDBRANCH  26  30
ENDBRANCH  25  26
ENDBRANCH  19  25
ENDBRANCH  18  22
ENDBRANCH  17  18
ENDBRANCH   1  17
TORSDOF 10
ENDMDL
