MODEL 1
REMARK VINA RESULT:      -7.0      0.000      0.000
REMARK  Name = 
REMARK  4 active torsions:
REMARK  status: ('A' for Active; 'I' for Inactive)
REMARK    1  A    between atoms: O_1  and  C_2
REMARK    2  A    between atoms: C_6  and  C_7
REMARK    3  A    between atoms: C_14  and  C_15
REMARK    4  A    between atoms: C_15  and  N_16
REMARK                            x       y       z     vdW  Elec       q    Type
REMARK                         _______ _______ _______ _____ _____    ______ ____
ROOT
ATOM      1  C   UNL     1       6.299   4.782  18.228  0.00  0.00    +0.000 C 
ATOM      2  C   UNL     1       6.304   4.568  16.734  0.00  0.00    +0.000 A 
ATOM      3  C   UNL     1       7.260   5.054  15.842  0.00  0.00    +0.000 A 
ATOM      4  C   UNL     1       7.148   4.751  14.477  0.00  0.00    +0.000 A 
ATOM      5  C   UNL     1       6.084   3.964  13.998  0.00  0.00    +0.000 A 
ATOM      6  C   UNL     1       5.140   3.471  14.909  0.00  0.00    +0.000 A 
ATOM      7  C   UNL     1       5.269   3.768  16.259  0.00  0.00    +0.000 A 
ATOM      8  S   UNL     1       4.198   3.163  17.513  0.00  0.00    +0.000 S 
ATOM      9  C   UNL     1       5.043   4.097  18.847  0.00  0.00    +0.000 C 
ENDROOT
BRANCH   5  10
ATOM     10  C   UNL     1       5.934   3.627  12.535  0.00  0.00    +0.000 C 
ATOM     11  F   UNL     1       6.830   4.263  11.733  0.00  0.00    +0.000 F 
ATOM     12  F   UNL     1       6.090   2.296  12.292  0.00  0.00    +0.000 F 
ATOM     13  F   UNL     1       4.702   3.952  12.053  0.00  0.00    +0.000 F 
ENDBRANCH   5  10
BRANCH   1  14
ATOM     14  O   UNL     1       6.335   6.174  18.527  0.00  0.00    +0.000 OA
ATOM     15  H   UNL     1       5.752   6.329  19.290  0.00  0.00    +0.000 HD
ENDBRANCH   1  14
BRANCH   9  16
ATOM     16  C   UNL     1       4.070   5.068  19.531  0.00  0.00    +0.000 C 
BRANCH  16  17
ATOM     17  N   UNL     1       2.875   4.445  20.075  0.00  0.00    +0.000 N 
ATOM     18  C   UNL     1       2.836   3.408  20.966  0.00  0.00    +0.000 A 
ATOM     19  C   UNL     1       1.500   3.120  21.121  0.00  0.00    +0.000 A 
ATOM     20  N   UNL     1       0.731   3.956  20.355  0.00  0.00    +0.000 NA
ATOM     21  C   UNL     1       1.584   4.743  19.739  0.00  0.00    +0.000 A 
ENDBRANCH  16  17
ENDBRANCH   9  16
TORSDOF 4
ENDMDL
MODEL 2
REMARK VINA RESULT:      -6.9      0.447      1.172
REMARK  Name = 
REMARK  4 active torsions:
REMARK  status: ('A' for Active; 'I' for Inactive)
REMARK    1  A    between atoms: O_1  and  C_2
REMARK    2  A    between atoms: C_6  and  C_7
REMARK    3  A    between atoms: C_14  and  C_15
REMARK    4  A    between atoms: C_15  and  N_16
REMARK                            x       y       z     vdW  Elec       q    Type
REMARK                         _______ _______ _______ _____ _____    ______ ____
ROOT
ATOM      1  C   UNL     1       6.383   4.795  18.164  0.00  0.00    +0.000 C 
ATOM      2  C   UNL     1       6.370   4.569  16.671  0.00  0.00    +0.000 A 
ATOM      3  C   UNL     1       7.315   5.048  15.764  0.00  0.00    +0.000 A 
ATOM      4  C   UNL     1       7.186   4.735  14.403  0.00  0.00    +0.000 A 
ATOM      5  C   UNL     1       6.116   3.945  13.942  0.00  0.00    +0.000 A 
ATOM      6  C   UNL     1       5.183   3.460  14.868  0.00  0.00    +0.000 A 
ATOM      7  C   UNL     1       5.328   3.767  16.214  0.00  0.00    +0.000 A 
ATOM      8  S   UNL     1       4.272   3.172  17.486  0.00  0.00    +0.000 S 
ATOM      9  C   UNL     1       5.134   4.116  18.803  0.00  0.00    +0.000 C 
ENDROOT
BRANCH   5  10
ATOM     10  C   UNL     1       5.948   3.598  12.484  0.00  0.00    +0.000 C 
ATOM     11  F   UNL     1       6.149   2.281  12.209  0.00  0.00    +0.000 F 
ATOM     12  F   UNL     1       4.700   3.891  12.022  0.00  0.00    +0.000 F 
ATOM     13  F   UNL     1       6.811   4.285  11.686  0.00  0.00    +0.000 F 
ENDBRANCH   5  10
BRANCH   1  14
ATOM     14  O   UNL     1       6.423   6.189  18.452  0.00  0.00    +0.000 OA
ATOM     15  H   UNL     1       6.786   6.643  17.673  0.00  0.00    +0.000 HD
ENDBRANCH   1  14
BRANCH   9  16
ATOM     16  C   UNL     1       4.170   5.092  19.491  0.00  0.00    +0.000 C 
BRANCH  16  17
ATOM     17  N   UNL     1       2.942   4.487  19.980  0.00  0.00    +0.000 N 
ATOM     18  C   UNL     1       1.674   4.765  19.549  0.00  0.00    +0.000 A 
ATOM     19  C   UNL     1       0.850   4.009  20.352  0.00  0.00    +0.000 A 
ATOM     20  N   UNL     1       1.584   3.279  21.250  0.00  0.00    +0.000 NA
ATOM     21  C   UNL     1       2.838   3.585  21.002  0.00  0.00    +0.000 A 
ENDBRANCH  16  17
ENDBRANCH   9  16
TORSDOF 4
ENDMDL
MODEL 3
REMARK VINA RESULT:      -6.7      5.785      8.026
REMARK  Name = 
REMARK  4 active torsions:
REMARK  status: ('A' for Active; 'I' for Inactive)
REMARK    1  A    between atoms: O_1  and  C_2
REMARK    2  A    between atoms: C_6  and  C_7
REMARK    3  A    between atoms: C_14  and  C_15
REMARK    4  A    between atoms: C_15  and  N_16
REMARK                            x       y       z     vdW  Elec       q    Type
REMARK                         _______ _______ _______ _____ _____    ______ ____
ROOT
ATOM      1  C   UNL     1       3.250   6.620  17.698  0.00  0.00    +0.000 C 
ATOM      2  C   UNL     1       2.460   7.399  18.721  0.00  0.00    +0.000 A 
ATOM      3  C   UNL     1       1.930   8.677  18.544  0.00  0.00    +0.000 A 
ATOM      4  C   UNL     1       1.191   9.268  19.579  0.00  0.00    +0.000 A 
ATOM      5  C   UNL     1       0.980   8.587  20.794  0.00  0.00    +0.000 A 
ATOM      6  C   UNL     1       1.505   7.298  20.950  0.00  0.00    +0.000 A 
ATOM      7  C   UNL     1       2.225   6.720  19.913  0.00  0.00    +0.000 A 
ATOM      8  S   UNL     1       2.881   5.090  19.950  0.00  0.00    +0.000 S 
ATOM      9  C   UNL     1       3.679   5.250  18.305  0.00  0.00    +0.000 C 
ENDROOT
BRANCH   5  10
ATOM     10  C   UNL     1       0.195   9.200  21.927  0.00  0.00    +0.000 C 
ATOM     11  F   UNL     1      -0.281  10.444  21.652  0.00  0.00    +0.000 F 
ATOM     12  F   UNL     1      -0.889   8.450  22.272  0.00  0.00    +0.000 F 
ATOM     13  F   UNL     1       0.938   9.325  23.062  0.00  0.00    +0.000 F 
ENDBRANCH   5  10
BRANCH   1  14
ATOM     14  O   UNL     1       4.378   7.374  17.266  0.00  0.00    +0.000 OA
ATOM     15  H   UNL     1       5.060   7.310  17.956  0.00  0.00    +0.000 HD
ENDBRANCH   1  14
BRANCH   9  16
ATOM     16  C   UNL     1       5.198   5.059  18.418  0.00  0.00    +0.000 C 
BRANCH  16  17
ATOM     17  N   UNL     1       5.866   4.762  17.162  0.00  0.00    +0.000 N 
ATOM     18  C   UNL     1       5.382   3.975  16.153  0.00  0.00    +0.000 A 
ATOM     19  C   UNL     1       6.391   3.931  15.219  0.00  0.00    +0.000 A 
ATOM     20  N   UNL     1       7.467   4.673  15.631  0.00  0.00    +0.000 NA
ATOM     21  C   UNL     1       7.122   5.162  16.801  0.00  0.00    +0.000 A 
ENDBRANCH  16  17
ENDBRANCH   9  16
TORSDOF 4
ENDMDL
MODEL 4
REMARK VINA RESULT:      -6.7      0.645      1.259
REMARK  Name = 
REMARK  4 active torsions:
REMARK  status: ('A' for Active; 'I' for Inactive)
REMARK    1  A    between atoms: O_1  and  C_2
REMARK    2  A    between atoms: C_6  and  C_7
REMARK    3  A    between atoms: C_14  and  C_15
REMARK    4  A    between atoms: C_15  and  N_16
REMARK                            x       y       z     vdW  Elec       q    Type
REMARK                         _______ _______ _______ _____ _____    ______ ____
ROOT
ATOM      1  C   UNL     1       6.084   4.797  18.232  0.00  0.00    +0.000 C 
ATOM      2  C   UNL     1       6.135   4.590  16.738  0.00  0.00    +0.000 A 
ATOM      3  C   UNL     1       7.021   5.210  15.856  0.00  0.00    +0.000 A 
ATOM      4  C   UNL     1       6.967   4.898  14.490  0.00  0.00    +0.000 A 
ATOM      5  C   UNL     1       6.030   3.969  13.999  0.00  0.00    +0.000 A 
ATOM      6  C   UNL     1       5.157   3.345  14.899  0.00  0.00    +0.000 A 
ATOM      7  C   UNL     1       5.228   3.653  16.250  0.00  0.00    +0.000 A 
ATOM      8  S   UNL     1       4.241   2.898  17.493  0.00  0.00    +0.000 S 
ATOM      9  C   UNL     1       4.931   3.939  18.837  0.00  0.00    +0.000 C 
ENDROOT
BRANCH   5  10
ATOM     10  C   UNL     1       5.944   3.619  12.534  0.00  0.00    +0.000 C 
ATOM     11  F   UNL     1       4.748   3.931  11.966  0.00  0.00    +0.000 F 
ATOM     12  F   UNL     1       6.890   4.260  11.792  0.00  0.00    +0.000 F 
ATOM     13  F   UNL     1       6.132   2.289  12.308  0.00  0.00    +0.000 F 
ENDBRANCH   5  10
BRANCH   1  14
ATOM     14  O   UNL     1       5.918   6.179  18.534  0.00  0.00    +0.000 OA
ATOM     15  H   UNL     1       5.886   6.271  19.501  0.00  0.00    +0.000 HD
ENDBRANCH   1  14
BRANCH   9  16
ATOM     16  C   UNL     1       3.823   4.760  19.511  0.00  0.00    +0.000 C 
BRANCH  16  17
ATOM     17  N   UNL     1       2.879   3.977  20.291  0.00  0.00    +0.000 N 
ATOM     18  C   UNL     1       1.534   4.200  20.398  0.00  0.00    +0.000 A 
ATOM     19  C   UNL     1       1.086   3.258  21.295  0.00  0.00    +0.000 A 
ATOM     20  N   UNL     1       2.120   2.469  21.728  0.00  0.00    +0.000 NA
ATOM     21  C   UNL     1       3.185   2.923  21.106  0.00  0.00    +0.000 A 
ENDBRANCH  16  17
ENDBRANCH   9  16
TORSDOF 4
ENDMDL
MODEL 5
REMARK VINA RESULT:      -6.6      5.122      7.644
REMARK  Name = 
REMARK  4 active torsions:
REMARK  status: ('A' for Active; 'I' for Inactive)
REMARK    1  A    between atoms: O_1  and  C_2
REMARK    2  A    between atoms: C_6  and  C_7
REMARK    3  A    between atoms: C_14  and  C_15
REMARK    4  A    between atoms: C_15  and  N_16
REMARK                            x       y       z     vdW  Elec       q    Type
REMARK                         _______ _______ _______ _____ _____    ______ ____
ROOT
ATOM      1  C   UNL     1       4.298   3.953  18.743  0.00  0.00    +0.000 C 
ATOM      2  C   UNL     1       3.350   4.920  19.409  0.00  0.00    +0.000 A 
ATOM      3  C   UNL     1       2.490   4.624  20.467  0.00  0.00    +0.000 A 
ATOM      4  C   UNL     1       1.682   5.636  21.004  0.00  0.00    +0.000 A 
ATOM      5  C   UNL     1       1.727   6.945  20.488  0.00  0.00    +0.000 A 
ATOM      6  C   UNL     1       2.607   7.230  19.436  0.00  0.00    +0.000 A 
ATOM      7  C   UNL     1       3.410   6.222  18.921  0.00  0.00    +0.000 A 
ATOM      8  S   UNL     1       4.601   6.455  17.649  0.00  0.00    +0.000 S 
ATOM      9  C   UNL     1       5.054   4.678  17.589  0.00  0.00    +0.000 C 
ENDROOT
BRANCH   5  10
ATOM     10  C   UNL     1       0.865   8.053  21.041  0.00  0.00    +0.000 C 
ATOM     11  F   UNL     1      -0.382   7.646  21.402  0.00  0.00    +0.000 F 
ATOM     12  F   UNL     1       1.409   8.628  22.150  0.00  0.00    +0.000 F 
ATOM     13  F   UNL     1       0.686   9.065  20.147  0.00  0.00    +0.000 F 
ENDBRANCH   5  10
BRANCH   1  14
ATOM     14  O   UNL     1       3.588   2.814  18.266  0.00  0.00    +0.000 OA
ATOM     15  H   UNL     1       4.241   2.158  17.970  0.00  0.00    +0.000 HD
ENDBRANCH   1  14
BRANCH   9  16
ATOM     16  C   UNL     1       4.781   4.095  16.195  0.00  0.00    +0.000 C 
BRANCH  16  17
ATOM     17  N   UNL     1       5.789   4.415  15.197  0.00  0.00    +0.000 N 
ATOM     18  C   UNL     1       5.835   3.948  13.913  0.00  0.00    +0.000 A 
ATOM     19  C   UNL     1       6.999   4.461  13.387  0.00  0.00    +0.000 A 
ATOM     20  N   UNL     1       7.654   5.228  14.315  0.00  0.00    +0.000 NA
ATOM     21  C   UNL     1       6.903   5.184  15.393  0.00  0.00    +0.000 A 
ENDBRANCH  16  17
ENDBRANCH   9  16
TORSDOF 4
ENDMDL
MODEL 6
REMARK VINA RESULT:      -6.5      5.752      7.959
REMARK  Name = 
REMARK  4 active torsions:
REMARK  status: ('A' for Active; 'I' for Inactive)
REMARK    1  A    between atoms: O_1  and  C_2
REMARK    2  A    between atoms: C_6  and  C_7
REMARK    3  A    between atoms: C_14  and  C_15
REMARK    4  A    between atoms: C_15  and  N_16
REMARK                            x       y       z     vdW  Elec       q    Type
REMARK                         _______ _______ _______ _____ _____    ______ ____
ROOT
ATOM      1  C   UNL     1       3.375   6.601  17.716  0.00  0.00    +0.000 C 
ATOM      2  C   UNL     1       2.519   7.455  18.620  0.00  0.00    +0.000 A 
ATOM      3  C   UNL     1       2.037   8.731  18.324  0.00  0.00    +0.000 A 
ATOM      4  C   UNL     1       1.227   9.396  19.255  0.00  0.00    +0.000 A 
ATOM      5  C   UNL     1       0.896   8.794  20.484  0.00  0.00    +0.000 A 
ATOM      6  C   UNL     1       1.375   7.507  20.760  0.00  0.00    +0.000 A 
ATOM      7  C   UNL     1       2.167   6.854  19.825  0.00  0.00    +0.000 A 
ATOM      8  S   UNL     1       2.778   5.217  20.014  0.00  0.00    +0.000 S 
ATOM      9  C   UNL     1       3.717   5.263  18.437  0.00  0.00    +0.000 C 
ENDROOT
BRANCH   5  10
ATOM     10  C   UNL     1       0.033   9.488  21.508  0.00  0.00    +0.000 C 
ATOM     11  F   UNL     1      -0.635   8.634  22.329  0.00  0.00    +0.000 F 
ATOM     12  F   UNL     1       0.754  10.307  22.324  0.00  0.00    +0.000 F 
ATOM     13  F   UNL     1      -0.918  10.277  20.934  0.00  0.00    +0.000 F 
ENDBRANCH   5  10
BRANCH   1  14
ATOM     14  O   UNL     1       4.553   7.308  17.341  0.00  0.00    +0.000 OA
ATOM     15  H   UNL     1       4.988   6.805  16.632  0.00  0.00    +0.000 HD
ENDBRANCH   1  14
BRANCH   9  16
ATOM     16  C   UNL     1       5.216   5.051  18.692  0.00  0.00    +0.000 C 
BRANCH  16  17
ATOM     17  N   UNL     1       5.994   4.738  17.505  0.00  0.00    +0.000 N 
ATOM     18  C   UNL     1       5.546   4.080  16.393  0.00  0.00    +0.000 A 
ATOM     19  C   UNL     1       6.651   3.955  15.582  0.00  0.00    +0.000 A 
ATOM     20  N   UNL     1       7.751   4.525  16.170  0.00  0.00    +0.000 NA
ATOM     21  C   UNL     1       7.325   4.989  17.323  0.00  0.00    +0.000 A 
ENDBRANCH  16  17
ENDBRANCH   9  16
TORSDOF 4
ENDMDL
MODEL 7
REMARK VINA RESULT:      -6.5      1.801      2.195
REMARK  Name = 
REMARK  4 active torsions:
REMARK  status: ('A' for Active; 'I' for Inactive)
REMARK    1  A    between atoms: O_1  and  C_2
REMARK    2  A    between atoms: C_6  and  C_7
REMARK    3  A    between atoms: C_14  and  C_15
REMARK    4  A    between atoms: C_15  and  N_16
REMARK                            x       y       z     vdW  Elec       q    Type
REMARK                         _______ _______ _______ _____ _____    ______ ____
ROOT
ATOM      1  C   UNL     1       4.206   6.437  18.826  0.00  0.00    +0.000 C 
ATOM      2  C   UNL     1       4.647   5.954  17.466  0.00  0.00    +0.000 A 
ATOM      3  C   UNL     1       4.847   6.753  16.339  0.00  0.00    +0.000 A 
ATOM      4  C   UNL     1       5.285   6.165  15.144  0.00  0.00    +0.000 A 
ATOM      5  C   UNL     1       5.526   4.780  15.068  0.00  0.00    +0.000 A 
ATOM      6  C   UNL     1       5.336   3.994  16.211  0.00  0.00    +0.000 A 
ATOM      7  C   UNL     1       4.912   4.590  17.392  0.00  0.00    +0.000 A 
ATOM      8  S   UNL     1       4.697   3.735  18.912  0.00  0.00    +0.000 S 
ATOM      9  C   UNL     1       4.078   5.221  19.793  0.00  0.00    +0.000 C 
ENDROOT
BRANCH   5  10
ATOM     10  C   UNL     1       5.992   4.119  13.794  0.00  0.00    +0.000 C 
ATOM     11  F   UNL     1       5.020   4.007  12.849  0.00  0.00    +0.000 F 
ATOM     12  F   UNL     1       7.014   4.797  13.202  0.00  0.00    +0.000 F 
ATOM     13  F   UNL     1       6.457   2.856  14.007  0.00  0.00    +0.000 F 
ENDBRANCH   5  10
BRANCH   1  14
ATOM     14  O   UNL     1       2.978   7.151  18.721  0.00  0.00    +0.000 OA
ATOM     15  H   UNL     1       3.112   7.883  18.095  0.00  0.00    +0.000 HD
ENDBRANCH   1  14
BRANCH   9  16
ATOM     16  C   UNL     1       2.656   4.985  20.322  0.00  0.00    +0.000 C 
BRANCH  16  17
ATOM     17  N   UNL     1       1.900   3.977  19.597  0.00  0.00    +0.000 N 
ATOM     18  C   UNL     1       1.564   2.732  20.052  0.00  0.00    +0.000 A 
ATOM     19  C   UNL     1       0.925   2.125  18.995  0.00  0.00    +0.000 A 
ATOM     20  N   UNL     1       0.860   2.970  17.918  0.00  0.00    +0.000 NA
ATOM     21  C   UNL     1       1.452   4.076  18.309  0.00  0.00    +0.000 A 
ENDBRANCH  16  17
ENDBRANCH   9  16
TORSDOF 4
ENDMDL
MODEL 8
REMARK VINA RESULT:      -6.5      5.768      8.023
REMARK  Name = 
REMARK  4 active torsions:
REMARK  status: ('A' for Active; 'I' for Inactive)
REMARK    1  A    between atoms: O_1  and  C_2
REMARK    2  A    between atoms: C_6  and  C_7
REMARK    3  A    between atoms: C_14  and  C_15
REMARK    4  A    between atoms: C_15  and  N_16
REMARK                            x       y       z     vdW  Elec       q    Type
REMARK                         _______ _______ _______ _____ _____    ______ ____
ROOT
ATOM      1  C   UNL     1       3.215   6.629  17.701  0.00  0.00    +0.000 C 
ATOM      2  C   UNL     1       2.433   7.409  18.729  0.00  0.00    +0.000 A 
ATOM      3  C   UNL     1       1.886   8.680  18.549  0.00  0.00    +0.000 A 
ATOM      4  C   UNL     1       1.158   9.272  19.591  0.00  0.00    +0.000 A 
ATOM      5  C   UNL     1       0.974   8.601  20.815  0.00  0.00    +0.000 A 
ATOM      6  C   UNL     1       1.517   7.320  20.975  0.00  0.00    +0.000 A 
ATOM      7  C   UNL     1       2.225   6.739  19.931  0.00  0.00    +0.000 A 
ATOM      8  S   UNL     1       2.901   5.117  19.974  0.00  0.00    +0.000 S 
ATOM      9  C   UNL     1       3.669   5.270  18.314  0.00  0.00    +0.000 C 
ENDROOT
BRANCH   5  10
ATOM     10  C   UNL     1       0.202   9.216  21.956  0.00  0.00    +0.000 C 
ATOM     11  F   UNL     1       0.929   9.350  23.098  0.00  0.00    +0.000 F 
ATOM     12  F   UNL     1      -0.260  10.463  21.656  0.00  0.00    +0.000 F 
ATOM     13  F   UNL     1      -0.896   8.483  22.292  0.00  0.00    +0.000 F 
ENDBRANCH   5  10
BRANCH   1  14
ATOM     14  O   UNL     1       4.327   7.392  17.243  0.00  0.00    +0.000 OA
ATOM     15  H   UNL     1       4.487   7.156  16.313  0.00  0.00    +0.000 HD
ENDBRANCH   1  14
BRANCH   9  16
ATOM     16  C   UNL     1       5.192   5.097  18.403  0.00  0.00    +0.000 C 
BRANCH  16  17
ATOM     17  N   UNL     1       5.832   4.712  17.156  0.00  0.00    +0.000 N 
ATOM     18  C   UNL     1       7.033   5.167  16.687  0.00  0.00    +0.000 A 
ATOM     19  C   UNL     1       7.178   4.583  15.449  0.00  0.00    +0.000 A 
ATOM     20  N   UNL     1       6.102   3.783  15.161  0.00  0.00    +0.000 NA
ATOM     21  C   UNL     1       5.310   3.879  16.206  0.00  0.00    +0.000 A 
ENDBRANCH  16  17
ENDBRANCH   9  16
TORSDOF 4
ENDMDL
MODEL 9
REMARK VINA RESULT:      -6.5      4.465      5.366
REMARK  Name = 
REMARK  4 active torsions:
REMARK  status: ('A' for Active; 'I' for Inactive)
REMARK    1  A    between atoms: O_1  and  C_2
REMARK    2  A    between atoms: C_6  and  C_7
REMARK    3  A    between atoms: C_14  and  C_15
REMARK    4  A    between atoms: C_15  and  N_16
REMARK                            x       y       z     vdW  Elec       q    Type
REMARK                         _______ _______ _______ _____ _____    ______ ____
ROOT
ATOM      1  C   UNL     1       4.239   3.873  17.289  0.00  0.00    +0.000 C 
ATOM      2  C   UNL     1       3.731   5.273  17.534  0.00  0.00    +0.000 A 
ATOM      3  C   UNL     1       4.485   6.443  17.450  0.00  0.00    +0.000 A 
ATOM      4  C   UNL     1       3.868   7.681  17.680  0.00  0.00    +0.000 A 
ATOM      5  C   UNL     1       2.498   7.756  17.996  0.00  0.00    +0.000 A 
ATOM      6  C   UNL     1       1.750   6.573  18.062  0.00  0.00    +0.000 A 
ATOM      7  C   UNL     1       2.371   5.355  17.820  0.00  0.00    +0.000 A 
ATOM      8  S   UNL     1       1.542   3.806  17.806  0.00  0.00    +0.000 S 
ATOM      9  C   UNL     1       3.083   2.853  17.514  0.00  0.00    +0.000 C 
ENDROOT
BRANCH   5  10
ATOM     10  C   UNL     1       1.808   9.072  18.256  0.00  0.00    +0.000 C 
ATOM     11  F   UNL     1       1.507   9.282  19.566  0.00  0.00    +0.000 F 
ATOM     12  F   UNL     1       2.564  10.138  17.869  0.00  0.00    +0.000 F 
ATOM     13  F   UNL     1       0.632   9.183  17.577  0.00  0.00    +0.000 F 
ENDBRANCH   5  10
BRANCH   1  14
ATOM     14  O   UNL     1       5.351   3.596  18.135  0.00  0.00    +0.000 OA
ATOM     15  H   UNL     1       5.382   2.635  18.281  0.00  0.00    +0.000 HD
ENDBRANCH   1  14
BRANCH   9  16
ATOM     16  C   UNL     1       3.333   1.861  18.659  0.00  0.00    +0.000 C 
BRANCH  16  17
ATOM     17  N   UNL     1       2.736   2.241  19.930  0.00  0.00    +0.000 N 
ATOM     18  C   UNL     1       1.407   2.199  20.246  0.00  0.00    +0.000 A 
ATOM     19  C   UNL     1       1.325   2.721  21.516  0.00  0.00    +0.000 A 
ATOM     20  N   UNL     1       2.567   3.070  21.979  0.00  0.00    +0.000 NA
ATOM     21  C   UNL     1       3.396   2.768  21.005  0.00  0.00    +0.000 A 
ENDBRANCH  16  17
ENDBRANCH   9  16
TORSDOF 4
ENDMDL
