MODEL 1
REMARK VINA RESULT:      -8.7      0.000      0.000
REMARK  Name = 
REMARK  6 active torsions:
REMARK  status: ('A' for Active; 'I' for Inactive)
REMARK    1  A    between atoms: C_1  and  N_2
REMARK    2  A    between atoms: N_2  and  C_3
REMARK    3  A    between atoms: N_2  and  S_4
REMARK    4  A    between atoms: S_4  and  C_7
REMARK    5  A    between atoms: C_10  and  N_11
REMARK    6  A    between atoms: N_11  and  C_12
REMARK                            x       y       z     vdW  Elec       q    Type
REMARK                         _______ _______ _______ _____ _____    ______ ____
ROOT
ATOM      1  N   UNL     1       2.208   7.187  20.176  0.00  0.00    +0.000 N 
ATOM      2  H   UNL     1       3.132   7.442  20.543  0.00  0.00    +0.000 HD
ENDROOT
BRANCH   1   3
ATOM      3  C   UNL     1       2.507   6.017  19.458  0.00  0.00    +0.000 A 
ATOM      4  N   UNL     1       1.755   5.014  19.916  0.00  0.00    +0.000 NA
ATOM      5  C   UNL     1       2.409   3.884  20.119  0.00  0.00    +0.000 A 
ATOM      6 CL   UNL     1       1.533   2.580  20.758  0.00  0.00    +0.000 Cl
ATOM      7  N   UNL     1       3.720   3.685  19.902  0.00  0.00    +0.000 NA
ATOM      8  C   UNL     1       4.305   4.606  19.135  0.00  0.00    +0.000 A 
ATOM      9  C   UNL     1       5.563   4.281  18.668  0.00  0.00    +0.000 A 
ATOM     10  C   UNL     1       6.016   4.879  17.524  0.00  0.00    +0.000 A 
ATOM     11  C   UNL     1       5.272   5.817  16.859  0.00  0.00    +0.000 A 
ATOM     12  C   UNL     1       4.124   6.345  17.447  0.00  0.00    +0.000 A 
ATOM     13  C   UNL     1       3.656   5.759  18.681  0.00  0.00    +0.000 A 
ATOM     14  O   UNL     1       5.778   6.050  15.612  0.00  0.00    +0.000 OA
ATOM     15  C   UNL     1       6.906   5.131  15.580  0.00  0.00    +0.000 C 
ATOM     16  O   UNL     1       7.117   4.477  16.835  0.00  0.00    +0.000 OA
ENDBRANCH   1   3
BRANCH   1  20
ATOM     17  C   UNL     1      -0.153  10.584  19.104  0.00  0.00    +0.000 A 
ATOM     18  C   UNL     1      -0.109  10.122  20.420  0.00  0.00    +0.000 A 
ATOM     19  C   UNL     1       0.752   9.054  20.755  0.00  0.00    +0.000 A 
ATOM     20  C   UNL     1       1.565   8.405  19.795  0.00  0.00    +0.000 A 
ATOM     21  C   UNL     1       1.556   8.927  18.501  0.00  0.00    +0.000 A 
ATOM     22  C   UNL     1       0.712  10.004  18.159  0.00  0.00    +0.000 A 
BRANCH  17  23
ATOM     23  S   UNL     1      -1.547  11.548  18.516  0.00  0.00    +0.000 S 
ATOM     24  O   UNL     1      -0.993  12.693  17.822  0.00  0.00    +0.000 OA
ATOM     25  O   UNL     1      -2.426  11.738  19.657  0.00  0.00    +0.000 OA
BRANCH  23  27
ATOM     26  C   UNL     1      -3.276   9.540  17.851  0.00  0.00    +0.000 C 
ATOM     27  N   UNL     1      -2.395  10.617  17.396  0.00  0.00    +0.000 NA
ATOM     28  C   UNL     1      -2.658  11.131  16.053  0.00  0.00    +0.000 C 
ENDBRANCH  23  27
ENDBRANCH  17  23
ENDBRANCH   1  20
TORSDOF 4
ENDMDL
MODEL 2
REMARK VINA RESULT:      -8.4      1.331      1.690
REMARK  Name = 
REMARK  6 active torsions:
REMARK  status: ('A' for Active; 'I' for Inactive)
REMARK    1  A    between atoms: C_1  and  N_2
REMARK    2  A    between atoms: N_2  and  C_3
REMARK    3  A    between atoms: N_2  and  S_4
REMARK    4  A    between atoms: S_4  and  C_7
REMARK    5  A    between atoms: C_10  and  N_11
REMARK    6  A    between atoms: N_11  and  C_12
REMARK                            x       y       z     vdW  Elec       q    Type
REMARK                         _______ _______ _______ _____ _____    ______ ____
ROOT
ATOM      1  N   UNL     1       2.092   7.285  20.487  0.00  0.00    +0.000 N 
ATOM      2  H   UNL     1       3.048   7.523  20.776  0.00  0.00    +0.000 HD
ENDROOT
BRANCH   1   3
ATOM      3  C   UNL     1       2.301   6.087  19.787  0.00  0.00    +0.000 A 
ATOM      4  N   UNL     1       1.554   5.122  20.328  0.00  0.00    +0.000 NA
ATOM      5  C   UNL     1       2.186   3.978  20.519  0.00  0.00    +0.000 A 
ATOM      6 CL   UNL     1       1.318   2.722  21.260  0.00  0.00    +0.000 Cl
ATOM      7  N   UNL     1       3.471   3.729  20.216  0.00  0.00    +0.000 NA
ATOM      8  C   UNL     1       4.027   4.608  19.380  0.00  0.00    +0.000 A 
ATOM      9  C   UNL     1       5.237   4.228  18.835  0.00  0.00    +0.000 A 
ATOM     10  C   UNL     1       5.624   4.778  17.643  0.00  0.00    +0.000 A 
ATOM     11  C   UNL     1       4.864   5.720  17.004  0.00  0.00    +0.000 A 
ATOM     12  C   UNL     1       3.778   6.302  17.656  0.00  0.00    +0.000 A 
ATOM     13  C   UNL     1       3.383   5.768  18.938  0.00  0.00    +0.000 A 
ATOM     14  O   UNL     1       5.285   5.899  15.718  0.00  0.00    +0.000 OA
ATOM     15  C   UNL     1       6.379   4.944  15.633  0.00  0.00    +0.000 C 
ATOM     16  O   UNL     1       6.660   4.320  16.890  0.00  0.00    +0.000 OA
ENDBRANCH   1   3
BRANCH   1  20
ATOM     17  C   UNL     1      -0.243  10.699  19.411  0.00  0.00    +0.000 A 
ATOM     18  C   UNL     1      -0.268  10.188  20.709  0.00  0.00    +0.000 A 
ATOM     19  C   UNL     1       0.584   9.116  21.052  0.00  0.00    +0.000 A 
ATOM     20  C   UNL     1       1.458   8.512  20.116  0.00  0.00    +0.000 A 
ATOM     21  C   UNL     1       1.516   9.083  18.845  0.00  0.00    +0.000 A 
ATOM     22  C   UNL     1       0.680  10.165  18.496  0.00  0.00    +0.000 A 
BRANCH  17  23
ATOM     23  S   UNL     1      -1.613  11.672  18.781  0.00  0.00    +0.000 S 
ATOM     24  O   UNL     1      -2.632  10.730  18.367  0.00  0.00    +0.000 OA
ATOM     25  O   UNL     1      -1.047  12.606  17.822  0.00  0.00    +0.000 OA
BRANCH  23  27
ATOM     26  C   UNL     1      -1.439  13.675  20.630  0.00  0.00    +0.000 C 
ATOM     27  N   UNL     1      -2.233  12.591  20.051  0.00  0.00    +0.000 NA
ATOM     28  C   UNL     1      -3.676  12.667  20.274  0.00  0.00    +0.000 C 
ENDBRANCH  23  27
ENDBRANCH  17  23
ENDBRANCH   1  20
TORSDOF 4
ENDMDL
MODEL 3
REMARK VINA RESULT:      -8.3      1.745      2.499
REMARK  Name = 
REMARK  6 active torsions:
REMARK  status: ('A' for Active; 'I' for Inactive)
REMARK    1  A    between atoms: C_1  and  N_2
REMARK    2  A    between atoms: N_2  and  C_3
REMARK    3  A    between atoms: N_2  and  S_4
REMARK    4  A    between atoms: S_4  and  C_7
REMARK    5  A    between atoms: C_10  and  N_11
REMARK    6  A    between atoms: N_11  and  C_12
REMARK                            x       y       z     vdW  Elec       q    Type
REMARK                         _______ _______ _______ _____ _____    ______ ____
ROOT
ATOM      1  N   UNL     1       2.285   7.221  20.361  0.00  0.00    +0.000 N 
ATOM      2  H   UNL     1       3.244   7.536  20.545  0.00  0.00    +0.000 HD
ENDROOT
BRANCH   1   3
ATOM      3  C   UNL     1       2.512   6.072  19.587  0.00  0.00    +0.000 A 
ATOM      4  N   UNL     1       1.728   5.083  20.022  0.00  0.00    +0.000 NA
ATOM      5  C   UNL     1       2.335   3.919  20.159  0.00  0.00    +0.000 A 
ATOM      6 CL   UNL     1       1.417   2.628  20.766  0.00  0.00    +0.000 Cl
ATOM      7  N   UNL     1       3.630   3.671  19.898  0.00  0.00    +0.000 NA
ATOM      8  C   UNL     1       4.236   4.599  19.154  0.00  0.00    +0.000 A 
ATOM      9  C   UNL     1       5.466   4.239  18.640  0.00  0.00    +0.000 A 
ATOM     10  C   UNL     1       5.916   4.866  17.510  0.00  0.00    +0.000 A 
ATOM     11  C   UNL     1       5.198   5.863  16.906  0.00  0.00    +0.000 A 
ATOM     12  C   UNL     1       4.091   6.415  17.548  0.00  0.00    +0.000 A 
ATOM     13  C   UNL     1       3.629   5.798  18.768  0.00  0.00    +0.000 A 
ATOM     14  O   UNL     1       5.683   6.127  15.657  0.00  0.00    +0.000 OA
ATOM     15  C   UNL     1       6.767   5.163  15.555  0.00  0.00    +0.000 C 
ATOM     16  O   UNL     1       6.980   4.446  16.775  0.00  0.00    +0.000 OA
ENDBRANCH   1   3
BRANCH   1  20
ATOM     17  C   UNL     1       0.392  10.971  19.576  0.00  0.00    +0.000 A 
ATOM     18  C   UNL     1       1.018  10.252  18.557  0.00  0.00    +0.000 A 
ATOM     19  C   UNL     1       1.553   8.975  18.834  0.00  0.00    +0.000 A 
ATOM     20  C   UNL     1       1.504   8.395  20.125  0.00  0.00    +0.000 A 
ATOM     21  C   UNL     1       0.815   9.102  21.110  0.00  0.00    +0.000 A 
ATOM     22  C   UNL     1       0.262  10.371  20.840  0.00  0.00    +0.000 A 
BRANCH  17  23
ATOM     23  S   UNL     1       0.162  12.746  19.438  0.00  0.00    +0.000 S 
ATOM     24  O   UNL     1      -0.526  13.167  20.642  0.00  0.00    +0.000 OA
ATOM     25  O   UNL     1      -0.433  12.983  18.134  0.00  0.00    +0.000 OA
BRANCH  23  27
ATOM     26  C   UNL     1       2.489  13.518  20.643  0.00  0.00    +0.000 C 
ATOM     27  N   UNL     1       1.682  13.474  19.422  0.00  0.00    +0.000 NA
ATOM     28  C   UNL     1       2.415  13.631  18.167  0.00  0.00    +0.000 C 
ENDBRANCH  23  27
ENDBRANCH  17  23
ENDBRANCH   1  20
TORSDOF 4
ENDMDL
MODEL 4
REMARK VINA RESULT:      -8.3      3.623      8.437
REMARK  Name = 
REMARK  6 active torsions:
REMARK  status: ('A' for Active; 'I' for Inactive)
REMARK    1  A    between atoms: C_1  and  N_2
REMARK    2  A    between atoms: N_2  and  C_3
REMARK    3  A    between atoms: N_2  and  S_4
REMARK    4  A    between atoms: S_4  and  C_7
REMARK    5  A    between atoms: C_10  and  N_11
REMARK    6  A    between atoms: N_11  and  C_12
REMARK                            x       y       z     vdW  Elec       q    Type
REMARK                         _______ _______ _______ _____ _____    ______ ____
ROOT
ATOM      1  N   UNL     1       0.959   9.334  20.564  0.00  0.00    +0.000 N 
ATOM      2  H   UNL     1       0.092   9.034  21.025  0.00  0.00    +0.000 HD
ENDROOT
BRANCH   1   3
ATOM      3  C   UNL     1       0.534  10.495  19.899  0.00  0.00    +0.000 A 
ATOM      4  N   UNL     1       1.102  11.562  20.465  0.00  0.00    +0.000 NA
ATOM      5  C   UNL     1       0.280  12.570  20.691  0.00  0.00    +0.000 A 
ATOM      6 CL   UNL     1       0.917  13.939  21.464  0.00  0.00    +0.000 Cl
ATOM      7  N   UNL     1      -1.032  12.594  20.399  0.00  0.00    +0.000 NA
ATOM      8  C   UNL     1      -1.431  11.654  19.540  0.00  0.00    +0.000 A 
ATOM      9  C   UNL     1      -2.694  11.828  19.011  0.00  0.00    +0.000 A 
ATOM     10  C   UNL     1      -2.987  11.251  17.805  0.00  0.00    +0.000 A 
ATOM     11  C   UNL     1      -2.077  10.477  17.137  0.00  0.00    +0.000 A 
ATOM     12  C   UNL     1      -0.900  10.079  17.768  0.00  0.00    +0.000 A 
ATOM     13  C   UNL     1      -0.595  10.640  19.063  0.00  0.00    +0.000 A 
ATOM     14  O   UNL     1      -2.471  10.261  15.848  0.00  0.00    +0.000 OA
ATOM     15  C   UNL     1      -3.717  11.009  15.794  0.00  0.00    +0.000 C 
ATOM     16  O   UNL     1      -4.094  11.538  17.069  0.00  0.00    +0.000 OA
ENDBRANCH   1   3
BRANCH   1  20
ATOM     17  C   UNL     1       2.535   5.762  18.826  0.00  0.00    +0.000 A 
ATOM     18  C   UNL     1       2.585   6.978  18.145  0.00  0.00    +0.000 A 
ATOM     19  C   UNL     1       2.138   8.155  18.785  0.00  0.00    +0.000 A 
ATOM     20  C   UNL     1       1.610   8.149  20.099  0.00  0.00    +0.000 A 
ATOM     21  C   UNL     1       1.633   6.935  20.785  0.00  0.00    +0.000 A 
ATOM     22  C   UNL     1       2.093   5.756  20.160  0.00  0.00    +0.000 A 
BRANCH  17  23
ATOM     23  S   UNL     1       2.592   4.207  17.933  0.00  0.00    +0.000 S 
ATOM     24  O   UNL     1       3.791   4.242  17.120  0.00  0.00    +0.000 OA
ATOM     25  O   UNL     1       1.290   4.042  17.310  0.00  0.00    +0.000 OA
BRANCH  23  27
ATOM     26  C   UNL     1       1.647   2.042  19.305  0.00  0.00    +0.000 C 
ATOM     27  N   UNL     1       2.759   2.961  19.056  0.00  0.00    +0.000 NA
ATOM     28  C   UNL     1       4.084   2.474  19.432  0.00  0.00    +0.000 C 
ENDBRANCH  23  27
ENDBRANCH  17  23
ENDBRANCH   1  20
TORSDOF 4
ENDMDL
MODEL 5
REMARK VINA RESULT:      -8.2      1.685      2.278
REMARK  Name = 
REMARK  6 active torsions:
REMARK  status: ('A' for Active; 'I' for Inactive)
REMARK    1  A    between atoms: C_1  and  N_2
REMARK    2  A    between atoms: N_2  and  C_3
REMARK    3  A    between atoms: N_2  and  S_4
REMARK    4  A    between atoms: S_4  and  C_7
REMARK    5  A    between atoms: C_10  and  N_11
REMARK    6  A    between atoms: N_11  and  C_12
REMARK                            x       y       z     vdW  Elec       q    Type
REMARK                         _______ _______ _______ _____ _____    ______ ____
ROOT
ATOM      1  N   UNL     1       3.014   6.889  19.875  0.00  0.00    +0.000 N 
ATOM      2  H   UNL     1       3.919   7.373  19.915  0.00  0.00    +0.000 HD
ENDROOT
BRANCH   1   3
ATOM      3  C   UNL     1       3.357   5.714  19.188  0.00  0.00    +0.000 A 
ATOM      4  N   UNL     1       2.867   4.660  19.844  0.00  0.00    +0.000 NA
ATOM      5  C   UNL     1       3.714   3.657  19.988  0.00  0.00    +0.000 A 
ATOM      6 CL   UNL     1       3.183   2.306  20.865  0.00  0.00    +0.000 Cl
ATOM      7  N   UNL     1       4.980   3.627  19.535  0.00  0.00    +0.000 NA
ATOM      8  C   UNL     1       5.265   4.548  18.613  0.00  0.00    +0.000 A 
ATOM      9  C   UNL     1       6.452   4.363  17.933  0.00  0.00    +0.000 A 
ATOM     10  C   UNL     1       6.591   4.912  16.688  0.00  0.00    +0.000 A 
ATOM     11  C   UNL     1       5.601   5.671  16.122  0.00  0.00    +0.000 A 
ATOM     12  C   UNL     1       4.512   6.082  16.886  0.00  0.00    +0.000 A 
ATOM     13  C   UNL     1       4.372   5.551  18.221  0.00  0.00    +0.000 A 
ATOM     14  O   UNL     1       5.831   5.858  14.789  0.00  0.00    +0.000 OA
ATOM     15  C   UNL     1       7.063   5.110  14.597  0.00  0.00    +0.000 C 
ATOM     16  O   UNL     1       7.598   4.609  15.826  0.00  0.00    +0.000 OA
ENDBRANCH   1   3
BRANCH   1  20
ATOM     17  C   UNL     1       0.440  10.198  19.047  0.00  0.00    +0.000 A 
ATOM     18  C   UNL     1       1.194   9.601  18.037  0.00  0.00    +0.000 A 
ATOM     19  C   UNL     1       1.963   8.453  18.328  0.00  0.00    +0.000 A 
ATOM     20  C   UNL     1       2.024   7.889  19.625  0.00  0.00    +0.000 A 
ATOM     21  C   UNL     1       1.209   8.461  20.602  0.00  0.00    +0.000 A 
ATOM     22  C   UNL     1       0.424   9.598  20.318  0.00  0.00    +0.000 A 
BRANCH  17  23
ATOM     23  S   UNL     1      -0.126  11.894  18.889  0.00  0.00    +0.000 S 
ATOM     24  O   UNL     1      -1.313  11.857  18.059  0.00  0.00    +0.000 OA
ATOM     25  O   UNL     1       1.028  12.677  18.482  0.00  0.00    +0.000 OA
BRANCH  23  27
ATOM     26  C   UNL     1       0.348  13.264  21.204  0.00  0.00    +0.000 C 
ATOM     27  N   UNL     1      -0.574  12.443  20.419  0.00  0.00    +0.000 NA
ATOM     28  C   UNL     1      -1.985  12.538  20.788  0.00  0.00    +0.000 C 
ENDBRANCH  23  27
ENDBRANCH  17  23
ENDBRANCH   1  20
TORSDOF 4
ENDMDL
MODEL 6
REMARK VINA RESULT:      -8.2      1.263      1.655
REMARK  Name = 
REMARK  6 active torsions:
REMARK  status: ('A' for Active; 'I' for Inactive)
REMARK    1  A    between atoms: C_1  and  N_2
REMARK    2  A    between atoms: N_2  and  C_3
REMARK    3  A    between atoms: N_2  and  S_4
REMARK    4  A    between atoms: S_4  and  C_7
REMARK    5  A    between atoms: C_10  and  N_11
REMARK    6  A    between atoms: N_11  and  C_12
REMARK                            x       y       z     vdW  Elec       q    Type
REMARK                         _______ _______ _______ _____ _____    ______ ____
ROOT
ATOM      1  N   UNL     1       2.473   7.258  20.119  0.00  0.00    +0.000 N 
ATOM      2  H   UNL     1       3.393   7.710  20.057  0.00  0.00    +0.000 HD
ENDROOT
BRANCH   1   3
ATOM      3  C   UNL     1       2.695   6.075  19.395  0.00  0.00    +0.000 A 
ATOM      4  N   UNL     1       1.922   5.104  19.888  0.00  0.00    +0.000 NA
ATOM      5  C   UNL     1       2.537   3.950  20.070  0.00  0.00    +0.000 A 
ATOM      6 CL   UNL     1       1.635   2.684  20.750  0.00  0.00    +0.000 Cl
ATOM      7  N   UNL     1       3.829   3.696  19.801  0.00  0.00    +0.000 NA
ATOM      8  C   UNL     1       4.420   4.590  19.006  0.00  0.00    +0.000 A 
ATOM      9  C   UNL     1       5.643   4.213  18.490  0.00  0.00    +0.000 A 
ATOM     10  C   UNL     1       6.073   4.788  17.326  0.00  0.00    +0.000 A 
ATOM     11  C   UNL     1       5.342   5.754  16.687  0.00  0.00    +0.000 A 
ATOM     12  C   UNL     1       4.241   6.330  17.319  0.00  0.00    +0.000 A 
ATOM     13  C   UNL     1       3.800   5.767  18.573  0.00  0.00    +0.000 A 
ATOM     14  O   UNL     1       5.806   5.962  15.420  0.00  0.00    +0.000 OA
ATOM     15  C   UNL     1       6.893   4.998  15.346  0.00  0.00    +0.000 C 
ATOM     16  O   UNL     1       7.128   4.340  16.595  0.00  0.00    +0.000 OA
ENDBRANCH   1   3
BRANCH   1  20
ATOM     17  C   UNL     1      -0.057  10.673  19.677  0.00  0.00    +0.000 A 
ATOM     18  C   UNL     1       0.696  10.190  18.606  0.00  0.00    +0.000 A 
ATOM     19  C   UNL     1       1.450   9.006  18.763  0.00  0.00    +0.000 A 
ATOM     20  C   UNL     1       1.496   8.292  19.985  0.00  0.00    +0.000 A 
ATOM     21  C   UNL     1       0.683   8.755  21.019  0.00  0.00    +0.000 A 
ATOM     22  C   UNL     1      -0.087   9.928  20.868  0.00  0.00    +0.000 A 
BRANCH  17  23
ATOM     23  S   UNL     1      -0.601  12.383  19.718  0.00  0.00    +0.000 S 
ATOM     24  O   UNL     1      -0.030  13.026  18.553  0.00  0.00    +0.000 OA
ATOM     25  O   UNL     1      -0.299  12.878  21.050  0.00  0.00    +0.000 OA
BRANCH  23  27
ATOM     26  C   UNL     1      -2.931  11.574  18.543  0.00  0.00    +0.000 C 
ATOM     27  N   UNL     1      -2.279  12.404  19.558  0.00  0.00    +0.000 NA
ATOM     28  C   UNL     1      -3.124  12.833  20.670  0.00  0.00    +0.000 C 
ENDBRANCH  23  27
ENDBRANCH  17  23
ENDBRANCH   1  20
TORSDOF 4
ENDMDL
MODEL 7
REMARK VINA RESULT:      -8.2      1.873      2.688
REMARK  Name = 
REMARK  6 active torsions:
REMARK  status: ('A' for Active; 'I' for Inactive)
REMARK    1  A    between atoms: C_1  and  N_2
REMARK    2  A    between atoms: N_2  and  C_3
REMARK    3  A    between atoms: N_2  and  S_4
REMARK    4  A    between atoms: S_4  and  C_7
REMARK    5  A    between atoms: C_10  and  N_11
REMARK    6  A    between atoms: N_11  and  C_12
REMARK                            x       y       z     vdW  Elec       q    Type
REMARK                         _______ _______ _______ _____ _____    ______ ____
ROOT
ATOM      1  N   UNL     1       2.272   6.994  20.164  0.00  0.00    +0.000 N 
ATOM      2  H   UNL     1       3.191   7.200  20.573  0.00  0.00    +0.000 HD
ENDROOT
BRANCH   1   3
ATOM      3  C   UNL     1       2.557   5.852  19.398  0.00  0.00    +0.000 A 
ATOM      4  N   UNL     1       1.801   4.836  19.822  0.00  0.00    +0.000 NA
ATOM      5  C   UNL     1       2.448   3.695  19.975  0.00  0.00    +0.000 A 
ATOM      6 CL   UNL     1       1.567   2.373  20.568  0.00  0.00    +0.000 Cl
ATOM      7  N   UNL     1       3.756   3.496  19.740  0.00  0.00    +0.000 NA
ATOM      8  C   UNL     1       4.342   4.442  19.005  0.00  0.00    +0.000 A 
ATOM      9  C   UNL     1       5.594   4.127  18.516  0.00  0.00    +0.000 A 
ATOM     10  C   UNL     1       6.043   4.767  17.393  0.00  0.00    +0.000 A 
ATOM     11  C   UNL     1       5.301   5.736  16.771  0.00  0.00    +0.000 A 
ATOM     12  C   UNL     1       4.161   6.248  17.389  0.00  0.00    +0.000 A 
ATOM     13  C   UNL     1       3.698   5.617  18.602  0.00  0.00    +0.000 A 
ATOM     14  O   UNL     1       5.799   6.014  15.531  0.00  0.00    +0.000 OA
ATOM     15  C   UNL     1       6.920   5.090  15.453  0.00  0.00    +0.000 C 
ATOM     16  O   UNL     1       7.135   4.385  16.680  0.00  0.00    +0.000 OA
ENDBRANCH   1   3
BRANCH   1  20
ATOM     17  C   UNL     1       0.981  10.920  19.075  0.00  0.00    +0.000 A 
ATOM     18  C   UNL     1       1.528  10.052  18.129  0.00  0.00    +0.000 A 
ATOM     19  C   UNL     1       1.859   8.732  18.505  0.00  0.00    +0.000 A 
ATOM     20  C   UNL     1       1.682   8.251  19.824  0.00  0.00    +0.000 A 
ATOM     21  C   UNL     1       1.071   9.113  20.735  0.00  0.00    +0.000 A 
ATOM     22  C   UNL     1       0.721  10.429  20.366  0.00  0.00    +0.000 A 
BRANCH  17  23
ATOM     23  S   UNL     1       1.020  12.696  18.822  0.00  0.00    +0.000 S 
ATOM     24  O   UNL     1      -0.308  13.080  18.388  0.00  0.00    +0.000 OA
ATOM     25  O   UNL     1       2.172  12.966  17.978  0.00  0.00    +0.000 OA
BRANCH  23  27
ATOM     26  C   UNL     1       2.685  13.799  20.685  0.00  0.00    +0.000 C 
ATOM     27  N   UNL     1       1.319  13.433  20.308  0.00  0.00    +0.000 NA
ATOM     28  C   UNL     1       0.251  14.140  21.012  0.00  0.00    +0.000 C 
ENDBRANCH  23  27
ENDBRANCH  17  23
ENDBRANCH   1  20
TORSDOF 4
ENDMDL
MODEL 8
REMARK VINA RESULT:      -8.2      1.751      2.384
REMARK  Name = 
REMARK  6 active torsions:
REMARK  status: ('A' for Active; 'I' for Inactive)
REMARK    1  A    between atoms: C_1  and  N_2
REMARK    2  A    between atoms: N_2  and  C_3
REMARK    3  A    between atoms: N_2  and  S_4
REMARK    4  A    between atoms: S_4  and  C_7
REMARK    5  A    between atoms: C_10  and  N_11
REMARK    6  A    between atoms: N_11  and  C_12
REMARK                            x       y       z     vdW  Elec       q    Type
REMARK                         _______ _______ _______ _____ _____    ______ ____
ROOT
ATOM      1  N   UNL     1       2.475   7.103  20.450  0.00  0.00    +0.000 N 
ATOM      2  H   UNL     1       3.408   7.526  20.377  0.00  0.00    +0.000 HD
ENDROOT
BRANCH   1   3
ATOM      3  C   UNL     1       2.599   6.001  19.589  0.00  0.00    +0.000 A 
ATOM      4  N   UNL     1       1.785   5.026  19.998  0.00  0.00    +0.000 NA
ATOM      5  C   UNL     1       2.333   3.825  20.022  0.00  0.00    +0.000 A 
ATOM      6 CL   UNL     1       1.377   2.543  20.589  0.00  0.00    +0.000 Cl
ATOM      7  N   UNL     1       3.597   3.530  19.675  0.00  0.00    +0.000 NA
ATOM      8  C   UNL     1       4.216   4.475  18.964  0.00  0.00    +0.000 A 
ATOM      9  C   UNL     1       5.396   4.090  18.361  0.00  0.00    +0.000 A 
ATOM     10  C   UNL     1       5.822   4.771  17.254  0.00  0.00    +0.000 A 
ATOM     11  C   UNL     1       5.131   5.845  16.759  0.00  0.00    +0.000 A 
ATOM     12  C   UNL     1       4.090   6.406  17.495  0.00  0.00    +0.000 A 
ATOM     13  C   UNL     1       3.656   5.728  18.694  0.00  0.00    +0.000 A 
ATOM     14  O   UNL     1       5.566   6.171  15.506  0.00  0.00    +0.000 OA
ATOM     15  C   UNL     1       6.588   5.162  15.280  0.00  0.00    +0.000 C 
ATOM     16  O   UNL     1       6.823   4.351  16.435  0.00  0.00    +0.000 OA
ENDBRANCH   1   3
BRANCH   1  20
ATOM     17  C   UNL     1       0.069  10.634  20.533  0.00  0.00    +0.000 A 
ATOM     18  C   UNL     1       0.690  10.211  19.357  0.00  0.00    +0.000 A 
ATOM     19  C   UNL     1       1.402   8.991  19.345  0.00  0.00    +0.000 A 
ATOM     20  C   UNL     1       1.537   8.180  20.497  0.00  0.00    +0.000 A 
ATOM     21  C   UNL     1       0.852   8.588  21.641  0.00  0.00    +0.000 A 
ATOM     22  C   UNL     1       0.124   9.796  21.660  0.00  0.00    +0.000 A 
BRANCH  17  23
ATOM     23  S   UNL     1      -0.392  12.353  20.760  0.00  0.00    +0.000 S 
ATOM     24  O   UNL     1       0.009  12.712  22.105  0.00  0.00    +0.000 OA
ATOM     25  O   UNL     1      -1.783  12.462  20.357  0.00  0.00    +0.000 OA
BRANCH  23  27
ATOM     26  C   UNL     1      -0.174  14.091  18.664  0.00  0.00    +0.000 C 
ATOM     27  N   UNL     1       0.506  13.285  19.680  0.00  0.00    +0.000 NA
ATOM     28  C   UNL     1       1.871  13.692  20.009  0.00  0.00    +0.000 C 
ENDBRANCH  23  27
ENDBRANCH  17  23
ENDBRANCH   1  20
TORSDOF 4
ENDMDL
MODEL 9
REMARK VINA RESULT:      -8.1      1.420      1.819
REMARK  Name = 
REMARK  6 active torsions:
REMARK  status: ('A' for Active; 'I' for Inactive)
REMARK    1  A    between atoms: C_1  and  N_2
REMARK    2  A    between atoms: N_2  and  C_3
REMARK    3  A    between atoms: N_2  and  S_4
REMARK    4  A    between atoms: S_4  and  C_7
REMARK    5  A    between atoms: C_10  and  N_11
REMARK    6  A    between atoms: N_11  and  C_12
REMARK                            x       y       z     vdW  Elec       q    Type
REMARK                         _______ _______ _______ _____ _____    ______ ____
ROOT
ATOM      1  N   UNL     1       2.260   7.190  20.339  0.00  0.00    +0.000 N 
ATOM      2  H   UNL     1       3.195   7.354  20.732  0.00  0.00    +0.000 HD
ENDROOT
BRANCH   1   3
ATOM      3  C   UNL     1       2.486   6.051  19.549  0.00  0.00    +0.000 A 
ATOM      4  N   UNL     1       1.689   5.063  19.959  0.00  0.00    +0.000 NA
ATOM      5  C   UNL     1       2.284   3.891  20.083  0.00  0.00    +0.000 A 
ATOM      6 CL   UNL     1       1.349   2.598  20.659  0.00  0.00    +0.000 Cl
ATOM      7  N   UNL     1       3.580   3.636  19.832  0.00  0.00    +0.000 NA
ATOM      8  C   UNL     1       4.202   4.570  19.110  0.00  0.00    +0.000 A 
ATOM      9  C   UNL     1       5.434   4.208  18.603  0.00  0.00    +0.000 A 
ATOM     10  C   UNL     1       5.902   4.850  17.489  0.00  0.00    +0.000 A 
ATOM     11  C   UNL     1       5.199   5.863  16.894  0.00  0.00    +0.000 A 
ATOM     12  C   UNL     1       4.090   6.414  17.532  0.00  0.00    +0.000 A 
ATOM     13  C   UNL     1       3.609   5.781  18.737  0.00  0.00    +0.000 A 
ATOM     14  O   UNL     1       5.699   6.144  15.655  0.00  0.00    +0.000 OA
ATOM     15  C   UNL     1       6.776   5.171  15.548  0.00  0.00    +0.000 C 
ATOM     16  O   UNL     1       6.970   4.433  16.758  0.00  0.00    +0.000 OA
ENDBRANCH   1   3
BRANCH   1  20
ATOM     17  C   UNL     1       0.168  10.830  19.547  0.00  0.00    +0.000 A 
ATOM     18  C   UNL     1       0.323  10.356  20.850  0.00  0.00    +0.000 A 
ATOM     19  C   UNL     1       1.098   9.199  21.082  0.00  0.00    +0.000 A 
ATOM     20  C   UNL     1       1.712   8.473  20.033  0.00  0.00    +0.000 A 
ATOM     21  C   UNL     1       1.600   9.004  18.748  0.00  0.00    +0.000 A 
ATOM     22  C   UNL     1       0.842  10.169  18.506  0.00  0.00    +0.000 A 
BRANCH  17  23
ATOM     23  S   UNL     1      -1.176  11.945  19.129  0.00  0.00    +0.000 S 
ATOM     24  O   UNL     1      -2.164  11.810  20.180  0.00  0.00    +0.000 OA
ATOM     25  O   UNL     1      -1.530  11.662  17.749  0.00  0.00    +0.000 OA
BRANCH  23  27
ATOM     26  C   UNL     1      -1.168  14.505  20.080  0.00  0.00    +0.000 C 
ATOM     27  N   UNL     1      -0.582  13.522  19.168  0.00  0.00    +0.000 NA
ATOM     28  C   UNL     1       0.769  13.817  18.694  0.00  0.00    +0.000 C 
ENDBRANCH  23  27
ENDBRANCH  17  23
ENDBRANCH   1  20
TORSDOF 4
ENDMDL
