MODEL 1
REMARK VINA RESULT:      -7.5      0.000      0.000
REMARK  Name = 
REMARK  8 active torsions:
REMARK  status: ('A' for Active; 'I' for Inactive)
REMARK    1  A    between atoms: C_1  and  C_2
REMARK    2  A    between atoms: N_4  and  C_5
REMARK    3  A    between atoms: C_5  and  C_6
REMARK    4  A    between atoms: C_9  and  C_10
REMARK    5  A    between atoms: N_12  and  C_13
REMARK    6  A    between atoms: C_14  and  C_15
REMARK    7  A    between atoms: C_26  and  C_27
REMARK    8  A    between atoms: C_26  and  C_28
REMARK                            x       y       z     vdW  Elec       q    Type
REMARK                         _______ _______ _______ _____ _____    ______ ____
ROOT
ATOM      1  C   UNL     1       1.287  10.409  18.329  0.00  0.00    +0.000 C 
ATOM      2  O   UNL     1       2.212  11.192  18.103  0.00  0.00    +0.000 OA
ATOM      3  N   UNL     1       1.426   9.044  18.141  0.00  0.00    +0.000 N 
ATOM      4  H   UNL     1       0.684   8.418  18.442  0.00  0.00    +0.000 HD
ENDROOT
BRANCH   1   8
ATOM      5  C   UNL     1      -0.479  13.306  18.817  0.00  0.00    +0.000 C 
ATOM      6  O   UNL     1      -1.000  13.111  17.712  0.00  0.00    +0.000 OA
ATOM      7  N   UNL     1      -0.026  12.234  19.568  0.00  0.00    +0.000 N 
ATOM      8  C   UNL     1      -0.057  10.880  18.959  0.00  0.00    +0.000 C 
ATOM      9  C   UNL     1      -0.482   9.915  20.056  0.00  0.00    +0.000 C 
ATOM     10  S   UNL     1       0.443  10.478  21.504  0.00  0.00    +0.000 S 
ATOM     11  C   UNL     1       0.554  12.237  20.930  0.00  0.00    +0.000 C 
ATOM     12  C   UNL     1       2.028  12.644  20.915  0.00  0.00    +0.000 C 
ATOM     13  C   UNL     1      -0.237  13.014  21.988  0.00  0.00    +0.000 C 
BRANCH   5  14
ATOM     14  C   UNL     1      -0.420  14.740  19.359  0.00  0.00    +0.000 C 
BRANCH  14  18
ATOM     15  C   UNL     1      -0.785  18.071  17.580  0.00  0.00    +0.000 C 
ATOM     16  C   UNL     1      -0.805  17.065  18.700  0.00  0.00    +0.000 C 
ATOM     17  O   UNL     1      -1.172  17.364  19.832  0.00  0.00    +0.000 OA
ATOM     18  N   UNL     1      -0.440  15.784  18.343  0.00  0.00    +0.000 N 
ATOM     19  H   UNL     1       0.019  15.622  17.455  0.00  0.00    +0.000 HD
ENDBRANCH  14  18
ENDBRANCH   5  14
ENDBRANCH   1   8
BRANCH   3  20
ATOM     20  C   UNL     1       2.586   8.498  17.632  0.00  0.00    +0.000 C 
ATOM     21  C   UNL     1       3.123   7.331  18.026  0.00  0.00    +0.000 C 
BRANCH  21  22
ATOM     22  C   UNL     1       2.580   6.471  19.007  0.00  0.00    +0.000 A 
ATOM     23  C   UNL     1       2.318   6.844  20.308  0.00  0.00    +0.000 A 
ATOM     24  N   UNL     1       1.713   5.780  20.920  0.00  0.00    +0.000 N 
ATOM     25  C   UNL     1       1.619   4.717  20.046  0.00  0.00    +0.000 A 
ATOM     26  C   UNL     1       1.064   3.444  20.228  0.00  0.00    +0.000 A 
ATOM     27  C   UNL     1       1.150   2.541  19.164  0.00  0.00    +0.000 A 
ATOM     28  C   UNL     1       1.769   2.897  17.968  0.00  0.00    +0.000 A 
ATOM     29  C   UNL     1       2.289   4.182  17.789  0.00  0.00    +0.000 A 
ATOM     30  C   UNL     1       2.208   5.113  18.847  0.00  0.00    +0.000 A 
ATOM     31  H   UNL     1       1.384   5.764  21.875  0.00  0.00    +0.000 HD
ENDBRANCH  21  22
ENDBRANCH   3  20
TORSDOF 5
ENDMDL
MODEL 2
REMARK VINA RESULT:      -7.3      3.918      9.257
REMARK  Name = 
REMARK  8 active torsions:
REMARK  status: ('A' for Active; 'I' for Inactive)
REMARK    1  A    between atoms: C_1  and  C_2
REMARK    2  A    between atoms: N_4  and  C_5
REMARK    3  A    between atoms: C_5  and  C_6
REMARK    4  A    between atoms: C_9  and  C_10
REMARK    5  A    between atoms: N_12  and  C_13
REMARK    6  A    between atoms: C_14  and  C_15
REMARK    7  A    between atoms: C_26  and  C_27
REMARK    8  A    between atoms: C_26  and  C_28
REMARK                            x       y       z     vdW  Elec       q    Type
REMARK                         _______ _______ _______ _____ _____    ______ ____
ROOT
ATOM      1  C   UNL     1       2.573   7.194  18.847  0.00  0.00    +0.000 C 
ATOM      2  O   UNL     1       2.720   7.121  17.624  0.00  0.00    +0.000 OA
ATOM      3  N   UNL     1       1.793   8.180  19.427  0.00  0.00    +0.000 N 
ATOM      4  H   UNL     1       1.603   8.146  20.426  0.00  0.00    +0.000 HD
ENDROOT
BRANCH   1   8
ATOM      5  C   UNL     1       4.982   4.756  18.882  0.00  0.00    +0.000 C 
ATOM      6  O   UNL     1       5.772   5.618  19.284  0.00  0.00    +0.000 OA
ATOM      7  N   UNL     1       3.630   4.876  19.156  0.00  0.00    +0.000 N 
ATOM      8  C   UNL     1       3.148   6.117  19.813  0.00  0.00    +0.000 C 
ATOM      9  C   UNL     1       2.081   5.698  20.814  0.00  0.00    +0.000 C 
ATOM     10  S   UNL     1       1.124   4.450  19.923  0.00  0.00    +0.000 S 
ATOM     11  C   UNL     1       2.534   3.932  18.838  0.00  0.00    +0.000 C 
ATOM     12  C   UNL     1       2.087   4.057  17.380  0.00  0.00    +0.000 C 
ATOM     13  C   UNL     1       2.778   2.472  19.232  0.00  0.00    +0.000 C 
BRANCH   5  14
ATOM     14  C   UNL     1       5.541   3.528  18.151  0.00  0.00    +0.000 C 
BRANCH  14  18
ATOM     15  C   UNL     1       6.475   4.175  14.531  0.00  0.00    +0.000 C 
ATOM     16  C   UNL     1       6.600   4.141  16.031  0.00  0.00    +0.000 C 
ATOM     17  O   UNL     1       7.578   4.602  16.611  0.00  0.00    +0.000 OA
ATOM     18  N   UNL     1       5.513   3.613  16.697  0.00  0.00    +0.000 N 
ATOM     19  H   UNL     1       4.815   3.090  16.182  0.00  0.00    +0.000 HD
ENDBRANCH  14  18
ENDBRANCH   5  14
ENDBRANCH   1   8
BRANCH   3  20
ATOM     20  C   UNL     1       1.192   9.166  18.674  0.00  0.00    +0.000 C 
ATOM     21  C   UNL     1       0.292  10.048  19.139  0.00  0.00    +0.000 C 
BRANCH  21  22
ATOM     22  C   UNL     1      -0.168  10.119  20.474  0.00  0.00    +0.000 A 
ATOM     23  C   UNL     1       0.026   9.132  21.416  0.00  0.00    +0.000 A 
ATOM     24  N   UNL     1      -0.472   9.601  22.602  0.00  0.00    +0.000 N 
ATOM     25  C   UNL     1      -1.019  10.855  22.427  0.00  0.00    +0.000 A 
ATOM     26  C   UNL     1      -1.620  11.716  23.354  0.00  0.00    +0.000 A 
ATOM     27  C   UNL     1      -2.132  12.926  22.878  0.00  0.00    +0.000 A 
ATOM     28  C   UNL     1      -2.047  13.260  21.529  0.00  0.00    +0.000 A 
ATOM     29  C   UNL     1      -1.415  12.406  20.620  0.00  0.00    +0.000 A 
ATOM     30  C   UNL     1      -0.886  11.181  21.079  0.00  0.00    +0.000 A 
ATOM     31  H   UNL     1      -0.451   9.105  23.482  0.00  0.00    +0.000 HD
ENDBRANCH  21  22
ENDBRANCH   3  20
TORSDOF 5
ENDMDL
MODEL 3
REMARK VINA RESULT:      -7.3      4.051      8.829
REMARK  Name = 
REMARK  8 active torsions:
REMARK  status: ('A' for Active; 'I' for Inactive)
REMARK    1  A    between atoms: C_1  and  C_2
REMARK    2  A    between atoms: N_4  and  C_5
REMARK    3  A    between atoms: C_5  and  C_6
REMARK    4  A    between atoms: C_9  and  C_10
REMARK    5  A    between atoms: N_12  and  C_13
REMARK    6  A    between atoms: C_14  and  C_15
REMARK    7  A    between atoms: C_26  and  C_27
REMARK    8  A    between atoms: C_26  and  C_28
REMARK                            x       y       z     vdW  Elec       q    Type
REMARK                         _______ _______ _______ _____ _____    ______ ____
ROOT
ATOM      1  C   UNL     1       2.451   6.661  18.438  0.00  0.00    +0.000 C 
ATOM      2  O   UNL     1       1.627   5.991  17.810  0.00  0.00    +0.000 OA
ATOM      3  N   UNL     1       2.480   8.043  18.353  0.00  0.00    +0.000 N 
ATOM      4  H   UNL     1       3.096   8.570  18.966  0.00  0.00    +0.000 HD
ENDROOT
BRANCH   1   8
ATOM      5  C   UNL     1       5.575   5.255  18.510  0.00  0.00    +0.000 C 
ATOM      6  O   UNL     1       6.023   6.390  18.712  0.00  0.00    +0.000 OA
ATOM      7  N   UNL     1       4.290   4.936  18.914  0.00  0.00    +0.000 N 
ATOM      8  C   UNL     1       3.431   6.017  19.461  0.00  0.00    +0.000 C 
ATOM      9  C   UNL     1       2.648   5.412  20.618  0.00  0.00    +0.000 C 
ATOM     10  S   UNL     1       2.157   3.786  19.999  0.00  0.00    +0.000 S 
ATOM     11  C   UNL     1       3.592   3.632  18.839  0.00  0.00    +0.000 C 
ATOM     12  C   UNL     1       3.047   3.364  17.435  0.00  0.00    +0.000 C 
ATOM     13  C   UNL     1       4.371   2.429  19.381  0.00  0.00    +0.000 C 
BRANCH   5  14
ATOM     14  C   UNL     1       6.497   4.202  17.880  0.00  0.00    +0.000 C 
BRANCH  14  18
ATOM     15  C   UNL     1       6.513   4.317  14.088  0.00  0.00    +0.000 C 
ATOM     16  C   UNL     1       6.839   4.697  15.508  0.00  0.00    +0.000 C 
ATOM     17  O   UNL     1       7.547   5.663  15.774  0.00  0.00    +0.000 OA
ATOM     18  N   UNL     1       6.237   3.919  16.475  0.00  0.00    +0.000 N 
ATOM     19  H   UNL     1       5.811   3.037  16.216  0.00  0.00    +0.000 HD
ENDBRANCH  14  18
ENDBRANCH   5  14
ENDBRANCH   1   8
BRANCH   3  20
ATOM     20  C   UNL     1       1.631   8.736  17.515  0.00  0.00    +0.000 C 
ATOM     21  C   UNL     1       0.899   9.803  17.875  0.00  0.00    +0.000 C 
BRANCH  21  22
ATOM     22  C   UNL     1       0.894  10.396  19.158  0.00  0.00    +0.000 A 
ATOM     23  C   UNL     1       1.369  11.661  19.431  0.00  0.00    +0.000 A 
ATOM     24  N   UNL     1       1.107  11.915  20.751  0.00  0.00    +0.000 N 
ATOM     25  C   UNL     1       0.510  10.819  21.338  0.00  0.00    +0.000 A 
ATOM     26  C   UNL     1       0.055  10.633  22.650  0.00  0.00    +0.000 A 
ATOM     27  C   UNL     1      -0.477   9.384  22.980  0.00  0.00    +0.000 A 
ATOM     28  C   UNL     1      -0.550   8.362  22.037  0.00  0.00    +0.000 A 
ATOM     29  C   UNL     1      -0.123   8.572  20.722  0.00  0.00    +0.000 A 
ATOM     30  C   UNL     1       0.413   9.828  20.364  0.00  0.00    +0.000 A 
ATOM     31  H   UNL     1       1.321  12.776  21.234  0.00  0.00    +0.000 HD
ENDBRANCH  21  22
ENDBRANCH   3  20
TORSDOF 5
ENDMDL
MODEL 4
REMARK VINA RESULT:      -7.3      2.671      3.358
REMARK  Name = 
REMARK  8 active torsions:
REMARK  status: ('A' for Active; 'I' for Inactive)
REMARK    1  A    between atoms: C_1  and  C_2
REMARK    2  A    between atoms: N_4  and  C_5
REMARK    3  A    between atoms: C_5  and  C_6
REMARK    4  A    between atoms: C_9  and  C_10
REMARK    5  A    between atoms: N_12  and  C_13
REMARK    6  A    between atoms: C_14  and  C_15
REMARK    7  A    between atoms: C_26  and  C_27
REMARK    8  A    between atoms: C_26  and  C_28
REMARK                            x       y       z     vdW  Elec       q    Type
REMARK                         _______ _______ _______ _____ _____    ______ ____
ROOT
ATOM      1  C   UNL     1       1.647   8.891  18.249  0.00  0.00    +0.000 C 
ATOM      2  O   UNL     1       2.170   9.763  17.551  0.00  0.00    +0.000 OA
ATOM      3  N   UNL     1       2.272   7.677  18.483  0.00  0.00    +0.000 N 
ATOM      4  H   UNL     1       1.866   7.025  19.151  0.00  0.00    +0.000 HD
ENDROOT
BRANCH   1   8
ATOM      5  C   UNL     1      -1.332  10.529  17.819  0.00  0.00    +0.000 C 
ATOM      6  O   UNL     1      -1.761   9.498  17.287  0.00  0.00    +0.000 OA
ATOM      7  N   UNL     1      -0.323  10.452  18.764  0.00  0.00    +0.000 N 
ATOM      8  C   UNL     1       0.314   9.135  19.014  0.00  0.00    +0.000 C 
ATOM      9  C   UNL     1       0.553   9.041  20.514  0.00  0.00    +0.000 C 
ATOM     10  S   UNL     1       1.158  10.687  20.955  0.00  0.00    +0.000 S 
ATOM     11  C   UNL     1       0.278  11.542  19.567  0.00  0.00    +0.000 C 
ATOM     12  C   UNL     1       1.310  12.334  18.761  0.00  0.00    +0.000 C 
ATOM     13  C   UNL     1      -0.713  12.468  20.280  0.00  0.00    +0.000 C 
BRANCH   5  14
ATOM     14  C   UNL     1      -1.993  11.868  17.465  0.00  0.00    +0.000 C 
BRANCH  14  18
ATOM     15  C   UNL     1      -5.786  11.790  17.464  0.00  0.00    +0.000 C 
ATOM     16  C   UNL     1      -4.381  11.890  17.997  0.00  0.00    +0.000 C 
ATOM     17  O   UNL     1      -4.151  12.009  19.196  0.00  0.00    +0.000 OA
ATOM     18  N   UNL     1      -3.386  11.776  17.049  0.00  0.00    +0.000 N 
ATOM     19  H   UNL     1      -3.618  11.856  16.066  0.00  0.00    +0.000 HD
ENDBRANCH  14  18
ENDBRANCH   5  14
ENDBRANCH   1   8
BRANCH   3  20
ATOM     20  C   UNL     1       3.479   7.358  17.899  0.00  0.00    +0.000 C 
ATOM     21  C   UNL     1       3.899   6.109  17.634  0.00  0.00    +0.000 C 
BRANCH  21  22
ATOM     22  C   UNL     1       3.166   4.929  17.894  0.00  0.00    +0.000 A 
ATOM     23  C   UNL     1       2.786   4.022  16.929  0.00  0.00    +0.000 A 
ATOM     24  N   UNL     1       2.186   2.973  17.573  0.00  0.00    +0.000 N 
ATOM     25  C   UNL     1       2.139   3.211  18.930  0.00  0.00    +0.000 A 
ATOM     26  C   UNL     1       1.638   2.417  19.970  0.00  0.00    +0.000 A 
ATOM     27  C   UNL     1       1.684   2.940  21.265  0.00  0.00    +0.000 A 
ATOM     28  C   UNL     1       2.209   4.206  21.510  0.00  0.00    +0.000 A 
ATOM     29  C   UNL     1       2.736   4.974  20.467  0.00  0.00    +0.000 A 
ATOM     30  C   UNL     1       2.705   4.465  19.152  0.00  0.00    +0.000 A 
ATOM     31  H   UNL     1       1.823   2.143  17.126  0.00  0.00    +0.000 HD
ENDBRANCH  21  22
ENDBRANCH   3  20
TORSDOF 5
ENDMDL
MODEL 5
REMARK VINA RESULT:      -7.2      4.931      6.874
REMARK  Name = 
REMARK  8 active torsions:
REMARK  status: ('A' for Active; 'I' for Inactive)
REMARK    1  A    between atoms: C_1  and  C_2
REMARK    2  A    between atoms: N_4  and  C_5
REMARK    3  A    between atoms: C_5  and  C_6
REMARK    4  A    between atoms: C_9  and  C_10
REMARK    5  A    between atoms: N_12  and  C_13
REMARK    6  A    between atoms: C_14  and  C_15
REMARK    7  A    between atoms: C_26  and  C_27
REMARK    8  A    between atoms: C_26  and  C_28
REMARK                            x       y       z     vdW  Elec       q    Type
REMARK                         _______ _______ _______ _____ _____    ______ ____
ROOT
ATOM      1  C   UNL     1      -1.202  12.094  22.686  0.00  0.00    +0.000 C 
ATOM      2  O   UNL     1      -1.661  10.973  22.922  0.00  0.00    +0.000 OA
ATOM      3  N   UNL     1      -0.093  12.270  21.876  0.00  0.00    +0.000 N 
ATOM      4  H   UNL     1       0.191  13.211  21.613  0.00  0.00    +0.000 HD
ENDROOT
BRANCH   1   8
ATOM      5  C   UNL     1      -4.327  13.169  23.598  0.00  0.00    +0.000 C 
ATOM      6  O   UNL     1      -4.053  12.816  24.751  0.00  0.00    +0.000 OA
ATOM      7  N   UNL     1      -3.315  13.550  22.733  0.00  0.00    +0.000 N 
ATOM      8  C   UNL     1      -1.907  13.393  23.176  0.00  0.00    +0.000 C 
ATOM      9  C   UNL     1      -1.150  14.614  22.674  0.00  0.00    +0.000 C 
ATOM     10  S   UNL     1      -1.783  14.851  20.997  0.00  0.00    +0.000 S 
ATOM     11  C   UNL     1      -3.426  14.072  21.351  0.00  0.00    +0.000 C 
ATOM     12  C   UNL     1      -3.651  12.947  20.339  0.00  0.00    +0.000 C 
ATOM     13  C   UNL     1      -4.423  15.219  21.151  0.00  0.00    +0.000 C 
BRANCH   5  14
ATOM     14  C   UNL     1      -5.802  13.246  23.183  0.00  0.00    +0.000 C 
BRANCH  14  18
ATOM     15  C   UNL     1      -7.560  10.968  20.711  0.00  0.00    +0.000 C 
ATOM     16  C   UNL     1      -7.097  12.242  21.365  0.00  0.00    +0.000 C 
ATOM     17  O   UNL     1      -7.448  13.344  20.957  0.00  0.00    +0.000 OA
ATOM     18  N   UNL     1      -6.307  12.072  22.484  0.00  0.00    +0.000 N 
ATOM     19  H   UNL     1      -5.902  11.165  22.678  0.00  0.00    +0.000 HD
ENDBRANCH  14  18
ENDBRANCH   5  14
ENDBRANCH   1   8
BRANCH   3  20
ATOM     20  C   UNL     1       0.593  11.199  21.343  0.00  0.00    +0.000 C 
ATOM     21  C   UNL     1       0.518  10.799  20.063  0.00  0.00    +0.000 C 
BRANCH  21  22
ATOM     22  C   UNL     1      -0.257  11.419  19.057  0.00  0.00    +0.000 A 
ATOM     23  C   UNL     1      -0.006  12.674  18.545  0.00  0.00    +0.000 A 
ATOM     24  N   UNL     1      -0.903  12.885  17.532  0.00  0.00    +0.000 N 
ATOM     25  C   UNL     1      -1.751  11.804  17.414  0.00  0.00    +0.000 A 
ATOM     26  C   UNL     1      -2.801  11.573  16.516  0.00  0.00    +0.000 A 
ATOM     27  C   UNL     1      -3.528  10.388  16.659  0.00  0.00    +0.000 A 
ATOM     28  C   UNL     1      -3.220   9.473  17.663  0.00  0.00    +0.000 A 
ATOM     29  C   UNL     1      -2.149   9.701  18.532  0.00  0.00    +0.000 A 
ATOM     30  C   UNL     1      -1.396  10.887  18.402  0.00  0.00    +0.000 A 
ATOM     31  H   UNL     1      -0.947  13.711  16.954  0.00  0.00    +0.000 HD
ENDBRANCH  21  22
ENDBRANCH   3  20
TORSDOF 5
ENDMDL
MODEL 6
REMARK VINA RESULT:      -7.1      2.463      3.393
REMARK  Name = 
REMARK  8 active torsions:
REMARK  status: ('A' for Active; 'I' for Inactive)
REMARK    1  A    between atoms: C_1  and  C_2
REMARK    2  A    between atoms: N_4  and  C_5
REMARK    3  A    between atoms: C_5  and  C_6
REMARK    4  A    between atoms: C_9  and  C_10
REMARK    5  A    between atoms: N_12  and  C_13
REMARK    6  A    between atoms: C_14  and  C_15
REMARK    7  A    between atoms: C_26  and  C_27
REMARK    8  A    between atoms: C_26  and  C_28
REMARK                            x       y       z     vdW  Elec       q    Type
REMARK                         _______ _______ _______ _____ _____    ______ ____
ROOT
ATOM      1  C   UNL     1       0.102   9.817  19.874  0.00  0.00    +0.000 C 
ATOM      2  O   UNL     1      -0.906   9.617  20.556  0.00  0.00    +0.000 OA
ATOM      3  N   UNL     1       1.293   9.156  20.125  0.00  0.00    +0.000 N 
ATOM      4  H   UNL     1       2.070   9.260  19.477  0.00  0.00    +0.000 HD
ENDROOT
BRANCH   1   8
ATOM      5  C   UNL     1       1.992  12.265  18.397  0.00  0.00    +0.000 C 
ATOM      6  O   UNL     1       2.599  11.365  17.805  0.00  0.00    +0.000 OA
ATOM      7  N   UNL     1       0.679  12.071  18.792  0.00  0.00    +0.000 N 
ATOM      8  C   UNL     1       0.076  10.726  18.611  0.00  0.00    +0.000 C 
ATOM      9  C   UNL     1      -1.360  10.947  18.160  0.00  0.00    +0.000 C 
ATOM     10  S   UNL     1      -1.933  12.307  19.204  0.00  0.00    +0.000 S 
ATOM     11  C   UNL     1      -0.244  13.031  19.439  0.00  0.00    +0.000 C 
ATOM     12  C   UNL     1       0.023  13.146  20.941  0.00  0.00    +0.000 C 
ATOM     13  C   UNL     1      -0.344  14.409  18.776  0.00  0.00    +0.000 C 
BRANCH   5  14
ATOM     14  C   UNL     1       2.698  13.611  18.611  0.00  0.00    +0.000 C 
BRANCH  14  18
ATOM     15  C   UNL     1       6.200  14.765  17.717  0.00  0.00    +0.000 C 
ATOM     16  C   UNL     1       4.847  14.759  18.377  0.00  0.00    +0.000 C 
ATOM     17  O   UNL     1       4.493  15.654  19.136  0.00  0.00    +0.000 OA
ATOM     18  N   UNL     1       4.026  13.710  18.018  0.00  0.00    +0.000 N 
ATOM     19  H   UNL     1       4.416  12.910  17.535  0.00  0.00    +0.000 HD
ENDBRANCH  14  18
ENDBRANCH   5  14
ENDBRANCH   1   8
BRANCH   3  20
ATOM     20  C   UNL     1       1.430   8.288  21.188  0.00  0.00    +0.000 C 
ATOM     21  C   UNL     1       1.779   6.995  21.084  0.00  0.00    +0.000 C 
BRANCH  21  22
ATOM     22  C   UNL     1       2.078   6.324  19.877  0.00  0.00    +0.000 A 
ATOM     23  C   UNL     1       2.769   6.885  18.826  0.00  0.00    +0.000 A 
ATOM     24  N   UNL     1       2.944   5.905  17.886  0.00  0.00    +0.000 N 
ATOM     25  C   UNL     1       2.340   4.735  18.299  0.00  0.00    +0.000 A 
ATOM     26  C   UNL     1       2.277   3.483  17.677  0.00  0.00    +0.000 A 
ATOM     27  C   UNL     1       1.547   2.477  18.316  0.00  0.00    +0.000 A 
ATOM     28  C   UNL     1       0.906   2.716  19.529  0.00  0.00    +0.000 A 
ATOM     29  C   UNL     1       1.004   3.962  20.155  0.00  0.00    +0.000 A 
ATOM     30  C   UNL     1       1.740   4.991  19.530  0.00  0.00    +0.000 A 
ATOM     31  H   UNL     1       3.438   6.014  17.012  0.00  0.00    +0.000 HD
ENDBRANCH  21  22
ENDBRANCH   3  20
TORSDOF 5
ENDMDL
MODEL 7
REMARK VINA RESULT:      -7.0      2.190      2.866
REMARK  Name = 
REMARK  8 active torsions:
REMARK  status: ('A' for Active; 'I' for Inactive)
REMARK    1  A    between atoms: C_1  and  C_2
REMARK    2  A    between atoms: N_4  and  C_5
REMARK    3  A    between atoms: C_5  and  C_6
REMARK    4  A    between atoms: C_9  and  C_10
REMARK    5  A    between atoms: N_12  and  C_13
REMARK    6  A    between atoms: C_14  and  C_15
REMARK    7  A    between atoms: C_26  and  C_27
REMARK    8  A    between atoms: C_26  and  C_28
REMARK                            x       y       z     vdW  Elec       q    Type
REMARK                         _______ _______ _______ _____ _____    ______ ____
ROOT
ATOM      1  C   UNL     1       0.149   9.770  19.935  0.00  0.00    +0.000 C 
ATOM      2  O   UNL     1      -0.799   9.679  20.718  0.00  0.00    +0.000 OA
ATOM      3  N   UNL     1       1.242   8.923  20.014  0.00  0.00    +0.000 N 
ATOM      4  H   UNL     1       1.952   8.951  19.287  0.00  0.00    +0.000 HD
ENDROOT
BRANCH   1   8
ATOM      5  C   UNL     1       2.059  12.289  18.611  0.00  0.00    +0.000 C 
ATOM      6  O   UNL     1       2.660  11.422  17.966  0.00  0.00    +0.000 OA
ATOM      7  N   UNL     1       0.744  12.082  18.992  0.00  0.00    +0.000 N 
ATOM      8  C   UNL     1       0.132  10.755  18.729  0.00  0.00    +0.000 C 
ATOM      9  C   UNL     1      -1.303  11.012  18.291  0.00  0.00    +0.000 C 
ATOM     10  S   UNL     1      -1.867  12.311  19.415  0.00  0.00    +0.000 S 
ATOM     11  C   UNL     1      -0.173  13.007  19.695  0.00  0.00    +0.000 C 
ATOM     12  C   UNL     1       0.092  13.029  21.202  0.00  0.00    +0.000 C 
ATOM     13  C   UNL     1      -0.262  14.423  19.116  0.00  0.00    +0.000 C 
BRANCH   5  14
ATOM     14  C   UNL     1       2.774  13.615  18.906  0.00  0.00    +0.000 C 
BRANCH  14  18
ATOM     15  C   UNL     1       3.141  16.694  16.721  0.00  0.00    +0.000 C 
ATOM     16  C   UNL     1       2.978  15.865  17.967  0.00  0.00    +0.000 C 
ATOM     17  O   UNL     1       2.852  16.378  19.074  0.00  0.00    +0.000 OA
ATOM     18  N   UNL     1       2.922  14.502  17.760  0.00  0.00    +0.000 N 
ATOM     19  H   UNL     1       3.205  14.118  16.867  0.00  0.00    +0.000 HD
ENDBRANCH  14  18
ENDBRANCH   5  14
ENDBRANCH   1   8
BRANCH   3  20
ATOM     20  C   UNL     1       1.354   7.976  21.011  0.00  0.00    +0.000 C 
ATOM     21  C   UNL     1       1.809   6.725  20.834  0.00  0.00    +0.000 C 
BRANCH  21  22
ATOM     22  C   UNL     1       2.262   6.185  19.609  0.00  0.00    +0.000 A 
ATOM     23  C   UNL     1       2.976   6.891  18.665  0.00  0.00    +0.000 A 
ATOM     24  N   UNL     1       3.314   6.012  17.672  0.00  0.00    +0.000 N 
ATOM     25  C   UNL     1       2.793   4.764  17.942  0.00  0.00    +0.000 A 
ATOM     26  C   UNL     1       2.896   3.566  17.223  0.00  0.00    +0.000 A 
ATOM     27  C   UNL     1       2.218   2.450  17.721  0.00  0.00    +0.000 A 
ATOM     28  C   UNL     1       1.465   2.530  18.890  0.00  0.00    +0.000 A 
ATOM     29  C   UNL     1       1.397   3.723  19.615  0.00  0.00    +0.000 A 
ATOM     30  C   UNL     1       2.079   4.862  19.135  0.00  0.00    +0.000 A 
ATOM     31  H   UNL     1       3.861   6.237  16.853  0.00  0.00    +0.000 HD
ENDBRANCH  21  22
ENDBRANCH   3  20
TORSDOF 5
ENDMDL
MODEL 8
REMARK VINA RESULT:      -7.0      2.518      3.255
REMARK  Name = 
REMARK  8 active torsions:
REMARK  status: ('A' for Active; 'I' for Inactive)
REMARK    1  A    between atoms: C_1  and  C_2
REMARK    2  A    between atoms: N_4  and  C_5
REMARK    3  A    between atoms: C_5  and  C_6
REMARK    4  A    between atoms: C_9  and  C_10
REMARK    5  A    between atoms: N_12  and  C_13
REMARK    6  A    between atoms: C_14  and  C_15
REMARK    7  A    between atoms: C_26  and  C_27
REMARK    8  A    between atoms: C_26  and  C_28
REMARK                            x       y       z     vdW  Elec       q    Type
REMARK                         _______ _______ _______ _____ _____    ______ ____
ROOT
ATOM      1  C   UNL     1       0.859  10.028  19.162  0.00  0.00    +0.000 C 
ATOM      2  O   UNL     1       1.825  10.755  19.406  0.00  0.00    +0.000 OA
ATOM      3  N   UNL     1       0.972   8.921  18.337  0.00  0.00    +0.000 N 
ATOM      4  H   UNL     1       0.187   8.281  18.247  0.00  0.00    +0.000 HD
ENDROOT
BRANCH   1   8
ATOM      5  C   UNL     1      -2.379  10.792  18.340  0.00  0.00    +0.000 C 
ATOM      6  O   UNL     1      -2.569   9.580  18.185  0.00  0.00    +0.000 OA
ATOM      7  N   UNL     1      -1.406  11.233  19.222  0.00  0.00    +0.000 N 
ATOM      8  C   UNL     1      -0.519  10.226  19.858  0.00  0.00    +0.000 C 
ATOM      9  C   UNL     1      -0.313  10.671  21.299  0.00  0.00    +0.000 C 
ATOM     10  S   UNL     1      -0.075  12.458  21.165  0.00  0.00    +0.000 S 
ATOM     11  C   UNL     1      -1.068  12.621  19.609  0.00  0.00    +0.000 C 
ATOM     12  C   UNL     1      -0.197  13.306  18.554  0.00  0.00    +0.000 C 
ATOM     13  C   UNL     1      -2.251  13.503  20.024  0.00  0.00    +0.000 C 
BRANCH   5  14
ATOM     14  C   UNL     1      -3.291  11.781  17.600  0.00  0.00    +0.000 C 
BRANCH  14  18
ATOM     15  C   UNL     1      -7.022  11.425  18.190  0.00  0.00    +0.000 C 
ATOM     16  C   UNL     1      -5.606  11.901  18.383  0.00  0.00    +0.000 C 
ATOM     17  O   UNL     1      -5.297  12.660  19.295  0.00  0.00    +0.000 OA
ATOM     18  N   UNL     1      -4.686  11.374  17.500  0.00  0.00    +0.000 N 
ATOM     19  H   UNL     1      -5.007  10.898  16.666  0.00  0.00    +0.000 HD
ENDBRANCH  14  18
ENDBRANCH   5  14
ENDBRANCH   1   8
BRANCH   3  20
ATOM     20  C   UNL     1       2.154   8.612  17.697  0.00  0.00    +0.000 C 
ATOM     21  C   UNL     1       2.897   7.520  17.941  0.00  0.00    +0.000 C 
BRANCH  21  22
ATOM     22  C   UNL     1       2.580   6.508  18.876  0.00  0.00    +0.000 A 
ATOM     23  C   UNL     1       2.367   6.730  20.219  0.00  0.00    +0.000 A 
ATOM     24  N   UNL     1       1.992   5.535  20.773  0.00  0.00    +0.000 N 
ATOM     25  C   UNL     1       2.001   4.542  19.815  0.00  0.00    +0.000 A 
ATOM     26  C   UNL     1       1.676   3.184  19.919  0.00  0.00    +0.000 A 
ATOM     27  C   UNL     1       1.822   2.393  18.776  0.00  0.00    +0.000 A 
ATOM     28  C   UNL     1       2.277   2.939  17.578  0.00  0.00    +0.000 A 
ATOM     29  C   UNL     1       2.567   4.303  17.480  0.00  0.00    +0.000 A 
ATOM     30  C   UNL     1       2.421   5.122  18.620  0.00  0.00    +0.000 A 
ATOM     31  H   UNL     1       1.747   5.391  21.742  0.00  0.00    +0.000 HD
ENDBRANCH  21  22
ENDBRANCH   3  20
TORSDOF 5
ENDMDL
MODEL 9
REMARK VINA RESULT:      -7.0      4.989      8.320
REMARK  Name = 
REMARK  8 active torsions:
REMARK  status: ('A' for Active; 'I' for Inactive)
REMARK    1  A    between atoms: C_1  and  C_2
REMARK    2  A    between atoms: N_4  and  C_5
REMARK    3  A    between atoms: C_5  and  C_6
REMARK    4  A    between atoms: C_9  and  C_10
REMARK    5  A    between atoms: N_12  and  C_13
REMARK    6  A    between atoms: C_14  and  C_15
REMARK    7  A    between atoms: C_26  and  C_27
REMARK    8  A    between atoms: C_26  and  C_28
REMARK                            x       y       z     vdW  Elec       q    Type
REMARK                         _______ _______ _______ _____ _____    ______ ____
ROOT
ATOM      1  C   UNL     1      -5.653  13.695  21.478  0.00  0.00    +0.000 C 
ATOM      2  O   UNL     1      -6.743  14.271  21.512  0.00  0.00    +0.000 OA
ATOM      3  N   UNL     1      -5.554  12.345  21.186  0.00  0.00    +0.000 N 
ATOM      4  H   UNL     1      -4.636  11.926  21.056  0.00  0.00    +0.000 HD
ENDROOT
BRANCH   1   8
ATOM      5  C   UNL     1      -2.303  13.033  21.767  0.00  0.00    +0.000 C 
ATOM      6  O   UNL     1      -2.244  13.069  20.532  0.00  0.00    +0.000 OA
ATOM      7  N   UNL     1      -3.273  13.761  22.435  0.00  0.00    +0.000 N 
ATOM      8  C   UNL     1      -4.308  14.463  21.635  0.00  0.00    +0.000 C 
ATOM      9  C   UNL     1      -4.553  15.803  22.313  0.00  0.00    +0.000 C 
ATOM     10  S   UNL     1      -4.575  15.395  24.074  0.00  0.00    +0.000 S 
ATOM     11  C   UNL     1      -3.473  13.916  23.894  0.00  0.00    +0.000 C 
ATOM     12  C   UNL     1      -4.192  12.707  24.497  0.00  0.00    +0.000 C 
ATOM     13  C   UNL     1      -2.226  14.292  24.701  0.00  0.00    +0.000 C 
BRANCH   5  14
ATOM     14  C   UNL     1      -1.239  12.233  22.531  0.00  0.00    +0.000 C 
BRANCH  14  18
ATOM     15  C   UNL     1       0.370   8.904  21.680  0.00  0.00    +0.000 C 
ATOM     16  C   UNL     1      -0.166  10.033  22.519  0.00  0.00    +0.000 C 
ATOM     17  O   UNL     1      -0.089  10.023  23.743  0.00  0.00    +0.000 OA
ATOM     18  N   UNL     1      -0.688  11.094  21.808  0.00  0.00    +0.000 N 
ATOM     19  H   UNL     1      -0.891  10.986  20.822  0.00  0.00    +0.000 HD
ENDBRANCH  14  18
ENDBRANCH   5  14
ENDBRANCH   1   8
BRANCH   3  20
ATOM     20  C   UNL     1      -6.671  11.563  20.981  0.00  0.00    +0.000 C 
ATOM     21  C   UNL     1      -7.127  11.175  19.778  0.00  0.00    +0.000 C 
BRANCH  21  22
ATOM     22  C   UNL     1      -6.527  11.487  18.537  0.00  0.00    +0.000 A 
ATOM     23  C   UNL     1      -7.027  12.409  17.643  0.00  0.00    +0.000 A 
ATOM     24  N   UNL     1      -6.128  12.504  16.615  0.00  0.00    +0.000 N 
ATOM     25  C   UNL     1      -5.081  11.629  16.814  0.00  0.00    +0.000 A 
ATOM     26  C   UNL     1      -3.937  11.397  16.040  0.00  0.00    +0.000 A 
ATOM     27  C   UNL     1      -3.054  10.404  16.470  0.00  0.00    +0.000 A 
ATOM     28  C   UNL     1      -3.306   9.670  17.627  0.00  0.00    +0.000 A 
ATOM     29  C   UNL     1      -4.435   9.935  18.408  0.00  0.00    +0.000 A 
ATOM     30  C   UNL     1      -5.338  10.937  17.996  0.00  0.00    +0.000 A 
ATOM     31  H   UNL     1      -6.214  13.120  15.819  0.00  0.00    +0.000 HD
ENDBRANCH  21  22
ENDBRANCH   3  20
TORSDOF 5
ENDMDL
