MODEL 1
REMARK VINA RESULT:      -7.3      0.000      0.000
REMARK  Name = 
REMARK  9 active torsions:
REMARK  status: ('A' for Active; 'I' for Inactive)
REMARK    1  A    between atoms: C_1  and  C_2
REMARK    2  A    between atoms: C_2  and  C_3
REMARK    3  A    between atoms: C_3  and  C_4
REMARK    4  A    between atoms: C_4  and  O_5
REMARK    5  A    between atoms: O_5  and  C_6
REMARK    6  A    between atoms: C_9  and  C_10
REMARK    7  A    between atoms: C_15  and  C_17
REMARK    8  A    between atoms: C_17  and  C_18
REMARK    9  A    between atoms: C_17  and  N_19
REMARK                            x       y       z     vdW  Elec       q    Type
REMARK                         _______ _______ _______ _____ _____    ______ ____
ROOT
ATOM      1  C   UNL     1       4.010   5.398  18.043  0.00  0.00    +0.000 A 
ATOM      2  N   UNL     1       3.795   4.535  19.019  0.00  0.00    +0.000 NA
ATOM      3  N   UNL     1       3.103   5.094  20.071  0.00  0.00    +0.000 NA
ATOM      4  C   UNL     1       2.753   6.333  19.819  0.00  0.00    +0.000 A 
ATOM      5  N   UNL     1       2.042   7.080  20.723  0.00  0.00    +0.000 N 
ATOM      6  C   UNL     1       1.407   8.274  20.473  0.00  0.00    +0.000 C 
ATOM      7  O   UNL     1       1.380   8.871  19.397  0.00  0.00    +0.000 OA
ATOM      8  S   UNL     1       3.311   6.939  18.330  0.00  0.00    +0.000 S 
ATOM      9  H   UNL     1       1.900   6.602  21.602  0.00  0.00    +0.000 HD
ENDROOT
BRANCH   1  13
ATOM     10  C   UNL     1       6.090   4.322  14.450  0.00  0.00    +0.000 A 
ATOM     11  C   UNL     1       5.706   3.364  15.387  0.00  0.00    +0.000 A 
ATOM     12  C   UNL     1       5.026   3.736  16.547  0.00  0.00    +0.000 A 
ATOM     13  C   UNL     1       4.703   5.075  16.795  0.00  0.00    +0.000 A 
ATOM     14  C   UNL     1       5.087   6.038  15.851  0.00  0.00    +0.000 A 
ATOM     15  C   UNL     1       5.777   5.662  14.687  0.00  0.00    +0.000 A 
BRANCH  10  16
ATOM     16  O   UNL     1       6.764   4.060  13.285  0.00  0.00    +0.000 OA
BRANCH  16  17
ATOM     17  C   UNL     1       6.048   3.250  12.351  0.00  0.00    +0.000 C 
BRANCH  17  18
ATOM     18  C   UNL     1       4.625   3.760  12.168  0.00  0.00    +0.000 C 
BRANCH  18  20
ATOM     19  C   UNL     1       3.247   3.952  10.058  0.00  0.00    +0.000 C 
ATOM     20  C   UNL     1       3.959   3.013  11.011  0.00  0.00    +0.000 C 
ENDBRANCH  18  20
ENDBRANCH  17  18
ENDBRANCH  16  17
ENDBRANCH  10  16
ENDBRANCH   1  13
BRANCH   6  21
ATOM     21  C   UNL     1       0.702   8.864  21.722  0.00  0.00    +0.000 C 
ATOM     22  C   UNL     1      -0.200  10.045  21.382  0.00  0.00    +0.000 C 
BRANCH  21  23
ATOM     23  N   UNL     1       1.714   9.311  22.700  0.00  0.00    +0.000 NA
ATOM     24  H   UNL     1       1.862   8.550  23.369  0.00  0.00    +0.000 HD
ATOM     25  H   UNL     1       1.281  10.038  23.282  0.00  0.00    +0.000 HD
ENDBRANCH  21  23
ENDBRANCH   6  21
TORSDOF 7
ENDMDL
MODEL 2
REMARK VINA RESULT:      -7.2      1.123      1.860
REMARK  Name = 
REMARK  9 active torsions:
REMARK  status: ('A' for Active; 'I' for Inactive)
REMARK    1  A    between atoms: C_1  and  C_2
REMARK    2  A    between atoms: C_2  and  C_3
REMARK    3  A    between atoms: C_3  and  C_4
REMARK    4  A    between atoms: C_4  and  O_5
REMARK    5  A    between atoms: O_5  and  C_6
REMARK    6  A    between atoms: C_9  and  C_10
REMARK    7  A    between atoms: C_15  and  C_17
REMARK    8  A    between atoms: C_17  and  C_18
REMARK    9  A    between atoms: C_17  and  N_19
REMARK                            x       y       z     vdW  Elec       q    Type
REMARK                         _______ _______ _______ _____ _____    ______ ____
ROOT
ATOM      1  C   UNL     1       3.056   6.145  18.929  0.00  0.00    +0.000 A 
ATOM      2  N   UNL     1       2.585   5.251  19.778  0.00  0.00    +0.000 NA
ATOM      3  N   UNL     1       1.782   5.816  20.745  0.00  0.00    +0.000 NA
ATOM      4  C   UNL     1       1.614   7.102  20.547  0.00  0.00    +0.000 A 
ATOM      5  N   UNL     1       0.839   7.865  21.382  0.00  0.00    +0.000 N 
ATOM      6  C   UNL     1       0.387   9.140  21.134  0.00  0.00    +0.000 C 
ATOM      7  O   UNL     1       0.611   9.807  20.124  0.00  0.00    +0.000 OA
ATOM      8  S   UNL     1       2.484   7.736  19.228  0.00  0.00    +0.000 S 
ATOM      9  H   UNL     1       0.497   7.349  22.180  0.00  0.00    +0.000 HD
ENDROOT
BRANCH   1  13
ATOM     10  C   UNL     1       5.547   5.350  15.530  0.00  0.00    +0.000 A 
ATOM     11  C   UNL     1       5.220   6.652  15.908  0.00  0.00    +0.000 A 
ATOM     12  C   UNL     1       4.413   6.887  17.020  0.00  0.00    +0.000 A 
ATOM     13  C   UNL     1       3.918   5.828  17.789  0.00  0.00    +0.000 A 
ATOM     14  C   UNL     1       4.248   4.519  17.409  0.00  0.00    +0.000 A 
ATOM     15  C   UNL     1       5.057   4.284  16.286  0.00  0.00    +0.000 A 
BRANCH  10  16
ATOM     16  O   UNL     1       6.327   5.014  14.453  0.00  0.00    +0.000 OA
BRANCH  16  17
ATOM     17  C   UNL     1       6.062   3.720  13.906  0.00  0.00    +0.000 C 
BRANCH  17  18
ATOM     18  C   UNL     1       6.259   3.718  12.397  0.00  0.00    +0.000 C 
BRANCH  18  20
ATOM     19  C   UNL     1       4.073   3.232  11.223  0.00  0.00    +0.000 C 
ATOM     20  C   UNL     1       5.363   2.650  11.766  0.00  0.00    +0.000 C 
ENDBRANCH  18  20
ENDBRANCH  17  18
ENDBRANCH  16  17
ENDBRANCH  10  16
ENDBRANCH   1  13
BRANCH   6  21
ATOM     21  C   UNL     1      -0.458   9.724  22.295  0.00  0.00    +0.000 C 
ATOM     22  C   UNL     1      -0.936  11.144  22.015  0.00  0.00    +0.000 C 
BRANCH  21  23
ATOM     23  N   UNL     1       0.340   9.733  23.538  0.00  0.00    +0.000 NA
ATOM     24  H   UNL     1      -0.245  10.120  24.284  0.00  0.00    +0.000 HD
ATOM     25  H   UNL     1       1.069  10.447  23.432  0.00  0.00    +0.000 HD
ENDBRANCH  21  23
ENDBRANCH   6  21
TORSDOF 7
ENDMDL
MODEL 3
REMARK VINA RESULT:      -7.0      1.507      2.245
REMARK  Name = 
REMARK  9 active torsions:
REMARK  status: ('A' for Active; 'I' for Inactive)
REMARK    1  A    between atoms: C_1  and  C_2
REMARK    2  A    between atoms: C_2  and  C_3
REMARK    3  A    between atoms: C_3  and  C_4
REMARK    4  A    between atoms: C_4  and  O_5
REMARK    5  A    between atoms: O_5  and  C_6
REMARK    6  A    between atoms: C_9  and  C_10
REMARK    7  A    between atoms: C_15  and  C_17
REMARK    8  A    between atoms: C_17  and  C_18
REMARK    9  A    between atoms: C_17  and  N_19
REMARK                            x       y       z     vdW  Elec       q    Type
REMARK                         _______ _______ _______ _____ _____    ______ ____
ROOT
ATOM      1  C   UNL     1       3.142   6.443  18.519  0.00  0.00    +0.000 A 
ATOM      2  N   UNL     1       2.756   5.943  19.678  0.00  0.00    +0.000 NA
ATOM      3  N   UNL     1       1.996   6.832  20.406  0.00  0.00    +0.000 NA
ATOM      4  C   UNL     1       1.771   7.939  19.740  0.00  0.00    +0.000 A 
ATOM      5  N   UNL     1       1.024   8.960  20.268  0.00  0.00    +0.000 N 
ATOM      6  C   UNL     1       0.513  10.036  19.581  0.00  0.00    +0.000 C 
ATOM      7  O   UNL     1       0.650  10.261  18.379  0.00  0.00    +0.000 OA
ATOM      8  S   UNL     1       2.535   8.021  18.221  0.00  0.00    +0.000 S 
ATOM      9  H   UNL     1       0.750   8.791  21.226  0.00  0.00    +0.000 HD
ENDROOT
BRANCH   1  13
ATOM     10  C   UNL     1       5.489   4.437  15.541  0.00  0.00    +0.000 A 
ATOM     11  C   UNL     1       5.475   5.827  15.647  0.00  0.00    +0.000 A 
ATOM     12  C   UNL     1       4.709   6.458  16.626  0.00  0.00    +0.000 A 
ATOM     13  C   UNL     1       3.943   5.715  17.532  0.00  0.00    +0.000 A 
ATOM     14  C   UNL     1       3.957   4.318  17.426  0.00  0.00    +0.000 A 
ATOM     15  C   UNL     1       4.726   3.684  16.436  0.00  0.00    +0.000 A 
BRANCH  10  16
ATOM     16  O   UNL     1       6.203   3.723  14.613  0.00  0.00    +0.000 OA
BRANCH  16  17
ATOM     17  C   UNL     1       6.911   4.523  13.663  0.00  0.00    +0.000 C 
BRANCH  17  18
ATOM     18  C   UNL     1       6.899   3.870  12.288  0.00  0.00    +0.000 C 
BRANCH  18  20
ATOM     19  C   UNL     1       5.706   1.833  11.382  0.00  0.00    +0.000 C 
ATOM     20  C   UNL     1       5.553   3.179  12.061  0.00  0.00    +0.000 C 
ENDBRANCH  18  20
ENDBRANCH  17  18
ENDBRANCH  16  17
ENDBRANCH  10  16
ENDBRANCH   1  13
BRANCH   6  21
ATOM     21  C   UNL     1      -0.279  11.017  20.484  0.00  0.00    +0.000 C 
ATOM     22  C   UNL     1      -1.081  12.033  19.680  0.00  0.00    +0.000 C 
BRANCH  21  23
ATOM     23  N   UNL     1       0.655  11.746  21.366  0.00  0.00    +0.000 NA
ATOM     24  H   UNL     1       1.602  11.413  21.164  0.00  0.00    +0.000 HD
ATOM     25  H   UNL     1       0.499  11.412  22.324  0.00  0.00    +0.000 HD
ENDBRANCH  21  23
ENDBRANCH   6  21
TORSDOF 7
ENDMDL
MODEL 4
REMARK VINA RESULT:      -7.0      1.332      1.712
REMARK  Name = 
REMARK  9 active torsions:
REMARK  status: ('A' for Active; 'I' for Inactive)
REMARK    1  A    between atoms: C_1  and  C_2
REMARK    2  A    between atoms: C_2  and  C_3
REMARK    3  A    between atoms: C_3  and  C_4
REMARK    4  A    between atoms: C_4  and  O_5
REMARK    5  A    between atoms: O_5  and  C_6
REMARK    6  A    between atoms: C_9  and  C_10
REMARK    7  A    between atoms: C_15  and  C_17
REMARK    8  A    between atoms: C_17  and  C_18
REMARK    9  A    between atoms: C_17  and  N_19
REMARK                            x       y       z     vdW  Elec       q    Type
REMARK                         _______ _______ _______ _____ _____    ______ ____
ROOT
ATOM      1  C   UNL     1       3.020   5.852  18.939  0.00  0.00    +0.000 A 
ATOM      2  N   UNL     1       2.535   5.075  19.889  0.00  0.00    +0.000 NA
ATOM      3  N   UNL     1       1.791   5.776  20.813  0.00  0.00    +0.000 NA
ATOM      4  C   UNL     1       1.677   7.042  20.486  0.00  0.00    +0.000 A 
ATOM      5  N   UNL     1       0.967   7.925  21.256  0.00  0.00    +0.000 N 
ATOM      6  C   UNL     1       0.567   9.189  20.889  0.00  0.00    +0.000 C 
ATOM      7  O   UNL     1       0.790   9.735  19.809  0.00  0.00    +0.000 OA
ATOM      8  S   UNL     1       2.533   7.492  19.085  0.00  0.00    +0.000 S 
ATOM      9  H   UNL     1       0.626   7.512  22.113  0.00  0.00    +0.000 HD
ENDROOT
BRANCH   1  13
ATOM     10  C   UNL     1       5.399   4.318  15.717  0.00  0.00    +0.000 A 
ATOM     11  C   UNL     1       4.659   3.475  16.545  0.00  0.00    +0.000 A 
ATOM     12  C   UNL     1       3.888   3.996  17.584  0.00  0.00    +0.000 A 
ATOM     13  C   UNL     1       3.830   5.375  17.816  0.00  0.00    +0.000 A 
ATOM     14  C   UNL     1       4.573   6.222  16.983  0.00  0.00    +0.000 A 
ATOM     15  C   UNL     1       5.353   5.695  15.941  0.00  0.00    +0.000 A 
BRANCH  10  16
ATOM     16  O   UNL     1       6.190   3.905  14.675  0.00  0.00    +0.000 OA
BRANCH  16  17
ATOM     17  C   UNL     1       5.628   4.120  13.379  0.00  0.00    +0.000 C 
BRANCH  17  18
ATOM     18  C   UNL     1       6.442   3.407  12.309  0.00  0.00    +0.000 C 
BRANCH  18  20
ATOM     19  C   UNL     1       6.440   1.207  11.065  0.00  0.00    +0.000 C 
ATOM     20  C   UNL     1       5.592   2.309  11.667  0.00  0.00    +0.000 C 
ENDBRANCH  18  20
ENDBRANCH  17  18
ENDBRANCH  16  17
ENDBRANCH  10  16
ENDBRANCH   1  13
BRANCH   6  21
ATOM     21  C   UNL     1      -0.212   9.931  22.005  0.00  0.00    +0.000 C 
ATOM     22  C   UNL     1      -0.358  11.422  21.724  0.00  0.00    +0.000 C 
BRANCH  21  23
ATOM     23  N   UNL     1       0.484   9.762  23.296  0.00  0.00    +0.000 NA
ATOM     24  H   UNL     1       1.254  10.435  23.328  0.00  0.00    +0.000 HD
ATOM     25  H   UNL     1       0.975   8.862  23.267  0.00  0.00    +0.000 HD
ENDBRANCH  21  23
ENDBRANCH   6  21
TORSDOF 7
ENDMDL
MODEL 5
REMARK VINA RESULT:      -7.0      4.175      5.370
REMARK  Name = 
REMARK  9 active torsions:
REMARK  status: ('A' for Active; 'I' for Inactive)
REMARK    1  A    between atoms: C_1  and  C_2
REMARK    2  A    between atoms: C_2  and  C_3
REMARK    3  A    between atoms: C_3  and  C_4
REMARK    4  A    between atoms: C_4  and  O_5
REMARK    5  A    between atoms: O_5  and  C_6
REMARK    6  A    between atoms: C_9  and  C_10
REMARK    7  A    between atoms: C_15  and  C_17
REMARK    8  A    between atoms: C_17  and  C_18
REMARK    9  A    between atoms: C_17  and  N_19
REMARK                            x       y       z     vdW  Elec       q    Type
REMARK                         _______ _______ _______ _____ _____    ______ ____
ROOT
ATOM      1  C   UNL     1       1.468   8.725  19.145  0.00  0.00    +0.000 A 
ATOM      2  N   UNL     1       1.009   9.640  18.311  0.00  0.00    +0.000 NA
ATOM      3  N   UNL     1       0.170  10.541  18.929  0.00  0.00    +0.000 NA
ATOM      4  C   UNL     1       0.088  10.322  20.220  0.00  0.00    +0.000 A 
ATOM      5  N   UNL     1      -0.681  11.109  21.038  0.00  0.00    +0.000 N 
ATOM      6  C   UNL     1      -0.642  11.139  22.413  0.00  0.00    +0.000 C 
ATOM      7  O   UNL     1       0.086  10.457  23.133  0.00  0.00    +0.000 OA
ATOM      8  S   UNL     1       0.949   8.959  20.765  0.00  0.00    +0.000 S 
ATOM      9  H   UNL     1      -1.218  11.798  20.529  0.00  0.00    +0.000 HD
ENDROOT
BRANCH   1  13
ATOM     10  C   UNL     1       4.190   5.653  17.902  0.00  0.00    +0.000 A 
ATOM     11  C   UNL     1       4.146   6.893  17.265  0.00  0.00    +0.000 A 
ATOM     12  C   UNL     1       3.256   7.879  17.689  0.00  0.00    +0.000 A 
ATOM     13  C   UNL     1       2.393   7.655  18.768  0.00  0.00    +0.000 A 
ATOM     14  C   UNL     1       2.438   6.410  19.409  0.00  0.00    +0.000 A 
ATOM     15  C   UNL     1       3.331   5.416  18.977  0.00  0.00    +0.000 A 
BRANCH  10  16
ATOM     16  O   UNL     1       5.022   4.619  17.559  0.00  0.00    +0.000 OA
BRANCH  16  17
ATOM     17  C   UNL     1       6.171   4.475  18.396  0.00  0.00    +0.000 C 
BRANCH  17  18
ATOM     18  C   UNL     1       7.387   5.143  17.770  0.00  0.00    +0.000 C 
BRANCH  18  20
ATOM     19  C   UNL     1       7.729   7.639  17.562  0.00  0.00    +0.000 C 
ATOM     20  C   UNL     1       7.686   6.452  18.503  0.00  0.00    +0.000 C 
ENDBRANCH  18  20
ENDBRANCH  17  18
ENDBRANCH  16  17
ENDBRANCH  10  16
ENDBRANCH   1  13
BRANCH   6  21
ATOM     21  C   UNL     1      -1.656  12.136  23.030  0.00  0.00    +0.000 C 
ATOM     22  C   UNL     1      -2.733  12.564  22.040  0.00  0.00    +0.000 C 
BRANCH  21  23
ATOM     23  N   UNL     1      -0.946  13.341  23.503  0.00  0.00    +0.000 NA
ATOM     24  H   UNL     1      -1.647  14.061  23.700  0.00  0.00    +0.000 HD
ATOM     25  H   UNL     1      -0.439  13.735  22.702  0.00  0.00    +0.000 HD
ENDBRANCH  21  23
ENDBRANCH   6  21
TORSDOF 7
ENDMDL
MODEL 6
REMARK VINA RESULT:      -6.9      1.544      2.054
REMARK  Name = 
REMARK  9 active torsions:
REMARK  status: ('A' for Active; 'I' for Inactive)
REMARK    1  A    between atoms: C_1  and  C_2
REMARK    2  A    between atoms: C_2  and  C_3
REMARK    3  A    between atoms: C_3  and  C_4
REMARK    4  A    between atoms: C_4  and  O_5
REMARK    5  A    between atoms: O_5  and  C_6
REMARK    6  A    between atoms: C_9  and  C_10
REMARK    7  A    between atoms: C_15  and  C_17
REMARK    8  A    between atoms: C_17  and  C_18
REMARK    9  A    between atoms: C_17  and  N_19
REMARK                            x       y       z     vdW  Elec       q    Type
REMARK                         _______ _______ _______ _____ _____    ______ ____
ROOT
ATOM      1  C   UNL     1       3.048   6.714  18.482  0.00  0.00    +0.000 A 
ATOM      2  N   UNL     1       2.780   6.326  19.715  0.00  0.00    +0.000 NA
ATOM      3  N   UNL     1       1.989   7.229  20.390  0.00  0.00    +0.000 NA
ATOM      4  C   UNL     1       1.624   8.227  19.620  0.00  0.00    +0.000 A 
ATOM      5  N   UNL     1       0.821   9.239  20.080  0.00  0.00    +0.000 N 
ATOM      6  C   UNL     1       0.174  10.179  19.313  0.00  0.00    +0.000 C 
ATOM      7  O   UNL     1       0.217  10.269  18.087  0.00  0.00    +0.000 OA
ATOM      8  S   UNL     1       2.283   8.189  18.050  0.00  0.00    +0.000 S 
ATOM      9  H   UNL     1       0.623   9.163  21.068  0.00  0.00    +0.000 HD
ENDROOT
BRANCH   1  13
ATOM     10  C   UNL     1       5.378   4.331  15.783  0.00  0.00    +0.000 A 
ATOM     11  C   UNL     1       4.477   3.753  16.677  0.00  0.00    +0.000 A 
ATOM     12  C   UNL     1       3.726   4.548  17.543  0.00  0.00    +0.000 A 
ATOM     13  C   UNL     1       3.848   5.942  17.530  0.00  0.00    +0.000 A 
ATOM     14  C   UNL     1       4.752   6.522  16.630  0.00  0.00    +0.000 A 
ATOM     15  C   UNL     1       5.512   5.720  15.763  0.00  0.00    +0.000 A 
BRANCH  10  16
ATOM     16  O   UNL     1       6.164   3.639  14.898  0.00  0.00    +0.000 OA
BRANCH  16  17
ATOM     17  C   UNL     1       6.499   4.358  13.709  0.00  0.00    +0.000 C 
BRANCH  17  18
ATOM     18  C   UNL     1       6.173   3.538  12.469  0.00  0.00    +0.000 C 
BRANCH  18  20
ATOM     19  C   UNL     1       4.150   3.334  10.967  0.00  0.00    +0.000 C 
ATOM     20  C   UNL     1       4.664   3.303  12.393  0.00  0.00    +0.000 C 
ENDBRANCH  18  20
ENDBRANCH  17  18
ENDBRANCH  16  17
ENDBRANCH  10  16
ENDBRANCH   1  13
BRANCH   6  21
ATOM     21  C   UNL     1      -0.646  11.192  20.153  0.00  0.00    +0.000 C 
ATOM     22  C   UNL     1      -0.150  12.624  19.989  0.00  0.00    +0.000 C 
BRANCH  21  23
ATOM     23  N   UNL     1      -0.573  10.829  21.583  0.00  0.00    +0.000 NA
ATOM     24  H   UNL     1      -0.406  11.687  22.115  0.00  0.00    +0.000 HD
ATOM     25  H   UNL     1       0.298  10.305  21.724  0.00  0.00    +0.000 HD
ENDBRANCH  21  23
ENDBRANCH   6  21
TORSDOF 7
ENDMDL
MODEL 7
REMARK VINA RESULT:      -6.9      4.292      5.599
REMARK  Name = 
REMARK  9 active torsions:
REMARK  status: ('A' for Active; 'I' for Inactive)
REMARK    1  A    between atoms: C_1  and  C_2
REMARK    2  A    between atoms: C_2  and  C_3
REMARK    3  A    between atoms: C_3  and  C_4
REMARK    4  A    between atoms: C_4  and  O_5
REMARK    5  A    between atoms: O_5  and  C_6
REMARK    6  A    between atoms: C_9  and  C_10
REMARK    7  A    between atoms: C_15  and  C_17
REMARK    8  A    between atoms: C_17  and  C_18
REMARK    9  A    between atoms: C_17  and  N_19
REMARK                            x       y       z     vdW  Elec       q    Type
REMARK                         _______ _______ _______ _____ _____    ______ ____
ROOT
ATOM      1  C   UNL     1       1.279   8.932  19.090  0.00  0.00    +0.000 A 
ATOM      2  N   UNL     1       0.781   9.747  18.179  0.00  0.00    +0.000 NA
ATOM      3  N   UNL     1      -0.099  10.660  18.717  0.00  0.00    +0.000 NA
ATOM      4  C   UNL     1      -0.174  10.553  20.023  0.00  0.00    +0.000 A 
ATOM      5  N   UNL     1      -0.980  11.373  20.769  0.00  0.00    +0.000 N 
ATOM      6  C   UNL     1      -0.945  11.526  22.136  0.00  0.00    +0.000 C 
ATOM      7  O   UNL     1      -0.188  10.944  22.912  0.00  0.00    +0.000 OA
ATOM      8  S   UNL     1       0.747   9.283  20.684  0.00  0.00    +0.000 S 
ATOM      9  H   UNL     1      -1.546  11.989  20.202  0.00  0.00    +0.000 HD
ENDROOT
BRANCH   1  13
ATOM     10  C   UNL     1       4.131   5.801  18.410  0.00  0.00    +0.000 A 
ATOM     11  C   UNL     1       3.285   5.792  19.519  0.00  0.00    +0.000 A 
ATOM     12  C   UNL     1       2.362   6.818  19.717  0.00  0.00    +0.000 A 
ATOM     13  C   UNL     1       2.253   7.875  18.807  0.00  0.00    +0.000 A 
ATOM     14  C   UNL     1       3.102   7.884  17.692  0.00  0.00    +0.000 A 
ATOM     15  C   UNL     1       4.035   6.853  17.497  0.00  0.00    +0.000 A 
BRANCH  10  16
ATOM     16  O   UNL     1       5.073   4.845  18.128  0.00  0.00    +0.000 OA
BRANCH  16  17
ATOM     17  C   UNL     1       6.324   5.360  17.666  0.00  0.00    +0.000 C 
BRANCH  17  18
ATOM     18  C   UNL     1       7.305   5.520  18.819  0.00  0.00    +0.000 C 
BRANCH  18  20
ATOM     19  C   UNL     1       7.597   7.633  17.463  0.00  0.00    +0.000 C 
ATOM     20  C   UNL     1       8.077   6.830  18.655  0.00  0.00    +0.000 C 
ENDBRANCH  18  20
ENDBRANCH  17  18
ENDBRANCH  16  17
ENDBRANCH  10  16
ENDBRANCH   1  13
BRANCH   6  21
ATOM     21  C   UNL     1      -2.004  12.526  22.665  0.00  0.00    +0.000 C 
ATOM     22  C   UNL     1      -1.386  13.656  23.481  0.00  0.00    +0.000 C 
BRANCH  21  23
ATOM     23  N   UNL     1      -2.982  11.815  23.513  0.00  0.00    +0.000 NA
ATOM     24  H   UNL     1      -2.676  10.842  23.597  0.00  0.00    +0.000 HD
ATOM     25  H   UNL     1      -3.853  11.731  22.977  0.00  0.00    +0.000 HD
ENDBRANCH  21  23
ENDBRANCH   6  21
TORSDOF 7
ENDMDL
MODEL 8
REMARK VINA RESULT:      -6.8      1.297      1.664
REMARK  Name = 
REMARK  9 active torsions:
REMARK  status: ('A' for Active; 'I' for Inactive)
REMARK    1  A    between atoms: C_1  and  C_2
REMARK    2  A    between atoms: C_2  and  C_3
REMARK    3  A    between atoms: C_3  and  C_4
REMARK    4  A    between atoms: C_4  and  O_5
REMARK    5  A    between atoms: O_5  and  C_6
REMARK    6  A    between atoms: C_9  and  C_10
REMARK    7  A    between atoms: C_15  and  C_17
REMARK    8  A    between atoms: C_17  and  C_18
REMARK    9  A    between atoms: C_17  and  N_19
REMARK                            x       y       z     vdW  Elec       q    Type
REMARK                         _______ _______ _______ _____ _____    ______ ____
ROOT
ATOM      1  C   UNL     1       3.200   6.025  18.582  0.00  0.00    +0.000 A 
ATOM      2  N   UNL     1       2.700   5.359  19.606  0.00  0.00    +0.000 NA
ATOM      3  N   UNL     1       1.989   6.170  20.463  0.00  0.00    +0.000 NA
ATOM      4  C   UNL     1       1.913   7.401  20.018  0.00  0.00    +0.000 A 
ATOM      5  N   UNL     1       1.240   8.378  20.705  0.00  0.00    +0.000 N 
ATOM      6  C   UNL     1       0.878   9.613  20.221  0.00  0.00    +0.000 C 
ATOM      7  O   UNL     1       1.107  10.046  19.092  0.00  0.00    +0.000 OA
ATOM      8  S   UNL     1       2.769   7.687  18.574  0.00  0.00    +0.000 S 
ATOM      9  H   UNL     1       0.894   8.060  21.600  0.00  0.00    +0.000 HD
ENDROOT
BRANCH   1  13
ATOM     10  C   UNL     1       5.496   4.112  15.506  0.00  0.00    +0.000 A 
ATOM     11  C   UNL     1       4.752   3.376  16.428  0.00  0.00    +0.000 A 
ATOM     12  C   UNL     1       4.009   4.019  17.417  0.00  0.00    +0.000 A 
ATOM     13  C   UNL     1       3.982   5.416  17.504  0.00  0.00    +0.000 A 
ATOM     14  C   UNL     1       4.728   6.155  16.577  0.00  0.00    +0.000 A 
ATOM     15  C   UNL     1       5.481   5.505  15.585  0.00  0.00    +0.000 A 
BRANCH  10  16
ATOM     16  O   UNL     1       6.261   3.576  14.502  0.00  0.00    +0.000 OA
BRANCH  16  17
ATOM     17  C   UNL     1       6.797   4.532  13.585  0.00  0.00    +0.000 C 
BRANCH  17  18
ATOM     18  C   UNL     1       6.764   3.997  12.161  0.00  0.00    +0.000 C 
BRANCH  18  20
ATOM     19  C   UNL     1       4.424   3.348  11.460  0.00  0.00    +0.000 C 
ATOM     20  C   UNL     1       5.731   2.873  12.061  0.00  0.00    +0.000 C 
ENDBRANCH  18  20
ENDBRANCH  17  18
ENDBRANCH  16  17
ENDBRANCH  10  16
ENDBRANCH   1  13
BRANCH   6  21
ATOM     21  C   UNL     1       0.135  10.484  21.266  0.00  0.00    +0.000 C 
ATOM     22  C   UNL     1      -0.498   9.653  22.376  0.00  0.00    +0.000 C 
BRANCH  21  23
ATOM     23  N   UNL     1      -0.927  11.266  20.600  0.00  0.00    +0.000 NA
ATOM     24  H   UNL     1      -1.708  11.356  21.257  0.00  0.00    +0.000 HD
ATOM     25  H   UNL     1      -1.325  10.678  19.859  0.00  0.00    +0.000 HD
ENDBRANCH  21  23
ENDBRANCH   6  21
TORSDOF 7
ENDMDL
MODEL 9
REMARK VINA RESULT:      -6.8      1.215      1.715
REMARK  Name = 
REMARK  9 active torsions:
REMARK  status: ('A' for Active; 'I' for Inactive)
REMARK    1  A    between atoms: C_1  and  C_2
REMARK    2  A    between atoms: C_2  and  C_3
REMARK    3  A    between atoms: C_3  and  C_4
REMARK    4  A    between atoms: C_4  and  O_5
REMARK    5  A    between atoms: O_5  and  C_6
REMARK    6  A    between atoms: C_9  and  C_10
REMARK    7  A    between atoms: C_15  and  C_17
REMARK    8  A    between atoms: C_17  and  C_18
REMARK    9  A    between atoms: C_17  and  N_19
REMARK                            x       y       z     vdW  Elec       q    Type
REMARK                         _______ _______ _______ _____ _____    ______ ____
ROOT
ATOM      1  C   UNL     1       3.676   5.635  18.396  0.00  0.00    +0.000 A 
ATOM      2  N   UNL     1       3.292   4.765  19.311  0.00  0.00    +0.000 NA
ATOM      3  N   UNL     1       2.522   5.343  20.296  0.00  0.00    +0.000 NA
ATOM      4  C   UNL     1       2.289   6.611  20.050  0.00  0.00    +0.000 A 
ATOM      5  N   UNL     1       1.531   7.382  20.893  0.00  0.00    +0.000 N 
ATOM      6  C   UNL     1       1.012   8.625  20.614  0.00  0.00    +0.000 C 
ATOM      7  O   UNL     1       1.149   9.250  19.563  0.00  0.00    +0.000 OA
ATOM      8  S   UNL     1       3.055   7.215  18.655  0.00  0.00    +0.000 S 
ATOM      9  H   UNL     1       1.256   6.892  21.733  0.00  0.00    +0.000 HD
ENDROOT
BRANCH   1  13
ATOM     10  C   UNL     1       6.004   4.777  14.898  0.00  0.00    +0.000 A 
ATOM     11  C   UNL     1       5.652   6.082  15.240  0.00  0.00    +0.000 A 
ATOM     12  C   UNL     1       4.899   6.338  16.385  0.00  0.00    +0.000 A 
ATOM     13  C   UNL     1       4.485   5.297  17.224  0.00  0.00    +0.000 A 
ATOM     14  C   UNL     1       4.840   3.986  16.880  0.00  0.00    +0.000 A 
ATOM     15  C   UNL     1       5.594   3.729  15.724  0.00  0.00    +0.000 A 
BRANCH  10  16
ATOM     16  O   UNL     1       6.735   4.421  13.794  0.00  0.00    +0.000 OA
BRANCH  16  17
ATOM     17  C   UNL     1       6.091   3.482  12.930  0.00  0.00    +0.000 C 
BRANCH  17  18
ATOM     18  C   UNL     1       6.750   3.466  11.557  0.00  0.00    +0.000 C 
BRANCH  18  20
ATOM     19  C   UNL     1       6.165   1.048  11.109  0.00  0.00    +0.000 C 
ATOM     20  C   UNL     1       7.281   2.062  11.262  0.00  0.00    +0.000 C 
ENDBRANCH  18  20
ENDBRANCH  17  18
ENDBRANCH  16  17
ENDBRANCH  10  16
ENDBRANCH   1  13
BRANCH   6  21
ATOM     21  C   UNL     1       0.209   9.229  21.794  0.00  0.00    +0.000 C 
ATOM     22  C   UNL     1      -0.494  10.529  21.419  0.00  0.00    +0.000 C 
BRANCH  21  23
ATOM     23  N   UNL     1       1.116   9.497  22.929  0.00  0.00    +0.000 NA
ATOM     24  H   UNL     1       0.683   9.113  23.774  0.00  0.00    +0.000 HD
ATOM     25  H   UNL     1       1.099  10.507  23.108  0.00  0.00    +0.000 HD
ENDBRANCH  21  23
ENDBRANCH   6  21
TORSDOF 7
ENDMDL
