MODEL 1
REMARK VINA RESULT:      -6.2      0.000      0.000
REMARK  Name = 
REMARK  5 active torsions:
REMARK  status: ('A' for Active; 'I' for Inactive)
REMARK    1  A    between atoms: C_2  and  C_12
REMARK    2  A    between atoms: N_3  and  C_4
REMARK    3  A    between atoms: C_4  and  C_5
REMARK    4  A    between atoms: C_5  and  C_6
REMARK    5  A    between atoms: C_6  and  N_7
REMARK                            x       y       z     vdW  Elec       q    Type
REMARK                         _______ _______ _______ _____ _____    ______ ____
ROOT
ATOM      1  O   UNL     1       4.208   5.630  19.326  0.00  0.00    +0.000 OA
ATOM      2  C   UNL     1       3.259   5.918  18.610  0.00  0.00    +0.000 C 
ATOM      3  N   UNL     1       2.945   5.107  17.561  0.00  0.00    +0.000 N 
ATOM      4  H   UNL     1       2.138   5.327  16.969  0.00  0.00    +0.000 HD
ENDROOT
BRANCH   2   5
ATOM      5  C   UNL     1       2.484   7.167  18.916  0.00  0.00    +0.000 A 
ATOM      6  C   UNL     1       2.006   7.380  20.226  0.00  0.00    +0.000 A 
ATOM      7  C   UNL     1       1.282   8.531  20.549  0.00  0.00    +0.000 A 
ATOM      8  C   UNL     1       1.019   9.491  19.571  0.00  0.00    +0.000 A 
ATOM      9 BR   UNL     1       0.021  11.060  20.008  0.00  0.00    +0.000 Br
ATOM     10  C   UNL     1       1.485   9.303  18.271  0.00  0.00    +0.000 A 
ATOM     11  C   UNL     1       2.212   8.156  17.941  0.00  0.00    +0.000 A 
ENDBRANCH   2   5
BRANCH   3  12
ATOM     12  C   UNL     1       3.727   3.924  17.235  0.00  0.00    +0.000 C 
BRANCH  12  13
ATOM     13  C   UNL     1       2.859   2.653  17.238  0.00  0.00    +0.000 C 
BRANCH  13  14
ATOM     14  C   UNL     1       3.108   1.772  18.476  0.00  0.00    +0.000 C 
BRANCH  14  15
ATOM     15  N   UNL     1       2.507   2.370  19.668  0.00  0.00    +0.000 N 
ATOM     16  C   UNL     1       3.129   2.640  20.827  0.00  0.00    +0.000 A 
ATOM     17  C   UNL     1       2.206   3.203  21.683  0.00  0.00    +0.000 A 
ATOM     18  N   UNL     1       1.015   3.286  21.055  0.00  0.00    +0.000 NA
ATOM     19  C   UNL     1       1.232   2.767  19.828  0.00  0.00    +0.000 A 
ENDBRANCH  14  15
ENDBRANCH  13  14
ENDBRANCH  12  13
ENDBRANCH   3  12
TORSDOF 5
ENDMDL
MODEL 2
REMARK VINA RESULT:      -6.2      0.906      1.154
REMARK  Name = 
REMARK  5 active torsions:
REMARK  status: ('A' for Active; 'I' for Inactive)
REMARK    1  A    between atoms: C_2  and  C_12
REMARK    2  A    between atoms: N_3  and  C_4
REMARK    3  A    between atoms: C_4  and  C_5
REMARK    4  A    between atoms: C_5  and  C_6
REMARK    5  A    between atoms: C_6  and  N_7
REMARK                            x       y       z     vdW  Elec       q    Type
REMARK                         _______ _______ _______ _____ _____    ______ ____
ROOT
ATOM      1  O   UNL     1       4.214   6.972  17.414  0.00  0.00    +0.000 OA
ATOM      2  C   UNL     1       3.201   6.686  18.038  0.00  0.00    +0.000 C 
ATOM      3  N   UNL     1       2.862   5.375  18.194  0.00  0.00    +0.000 N 
ATOM      4  H   UNL     1       2.029   5.124  18.734  0.00  0.00    +0.000 HD
ENDROOT
BRANCH   2   5
ATOM      5  C   UNL     1       2.365   7.800  18.597  0.00  0.00    +0.000 A 
ATOM      6  C   UNL     1       1.935   7.733  19.940  0.00  0.00    +0.000 A 
ATOM      7  C   UNL     1       1.156   8.751  20.496  0.00  0.00    +0.000 A 
ATOM      8  C   UNL     1       0.790   9.855  19.726  0.00  0.00    +0.000 A 
ATOM      9 BR   UNL     1      -0.283  11.242  20.482  0.00  0.00    +0.000 Br
ATOM     10  C   UNL     1       1.207   9.943  18.398  0.00  0.00    +0.000 A 
ATOM     11  C   UNL     1       1.988   8.930  17.836  0.00  0.00    +0.000 A 
ENDBRANCH   2   5
BRANCH   3  12
ATOM     12  C   UNL     1       3.645   4.297  17.609  0.00  0.00    +0.000 C 
BRANCH  12  13
ATOM     13  C   UNL     1       2.789   3.042  17.366  0.00  0.00    +0.000 C 
BRANCH  13  14
ATOM     14  C   UNL     1       3.107   1.909  18.359  0.00  0.00    +0.000 C 
BRANCH  14  15
ATOM     15  N   UNL     1       2.657   2.257  19.706  0.00  0.00    +0.000 N 
ATOM     16  C   UNL     1       1.386   2.443  20.100  0.00  0.00    +0.000 A 
ATOM     17  C   UNL     1       1.400   2.751  21.444  0.00  0.00    +0.000 A 
ATOM     18  N   UNL     1       2.675   2.751  21.884  0.00  0.00    +0.000 NA
ATOM     19  C   UNL     1       3.418   2.448  20.798  0.00  0.00    +0.000 A 
ENDBRANCH  14  15
ENDBRANCH  13  14
ENDBRANCH  12  13
ENDBRANCH   3  12
TORSDOF 5
ENDMDL
MODEL 3
REMARK VINA RESULT:      -6.1      0.668      1.322
REMARK  Name = 
REMARK  5 active torsions:
REMARK  status: ('A' for Active; 'I' for Inactive)
REMARK    1  A    between atoms: C_2  and  C_12
REMARK    2  A    between atoms: N_3  and  C_4
REMARK    3  A    between atoms: C_4  and  C_5
REMARK    4  A    between atoms: C_5  and  C_6
REMARK    5  A    between atoms: C_6  and  N_7
REMARK                            x       y       z     vdW  Elec       q    Type
REMARK                         _______ _______ _______ _____ _____    ______ ____
ROOT
ATOM      1  O   UNL     1       3.252   5.764  19.935  0.00  0.00    +0.000 OA
ATOM      2  C   UNL     1       2.946   6.358  18.910  0.00  0.00    +0.000 C 
ATOM      3  N   UNL     1       3.292   5.827  17.704  0.00  0.00    +0.000 N 
ATOM      4  H   UNL     1       3.020   6.304  16.839  0.00  0.00    +0.000 HD
ENDROOT
BRANCH   2   5
ATOM      5  C   UNL     1       2.207   7.659  19.029  0.00  0.00    +0.000 A 
ATOM      6  C   UNL     1       2.074   8.484  17.891  0.00  0.00    +0.000 A 
ATOM      7  C   UNL     1       1.392   9.702  17.962  0.00  0.00    +0.000 A 
ATOM      8  C   UNL     1       0.832  10.122  19.169  0.00  0.00    +0.000 A 
ATOM      9 BR   UNL     1      -0.091  11.791  19.270  0.00  0.00    +0.000 Br
ATOM     10  C   UNL     1       0.948   9.322  20.304  0.00  0.00    +0.000 A 
ATOM     11  C   UNL     1       1.626   8.101  20.240  0.00  0.00    +0.000 A 
ENDBRANCH   2   5
BRANCH   3  12
ATOM     12  C   UNL     1       4.052   4.592  17.589  0.00  0.00    +0.000 C 
BRANCH  12  13
ATOM     13  C   UNL     1       3.148   3.402  17.223  0.00  0.00    +0.000 C 
BRANCH  13  14
ATOM     14  C   UNL     1       3.342   2.200  18.166  0.00  0.00    +0.000 C 
BRANCH  14  15
ATOM     15  N   UNL     1       2.702   2.445  19.458  0.00  0.00    +0.000 N 
ATOM     16  C   UNL     1       3.309   2.480  20.655  0.00  0.00    +0.000 A 
ATOM     17  C   UNL     1       2.349   2.745  21.609  0.00  0.00    +0.000 A 
ATOM     18  N   UNL     1       1.151   2.879  21.004  0.00  0.00    +0.000 NA
ATOM     19  C   UNL     1       1.400   2.687  19.691  0.00  0.00    +0.000 A 
ENDBRANCH  14  15
ENDBRANCH  13  14
ENDBRANCH  12  13
ENDBRANCH   3  12
TORSDOF 5
ENDMDL
MODEL 4
REMARK VINA RESULT:      -6.0      2.421      4.003
REMARK  Name = 
REMARK  5 active torsions:
REMARK  status: ('A' for Active; 'I' for Inactive)
REMARK    1  A    between atoms: C_2  and  C_12
REMARK    2  A    between atoms: N_3  and  C_4
REMARK    3  A    between atoms: C_4  and  C_5
REMARK    4  A    between atoms: C_5  and  C_6
REMARK    5  A    between atoms: C_6  and  N_7
REMARK                            x       y       z     vdW  Elec       q    Type
REMARK                         _______ _______ _______ _____ _____    ______ ____
ROOT
ATOM      1  O   UNL     1       4.143   5.688  19.579  0.00  0.00    +0.000 OA
ATOM      2  C   UNL     1       3.364   6.031  18.700  0.00  0.00    +0.000 C 
ATOM      3  N   UNL     1       3.280   5.291  17.559  0.00  0.00    +0.000 N 
ATOM      4  H   UNL     1       2.614   5.555  16.826  0.00  0.00    +0.000 HD
ENDROOT
BRANCH   2   5
ATOM      5  C   UNL     1       2.538   7.266  18.915  0.00  0.00    +0.000 A 
ATOM      6  C   UNL     1       2.346   8.163  17.842  0.00  0.00    +0.000 A 
ATOM      7  C   UNL     1       1.582   9.322  18.004  0.00  0.00    +0.000 A 
ATOM      8  C   UNL     1       0.996   9.610  19.237  0.00  0.00    +0.000 A 
ATOM      9 BR   UNL     1      -0.039  11.199  19.461  0.00  0.00    +0.000 Br
ATOM     10  C   UNL     1       1.170   8.736  20.308  0.00  0.00    +0.000 A 
ATOM     11  C   UNL     1       1.930   7.573  20.154  0.00  0.00    +0.000 A 
ENDBRANCH   2   5
BRANCH   3  12
ATOM     12  C   UNL     1       4.116   4.123  17.329  0.00  0.00    +0.000 C 
BRANCH  12  13
ATOM     13  C   UNL     1       4.905   4.240  16.013  0.00  0.00    +0.000 C 
BRANCH  13  14
ATOM     14  C   UNL     1       5.778   5.508  15.959  0.00  0.00    +0.000 C 
BRANCH  14  15
ATOM     15  N   UNL     1       6.687   5.560  17.104  0.00  0.00    +0.000 N 
ATOM     16  C   UNL     1       6.999   6.648  17.826  0.00  0.00    +0.000 A 
ATOM     17  C   UNL     1       7.883   6.263  18.813  0.00  0.00    +0.000 A 
ATOM     18  N   UNL     1       8.114   4.938  18.705  0.00  0.00    +0.000 NA
ATOM     19  C   UNL     1       7.371   4.540  17.651  0.00  0.00    +0.000 A 
ENDBRANCH  14  15
ENDBRANCH  13  14
ENDBRANCH  12  13
ENDBRANCH   3  12
TORSDOF 5
ENDMDL
MODEL 5
REMARK VINA RESULT:      -5.9      0.745      1.508
REMARK  Name = 
REMARK  5 active torsions:
REMARK  status: ('A' for Active; 'I' for Inactive)
REMARK    1  A    between atoms: C_2  and  C_12
REMARK    2  A    between atoms: N_3  and  C_4
REMARK    3  A    between atoms: C_4  and  C_5
REMARK    4  A    between atoms: C_5  and  C_6
REMARK    5  A    between atoms: C_6  and  N_7
REMARK                            x       y       z     vdW  Elec       q    Type
REMARK                         _______ _______ _______ _____ _____    ______ ____
ROOT
ATOM      1  O   UNL     1       4.649   5.887  18.653  0.00  0.00    +0.000 OA
ATOM      2  C   UNL     1       3.477   5.948  18.309  0.00  0.00    +0.000 C 
ATOM      3  N   UNL     1       2.950   4.942  17.556  0.00  0.00    +0.000 N 
ATOM      4  H   UNL     1       1.963   4.971  17.282  0.00  0.00    +0.000 HD
ENDROOT
BRANCH   2   5
ATOM      5  C   UNL     1       2.668   7.142  18.725  0.00  0.00    +0.000 A 
ATOM      6  C   UNL     1       2.490   8.206  17.815  0.00  0.00    +0.000 A 
ATOM      7  C   UNL     1       1.743   9.334  18.166  0.00  0.00    +0.000 A 
ATOM      8  C   UNL     1       1.160   9.424  19.430  0.00  0.00    +0.000 A 
ATOM      9 BR   UNL     1       0.148  10.969  19.914  0.00  0.00    +0.000 Br
ATOM     10  C   UNL     1       1.320   8.383  20.343  0.00  0.00    +0.000 A 
ATOM     11  C   UNL     1       2.064   7.251  19.999  0.00  0.00    +0.000 A 
ENDBRANCH   2   5
BRANCH   3  12
ATOM     12  C   UNL     1       3.747   3.809  17.110  0.00  0.00    +0.000 C 
BRANCH  12  13
ATOM     13  C   UNL     1       3.103   2.470  17.512  0.00  0.00    +0.000 C 
BRANCH  13  14
ATOM     14  C   UNL     1       1.767   2.656  18.254  0.00  0.00    +0.000 C 
BRANCH  14  15
ATOM     15  N   UNL     1       1.984   2.757  19.696  0.00  0.00    +0.000 N 
ATOM     16  C   UNL     1       1.129   3.264  20.599  0.00  0.00    +0.000 A 
ATOM     17  C   UNL     1       1.717   3.165  21.843  0.00  0.00    +0.000 A 
ATOM     18  N   UNL     1       2.932   2.594  21.712  0.00  0.00    +0.000 NA
ATOM     19  C   UNL     1       3.066   2.359  20.389  0.00  0.00    +0.000 A 
ENDBRANCH  14  15
ENDBRANCH  13  14
ENDBRANCH  12  13
ENDBRANCH   3  12
TORSDOF 5
ENDMDL
MODEL 6
REMARK VINA RESULT:      -5.9      2.401      3.793
REMARK  Name = 
REMARK  5 active torsions:
REMARK  status: ('A' for Active; 'I' for Inactive)
REMARK    1  A    between atoms: C_2  and  C_12
REMARK    2  A    between atoms: N_3  and  C_4
REMARK    3  A    between atoms: C_4  and  C_5
REMARK    4  A    between atoms: C_5  and  C_6
REMARK    5  A    between atoms: C_6  and  N_7
REMARK                            x       y       z     vdW  Elec       q    Type
REMARK                         _______ _______ _______ _____ _____    ______ ____
ROOT
ATOM      1  O   UNL     1       3.715   5.527  19.691  0.00  0.00    +0.000 OA
ATOM      2  C   UNL     1       3.141   6.012  18.726  0.00  0.00    +0.000 C 
ATOM      3  N   UNL     1       3.200   5.371  17.524  0.00  0.00    +0.000 N 
ATOM      4  H   UNL     1       2.705   5.756  16.715  0.00  0.00    +0.000 HD
ENDROOT
BRANCH   2   5
ATOM      5  C   UNL     1       2.402   7.306  18.906  0.00  0.00    +0.000 A 
ATOM      6  C   UNL     1       1.878   7.630  20.176  0.00  0.00    +0.000 A 
ATOM      7  C   UNL     1       1.185   8.826  20.383  0.00  0.00    +0.000 A 
ATOM      8  C   UNL     1       1.000   9.721  19.328  0.00  0.00    +0.000 A 
ATOM      9 BR   UNL     1       0.045  11.351  19.607  0.00  0.00    +0.000 Br
ATOM     10  C   UNL     1       1.513   9.422  18.067  0.00  0.00    +0.000 A 
ATOM     11  C   UNL     1       2.209   8.229  17.853  0.00  0.00    +0.000 A 
ENDBRANCH   2   5
BRANCH   3  12
ATOM     12  C   UNL     1       3.958   4.143  17.337  0.00  0.00    +0.000 C 
BRANCH  12  13
ATOM     13  C   UNL     1       4.850   4.213  16.085  0.00  0.00    +0.000 C 
BRANCH  13  14
ATOM     14  C   UNL     1       5.731   5.476  16.057  0.00  0.00    +0.000 C 
BRANCH  14  15
ATOM     15  N   UNL     1       6.660   5.485  17.187  0.00  0.00    +0.000 N 
ATOM     16  C   UNL     1       6.864   6.499  18.044  0.00  0.00    +0.000 A 
ATOM     17  C   UNL     1       7.813   6.095  18.960  0.00  0.00    +0.000 A 
ATOM     18  N   UNL     1       8.193   4.833  18.674  0.00  0.00    +0.000 NA
ATOM     19  C   UNL     1       7.472   4.490  17.585  0.00  0.00    +0.000 A 
ENDBRANCH  14  15
ENDBRANCH  13  14
ENDBRANCH  12  13
ENDBRANCH   3  12
TORSDOF 5
ENDMDL
MODEL 7
REMARK VINA RESULT:      -5.9      3.339      5.129
REMARK  Name = 
REMARK  5 active torsions:
REMARK  status: ('A' for Active; 'I' for Inactive)
REMARK    1  A    between atoms: C_2  and  C_12
REMARK    2  A    between atoms: N_3  and  C_4
REMARK    3  A    between atoms: C_4  and  C_5
REMARK    4  A    between atoms: C_5  and  C_6
REMARK    5  A    between atoms: C_6  and  N_7
REMARK                            x       y       z     vdW  Elec       q    Type
REMARK                         _______ _______ _______ _____ _____    ______ ____
ROOT
ATOM      1  O   UNL     1       5.095   5.547  19.575  0.00  0.00    +0.000 OA
ATOM      2  C   UNL     1       4.366   5.666  18.600  0.00  0.00    +0.000 C 
ATOM      3  N   UNL     1       3.105   6.157  18.766  0.00  0.00    +0.000 N 
ATOM      4  H   UNL     1       2.495   6.283  17.953  0.00  0.00    +0.000 HD
ENDROOT
BRANCH   2   5
ATOM      5  C   UNL     1       4.892   5.254  17.256  0.00  0.00    +0.000 A 
ATOM      6  C   UNL     1       5.029   6.225  16.241  0.00  0.00    +0.000 A 
ATOM      7  C   UNL     1       5.516   5.880  14.977  0.00  0.00    +0.000 A 
ATOM      8  C   UNL     1       5.877   4.560  14.701  0.00  0.00    +0.000 A 
ATOM      9 BR   UNL     1       6.534   4.085  12.972  0.00  0.00    +0.000 Br
ATOM     10  C   UNL     1       5.754   3.586  15.691  0.00  0.00    +0.000 A 
ATOM     11  C   UNL     1       5.269   3.924  16.957  0.00  0.00    +0.000 A 
ENDBRANCH   2   5
BRANCH   3  12
ATOM     12  C   UNL     1       2.577   6.509  20.075  0.00  0.00    +0.000 C 
BRANCH  12  13
ATOM     13  C   UNL     1       1.480   5.529  20.526  0.00  0.00    +0.000 C 
BRANCH  13  14
ATOM     14  C   UNL     1       2.055   4.220  21.098  0.00  0.00    +0.000 C 
BRANCH  14  15
ATOM     15  N   UNL     1       2.293   3.249  20.031  0.00  0.00    +0.000 N 
ATOM     16  C   UNL     1       3.362   2.445  19.907  0.00  0.00    +0.000 A 
ATOM     17  C   UNL     1       3.191   1.684  18.771  0.00  0.00    +0.000 A 
ATOM     18  N   UNL     1       2.016   2.011  18.193  0.00  0.00    +0.000 NA
ATOM     19  C   UNL     1       1.494   2.971  18.986  0.00  0.00    +0.000 A 
ENDBRANCH  14  15
ENDBRANCH  13  14
ENDBRANCH  12  13
ENDBRANCH   3  12
TORSDOF 5
ENDMDL
MODEL 8
REMARK VINA RESULT:      -5.8      1.724      2.511
REMARK  Name = 
REMARK  5 active torsions:
REMARK  status: ('A' for Active; 'I' for Inactive)
REMARK    1  A    between atoms: C_2  and  C_12
REMARK    2  A    between atoms: N_3  and  C_4
REMARK    3  A    between atoms: C_4  and  C_5
REMARK    4  A    between atoms: C_5  and  C_6
REMARK    5  A    between atoms: C_6  and  N_7
REMARK                            x       y       z     vdW  Elec       q    Type
REMARK                         _______ _______ _______ _____ _____    ______ ____
ROOT
ATOM      1  O   UNL     1       2.444   8.610  17.332  0.00  0.00    +0.000 OA
ATOM      2  C   UNL     1       2.346   8.051  18.416  0.00  0.00    +0.000 C 
ATOM      3  N   UNL     1       2.956   6.847  18.602  0.00  0.00    +0.000 N 
ATOM      4  H   UNL     1       2.900   6.381  19.512  0.00  0.00    +0.000 HD
ENDROOT
BRANCH   2   5
ATOM      5  C   UNL     1       1.543   8.716  19.496  0.00  0.00    +0.000 A 
ATOM      6  C   UNL     1       0.834   9.900  19.199  0.00  0.00    +0.000 A 
ATOM      7  C   UNL     1       0.075  10.547  20.179  0.00  0.00    +0.000 A 
ATOM      8  C   UNL     1       0.009  10.027  21.472  0.00  0.00    +0.000 A 
ATOM      9 BR   UNL     1      -1.020  10.915  22.813  0.00  0.00    +0.000 Br
ATOM     10  C   UNL     1       0.699   8.857  21.785  0.00  0.00    +0.000 A 
ATOM     11  C   UNL     1       1.458   8.203  20.811  0.00  0.00    +0.000 A 
ENDBRANCH   2   5
BRANCH   3  12
ATOM     12  C   UNL     1       3.692   6.179  17.539  0.00  0.00    +0.000 C 
BRANCH  12  13
ATOM     13  C   UNL     1       3.380   4.673  17.494  0.00  0.00    +0.000 C 
BRANCH  13  14
ATOM     14  C   UNL     1       1.953   4.351  17.977  0.00  0.00    +0.000 C 
BRANCH  14  15
ATOM     15  N   UNL     1       1.981   3.753  19.312  0.00  0.00    +0.000 N 
ATOM     16  C   UNL     1       0.925   3.542  20.114  0.00  0.00    +0.000 A 
ATOM     17  C   UNL     1       1.385   2.955  21.274  0.00  0.00    +0.000 A 
ATOM     18  N   UNL     1       2.722   2.799  21.190  0.00  0.00    +0.000 NA
ATOM     19  C   UNL     1       3.055   3.298  19.981  0.00  0.00    +0.000 A 
ENDBRANCH  14  15
ENDBRANCH  13  14
ENDBRANCH  12  13
ENDBRANCH   3  12
TORSDOF 5
ENDMDL
MODEL 9
REMARK VINA RESULT:      -5.8      1.025      1.417
REMARK  Name = 
REMARK  5 active torsions:
REMARK  status: ('A' for Active; 'I' for Inactive)
REMARK    1  A    between atoms: C_2  and  C_12
REMARK    2  A    between atoms: N_3  and  C_4
REMARK    3  A    between atoms: C_4  and  C_5
REMARK    4  A    between atoms: C_5  and  C_6
REMARK    5  A    between atoms: C_6  and  N_7
REMARK                            x       y       z     vdW  Elec       q    Type
REMARK                         _______ _______ _______ _____ _____    ______ ____
ROOT
ATOM      1  O   UNL     1       2.992   5.766  19.915  0.00  0.00    +0.000 OA
ATOM      2  C   UNL     1       3.001   6.509  18.943  0.00  0.00    +0.000 C 
ATOM      3  N   UNL     1       3.752   6.174  17.856  0.00  0.00    +0.000 N 
ATOM      4  H   UNL     1       3.748   6.776  17.028  0.00  0.00    +0.000 HD
ENDROOT
BRANCH   2   5
ATOM      5  C   UNL     1       2.187   7.769  18.995  0.00  0.00    +0.000 A 
ATOM      6  C   UNL     1       1.600   8.162  20.217  0.00  0.00    +0.000 A 
ATOM      7  C   UNL     1       0.837   9.329  20.305  0.00  0.00    +0.000 A 
ATOM      8  C   UNL     1       0.644  10.127  19.177  0.00  0.00    +0.000 A 
ATOM      9 BR   UNL     1      -0.407  11.718  19.293  0.00  0.00    +0.000 Br
ATOM     10  C   UNL     1       1.218   9.760  17.961  0.00  0.00    +0.000 A 
ATOM     11  C   UNL     1       1.984   8.595  17.865  0.00  0.00    +0.000 A 
ENDBRANCH   2   5
BRANCH   3  12
ATOM     12  C   UNL     1       4.580   4.978  17.825  0.00  0.00    +0.000 C 
BRANCH  12  13
ATOM     13  C   UNL     1       3.987   3.902  16.899  0.00  0.00    +0.000 C 
BRANCH  13  14
ATOM     14  C   UNL     1       3.787   2.552  17.613  0.00  0.00    +0.000 C 
BRANCH  14  15
ATOM     15  N   UNL     1       2.724   2.647  18.613  0.00  0.00    +0.000 N 
ATOM     16  C   UNL     1       1.448   3.003  18.390  0.00  0.00    +0.000 A 
ATOM     17  C   UNL     1       0.779   2.959  19.596  0.00  0.00    +0.000 A 
ATOM     18  N   UNL     1       1.637   2.572  20.563  0.00  0.00    +0.000 NA
ATOM     19  C   UNL     1       2.816   2.392  19.930  0.00  0.00    +0.000 A 
ENDBRANCH  14  15
ENDBRANCH  13  14
ENDBRANCH  12  13
ENDBRANCH   3  12
TORSDOF 5
ENDMDL
