MODEL 1
REMARK VINA RESULT:      -8.7      0.000      0.000
REMARK  Name = 
REMARK  7 active torsions:
REMARK  status: ('A' for Active; 'I' for Inactive)
REMARK    1  A    between atoms: C_1  and  C_2
REMARK    2  A    between atoms: C_6  and  C_7
REMARK    3  A    between atoms: C_8  and  N_9
REMARK    4  A    between atoms: C_13  and  C_14
REMARK    5  A    between atoms: C_14  and  C_15
REMARK    6  A    between atoms: N_20  and  C_21
REMARK    7  A    between atoms: C_21  and  C_22
REMARK                            x       y       z     vdW  Elec       q    Type
REMARK                         _______ _______ _______ _____ _____    ______ ____
ROOT
ATOM      1  C   UNL     1       5.173   5.597  17.543  0.00  0.00    +0.000 C 
ATOM      2  C   UNL     1       5.331   7.075  17.109  0.00  0.00    +0.000 C 
ATOM      3  C   UNL     1       5.615   5.621  19.051  0.00  0.00    +0.000 C 
ATOM      4  C   UNL     1       7.141   5.563  19.002  0.00  0.00    +0.000 C 
ATOM      5  C   UNL     1       7.367   4.629  17.858  0.00  0.00    +0.000 C 
ATOM      6  O   UNL     1       8.387   3.987  17.674  0.00  0.00    +0.000 OA
ATOM      7  N   UNL     1       6.238   4.650  17.037  0.00  0.00    +0.000 N 
ENDROOT
BRANCH   1  12
ATOM      8  N   UNL     1       2.558   5.369  18.220  0.00  0.00    +0.000 N 
ATOM      9  N   UNL     1       1.701   4.350  17.961  0.00  0.00    +0.000 NA
ATOM     10  N   UNL     1       2.203   3.624  16.987  0.00  0.00    +0.000 NA
ATOM     11  N   UNL     1       3.425   4.081  16.630  0.00  0.00    +0.000 NA
ATOM     12  C   UNL     1       3.727   5.098  17.429  0.00  0.00    +0.000 A 
BRANCH   8  20
ATOM     13  C   UNL     1       2.319   4.923  21.224  0.00  0.00    +0.000 C 
ATOM     14  C   UNL     1       1.829   6.124  20.506  0.00  0.00    +0.000 A 
ATOM     15  C   UNL     1       1.214   7.040  21.357  0.00  0.00    +0.000 A 
ATOM     16  C   UNL     1       0.993   8.336  20.939  0.00  0.00    +0.000 A 
ATOM     17  C   UNL     1       1.450   8.723  19.687  0.00  0.00    +0.000 A 
ATOM     18  C   UNL     1       2.053   7.779  18.795  0.00  0.00    +0.000 A 
ATOM     19  C   UNL     1       2.569   8.384  17.511  0.00  0.00    +0.000 C 
ATOM     20  C   UNL     1       2.140   6.407  19.158  0.00  0.00    +0.000 A 
ENDBRANCH   8  20
ENDBRANCH   1  12
BRANCH   7  21
ATOM     21  C   UNL     1       6.189   3.627  15.967  0.00  0.00    +0.000 C 
BRANCH  21  22
ATOM     22  C   UNL     1       6.598   4.123  14.588  0.00  0.00    +0.000 A 
ATOM     23  C   UNL     1       6.145   3.549  13.392  0.00  0.00    +0.000 A 
ATOM     24  C   UNL     1       6.635   4.000  12.159  0.00  0.00    +0.000 A 
ATOM     25  C   UNL     1       7.559   5.034  12.152  0.00  0.00    +0.000 A 
ATOM     26  N   UNL     1       7.999   5.639  13.277  0.00  0.00    +0.000 NA
ATOM     27  C   UNL     1       7.497   5.183  14.452  0.00  0.00    +0.000 A 
ENDBRANCH  21  22
ENDBRANCH   7  21
TORSDOF 4
ENDMDL
MODEL 2
REMARK VINA RESULT:      -8.4      0.322      1.688
REMARK  Name = 
REMARK  7 active torsions:
REMARK  status: ('A' for Active; 'I' for Inactive)
REMARK    1  A    between atoms: C_1  and  C_2
REMARK    2  A    between atoms: C_6  and  C_7
REMARK    3  A    between atoms: C_8  and  N_9
REMARK    4  A    between atoms: C_13  and  C_14
REMARK    5  A    between atoms: C_14  and  C_15
REMARK    6  A    between atoms: N_20  and  C_21
REMARK    7  A    between atoms: C_21  and  C_22
REMARK                            x       y       z     vdW  Elec       q    Type
REMARK                         _______ _______ _______ _____ _____    ______ ____
ROOT
ATOM      1  C   UNL     1       5.205   5.533  17.543  0.00  0.00    +0.000 C 
ATOM      2  C   UNL     1       5.311   7.018  17.117  0.00  0.00    +0.000 C 
ATOM      3  C   UNL     1       5.608   5.571  19.062  0.00  0.00    +0.000 C 
ATOM      4  C   UNL     1       7.136   5.577  19.051  0.00  0.00    +0.000 C 
ATOM      5  C   UNL     1       7.429   4.657  17.911  0.00  0.00    +0.000 C 
ATOM      6  O   UNL     1       8.479   4.059  17.751  0.00  0.00    +0.000 OA
ATOM      7  N   UNL     1       6.321   4.633  17.062  0.00  0.00    +0.000 N 
ENDROOT
BRANCH   1  12
ATOM      8  N   UNL     1       2.591   5.176  18.168  0.00  0.00    +0.000 N 
ATOM      9  N   UNL     1       1.785   4.127  17.871  0.00  0.00    +0.000 NA
ATOM     10  N   UNL     1       2.334   3.446  16.890  0.00  0.00    +0.000 NA
ATOM     11  N   UNL     1       3.541   3.963  16.566  0.00  0.00    +0.000 NA
ATOM     12  C   UNL     1       3.784   4.974  17.392  0.00  0.00    +0.000 A 
BRANCH   8  20
ATOM     13  C   UNL     1       1.992   8.068  17.418  0.00  0.00    +0.000 C 
ATOM     14  C   UNL     1       2.048   7.548  18.805  0.00  0.00    +0.000 A 
ATOM     15  C   UNL     1       1.817   8.540  19.756  0.00  0.00    +0.000 A 
ATOM     16  C   UNL     1       1.508   8.198  21.057  0.00  0.00    +0.000 A 
ATOM     17  C   UNL     1       1.372   6.854  21.381  0.00  0.00    +0.000 A 
ATOM     18  C   UNL     1       1.641   5.830  20.417  0.00  0.00    +0.000 A 
ATOM     19  C   UNL     1       1.362   4.430  20.910  0.00  0.00    +0.000 C 
ATOM     20  C   UNL     1       2.112   6.173  19.121  0.00  0.00    +0.000 A 
ENDBRANCH   8  20
ENDBRANCH   1  12
BRANCH   7  21
ATOM     21  C   UNL     1       6.341   3.612  15.989  0.00  0.00    +0.000 C 
BRANCH  21  22
ATOM     22  C   UNL     1       6.696   4.142  14.608  0.00  0.00    +0.000 A 
ATOM     23  C   UNL     1       6.190   3.604  13.417  0.00  0.00    +0.000 A 
ATOM     24  C   UNL     1       6.632   4.085  12.177  0.00  0.00    +0.000 A 
ATOM     25  C   UNL     1       7.563   5.112  12.159  0.00  0.00    +0.000 A 
ATOM     26  N   UNL     1       8.054   5.683  13.281  0.00  0.00    +0.000 NA
ATOM     27  C   UNL     1       7.598   5.200  14.463  0.00  0.00    +0.000 A 
ENDBRANCH  21  22
ENDBRANCH   7  21
TORSDOF 4
ENDMDL
MODEL 3
REMARK VINA RESULT:      -7.8      2.667      5.233
REMARK  Name = 
REMARK  7 active torsions:
REMARK  status: ('A' for Active; 'I' for Inactive)
REMARK    1  A    between atoms: C_1  and  C_2
REMARK    2  A    between atoms: C_6  and  C_7
REMARK    3  A    between atoms: C_8  and  N_9
REMARK    4  A    between atoms: C_13  and  C_14
REMARK    5  A    between atoms: C_14  and  C_15
REMARK    6  A    between atoms: N_20  and  C_21
REMARK    7  A    between atoms: C_21  and  C_22
REMARK                            x       y       z     vdW  Elec       q    Type
REMARK                         _______ _______ _______ _____ _____    ______ ____
ROOT
ATOM      1  C   UNL     1       5.827   5.273  18.111  0.00  0.00    +0.000 C 
ATOM      2  C   UNL     1       5.883   5.145  19.653  0.00  0.00    +0.000 C 
ATOM      3  C   UNL     1       7.342   5.232  17.696  0.00  0.00    +0.000 C 
ATOM      4  C   UNL     1       7.835   6.663  17.911  0.00  0.00    +0.000 C 
ATOM      5  C   UNL     1       6.648   7.455  17.470  0.00  0.00    +0.000 C 
ATOM      6  O   UNL     1       6.683   8.619  17.106  0.00  0.00    +0.000 OA
ATOM      7  N   UNL     1       5.511   6.654  17.580  0.00  0.00    +0.000 N 
ENDROOT
BRANCH   1  12
ATOM      8  N   UNL     1       4.080   3.206  17.955  0.00  0.00    +0.000 N 
ATOM      9  N   UNL     1       4.097   2.143  17.114  0.00  0.00    +0.000 NA
ATOM     10  N   UNL     1       4.880   2.431  16.097  0.00  0.00    +0.000 NA
ATOM     11  N   UNL     1       5.462   3.640  16.270  0.00  0.00    +0.000 NA
ATOM     12  C   UNL     1       5.072   4.113  17.447  0.00  0.00    +0.000 A 
BRANCH   8  20
ATOM     13  C   UNL     1       1.136   3.953  17.718  0.00  0.00    +0.000 C 
ATOM     14  C   UNL     1       1.853   3.739  18.997  0.00  0.00    +0.000 A 
ATOM     15  C   UNL     1       1.035   3.940  20.108  0.00  0.00    +0.000 A 
ATOM     16  C   UNL     1       1.423   3.477  21.349  0.00  0.00    +0.000 A 
ATOM     17  C   UNL     1       2.606   2.758  21.456  0.00  0.00    +0.000 A 
ATOM     18  C   UNL     1       3.467   2.578  20.326  0.00  0.00    +0.000 A 
ATOM     19  C   UNL     1       4.666   1.701  20.598  0.00  0.00    +0.000 C 
ATOM     20  C   UNL     1       3.150   3.186  19.081  0.00  0.00    +0.000 A 
ENDBRANCH   8  20
ENDBRANCH   1  12
BRANCH   7  21
ATOM     21  C   UNL     1       4.267   7.196  16.986  0.00  0.00    +0.000 C 
BRANCH  21  22
ATOM     22  C   UNL     1       3.254   7.721  17.992  0.00  0.00    +0.000 A 
ATOM     23  C   UNL     1       2.941   7.065  19.191  0.00  0.00    +0.000 A 
ATOM     24  C   UNL     1       1.930   7.560  20.027  0.00  0.00    +0.000 A 
ATOM     25  C   UNL     1       1.265   8.716  19.648  0.00  0.00    +0.000 A 
ATOM     26  N   UNL     1       1.555   9.398  18.519  0.00  0.00    +0.000 NA
ATOM     27  C   UNL     1       2.544   8.897  17.738  0.00  0.00    +0.000 A 
ENDBRANCH  21  22
ENDBRANCH   7  21
TORSDOF 4
ENDMDL
MODEL 4
REMARK VINA RESULT:      -7.3      6.652     11.212
REMARK  Name = 
REMARK  7 active torsions:
REMARK  status: ('A' for Active; 'I' for Inactive)
REMARK    1  A    between atoms: C_1  and  C_2
REMARK    2  A    between atoms: C_6  and  C_7
REMARK    3  A    between atoms: C_8  and  N_9
REMARK    4  A    between atoms: C_13  and  C_14
REMARK    5  A    between atoms: C_14  and  C_15
REMARK    6  A    between atoms: N_20  and  C_21
REMARK    7  A    between atoms: C_21  and  C_22
REMARK                            x       y       z     vdW  Elec       q    Type
REMARK                         _______ _______ _______ _____ _____    ______ ____
ROOT
ATOM      1  C   UNL     1      -0.066  12.789  20.871  0.00  0.00    +0.000 C 
ATOM      2  C   UNL     1       1.458  12.526  20.786  0.00  0.00    +0.000 C 
ATOM      3  C   UNL     1      -0.203  14.259  20.334  0.00  0.00    +0.000 C 
ATOM      4  C   UNL     1       0.132  15.138  21.538  0.00  0.00    +0.000 C 
ATOM      5  C   UNL     1      -0.495  14.367  22.653  0.00  0.00    +0.000 C 
ATOM      6  O   UNL     1      -0.818  14.838  23.731  0.00  0.00    +0.000 OA
ATOM      7  N   UNL     1      -0.610  13.032  22.262  0.00  0.00    +0.000 N 
ENDROOT
BRANCH   1  12
ATOM      8  N   UNL     1      -0.565  10.547  19.432  0.00  0.00    +0.000 N 
ATOM      9  N   UNL     1      -1.439  10.374  18.409  0.00  0.00    +0.000 NA
ATOM     10  N   UNL     1      -2.315  11.354  18.441  0.00  0.00    +0.000 NA
ATOM     11  N   UNL     1      -2.008  12.238  19.417  0.00  0.00    +0.000 NA
ATOM     12  C   UNL     1      -0.882  11.832  19.993  0.00  0.00    +0.000 A 
BRANCH   8  20
ATOM     13  C   UNL     1       1.956  10.126  17.775  0.00  0.00    +0.000 C 
ATOM     14  C   UNL     1       1.449   9.181  18.798  0.00  0.00    +0.000 A 
ATOM     15  C   UNL     1       2.245   8.042  18.915  0.00  0.00    +0.000 A 
ATOM     16  C   UNL     1       2.126   7.221  20.017  0.00  0.00    +0.000 A 
ATOM     17  C   UNL     1       1.247   7.583  21.029  0.00  0.00    +0.000 A 
ATOM     18  C   UNL     1       0.403   8.732  20.901  0.00  0.00    +0.000 A 
ATOM     19  C   UNL     1      -0.427   9.028  22.127  0.00  0.00    +0.000 C 
ATOM     20  C   UNL     1       0.408   9.493  19.700  0.00  0.00    +0.000 A 
ENDBRANCH   8  20
ENDBRANCH   1  12
BRANCH   7  21
ATOM     21  C   UNL     1      -1.405  12.155  23.153  0.00  0.00    +0.000 C 
BRANCH  21  22
ATOM     22  C   UNL     1      -2.902  12.423  23.145  0.00  0.00    +0.000 A 
ATOM     23  C   UNL     1      -3.585  12.977  22.053  0.00  0.00    +0.000 A 
ATOM     24  C   UNL     1      -4.950  13.281  22.150  0.00  0.00    +0.000 A 
ATOM     25  C   UNL     1      -5.607  13.004  23.339  0.00  0.00    +0.000 A 
ATOM     26  N   UNL     1      -4.997  12.441  24.406  0.00  0.00    +0.000 NA
ATOM     27  C   UNL     1      -3.678  12.152  24.274  0.00  0.00    +0.000 A 
ENDBRANCH  21  22
ENDBRANCH   7  21
TORSDOF 4
ENDMDL
MODEL 5
REMARK VINA RESULT:      -7.2      9.015     12.671
REMARK  Name = 
REMARK  7 active torsions:
REMARK  status: ('A' for Active; 'I' for Inactive)
REMARK    1  A    between atoms: C_1  and  C_2
REMARK    2  A    between atoms: C_6  and  C_7
REMARK    3  A    between atoms: C_8  and  N_9
REMARK    4  A    between atoms: C_13  and  C_14
REMARK    5  A    between atoms: C_14  and  C_15
REMARK    6  A    between atoms: N_20  and  C_21
REMARK    7  A    between atoms: C_21  and  C_22
REMARK                            x       y       z     vdW  Elec       q    Type
REMARK                         _______ _______ _______ _____ _____    ______ ____
ROOT
ATOM      1  C   UNL     1       0.068  13.536  21.264  0.00  0.00    +0.000 C 
ATOM      2  C   UNL     1      -0.652  14.132  20.030  0.00  0.00    +0.000 C 
ATOM      3  C   UNL     1       1.301  12.795  20.631  0.00  0.00    +0.000 C 
ATOM      4  C   UNL     1       0.741  11.451  20.166  0.00  0.00    +0.000 C 
ATOM      5  C   UNL     1      -0.223  11.135  21.262  0.00  0.00    +0.000 C 
ATOM      6  O   UNL     1      -0.628  10.017  21.532  0.00  0.00    +0.000 OA
ATOM      7  N   UNL     1      -0.595  12.327  21.886  0.00  0.00    +0.000 N 
ENDROOT
BRANCH   1  12
ATOM      8  N   UNL     1      -0.153  15.654  22.940  0.00  0.00    +0.000 N 
ATOM      9  N   UNL     1       0.796  16.556  23.296  0.00  0.00    +0.000 NA
ATOM     10  N   UNL     1       1.976  16.050  23.015  0.00  0.00    +0.000 NA
ATOM     11  N   UNL     1       1.848  14.853  22.398  0.00  0.00    +0.000 NA
ATOM     12  C   UNL     1       0.551  14.612  22.245  0.00  0.00    +0.000 A 
BRANCH   8  20
ATOM     13  C   UNL     1      -1.203  15.495  25.796  0.00  0.00    +0.000 C 
ATOM     14  C   UNL     1      -2.052  15.637  24.590  0.00  0.00    +0.000 A 
ATOM     15  C   UNL     1      -3.412  15.668  24.895  0.00  0.00    +0.000 A 
ATOM     16  C   UNL     1      -4.324  16.116  23.961  0.00  0.00    +0.000 A 
ATOM     17  C   UNL     1      -3.856  16.591  22.743  0.00  0.00    +0.000 A 
ATOM     18  C   UNL     1      -2.464  16.530  22.410  0.00  0.00    +0.000 A 
ATOM     19  C   UNL     1      -2.118  17.165  21.085  0.00  0.00    +0.000 C 
ATOM     20  C   UNL     1      -1.540  15.925  23.305  0.00  0.00    +0.000 A 
ENDBRANCH   8  20
ENDBRANCH   1  12
BRANCH   7  21
ATOM     21  C   UNL     1      -1.379  12.194  23.135  0.00  0.00    +0.000 C 
BRANCH  21  22
ATOM     22  C   UNL     1      -2.876  12.408  22.976  0.00  0.00    +0.000 A 
ATOM     23  C   UNL     1      -3.474  12.851  21.787  0.00  0.00    +0.000 A 
ATOM     24  C   UNL     1      -4.850  13.114  21.741  0.00  0.00    +0.000 A 
ATOM     25  C   UNL     1      -5.603  12.909  22.887  0.00  0.00    +0.000 A 
ATOM     26  N   UNL     1      -5.076  12.453  24.044  0.00  0.00    +0.000 NA
ATOM     27  C   UNL     1      -3.743  12.200  24.052  0.00  0.00    +0.000 A 
ENDBRANCH  21  22
ENDBRANCH   7  21
TORSDOF 4
ENDMDL
MODEL 6
REMARK VINA RESULT:      -7.1      8.422     10.934
REMARK  Name = 
REMARK  7 active torsions:
REMARK  status: ('A' for Active; 'I' for Inactive)
REMARK    1  A    between atoms: C_1  and  C_2
REMARK    2  A    between atoms: C_6  and  C_7
REMARK    3  A    between atoms: C_8  and  N_9
REMARK    4  A    between atoms: C_13  and  C_14
REMARK    5  A    between atoms: C_14  and  C_15
REMARK    6  A    between atoms: N_20  and  C_21
REMARK    7  A    between atoms: C_21  and  C_22
REMARK                            x       y       z     vdW  Elec       q    Type
REMARK                         _______ _______ _______ _____ _____    ______ ____
ROOT
ATOM      1  C   UNL     1      -1.238  12.804  20.756  0.00  0.00    +0.000 C 
ATOM      2  C   UNL     1      -1.509  14.130  20.004  0.00  0.00    +0.000 C 
ATOM      3  C   UNL     1       0.086  13.107  21.545  0.00  0.00    +0.000 C 
ATOM      4  C   UNL     1       1.199  12.886  20.521  0.00  0.00    +0.000 C 
ATOM      5  C   UNL     1       0.676  11.711  19.763  0.00  0.00    +0.000 C 
ATOM      6  O   UNL     1       1.361  10.944  19.106  0.00  0.00    +0.000 OA
ATOM      7  N   UNL     1      -0.711  11.668  19.908  0.00  0.00    +0.000 N 
ENDROOT
BRANCH   1  12
ATOM      8  N   UNL     1      -3.676  12.987  21.928  0.00  0.00    +0.000 N 
ATOM      9  N   UNL     1      -4.046  12.613  23.178  0.00  0.00    +0.000 NA
ATOM     10  N   UNL     1      -3.143  11.779  23.645  0.00  0.00    +0.000 NA
ATOM     11  N   UNL     1      -2.122  11.641  22.770  0.00  0.00    +0.000 NA
ATOM     12  C   UNL     1      -2.361  12.441  21.737  0.00  0.00    +0.000 A 
BRANCH   8  20
ATOM     13  C   UNL     1      -6.106  11.825  20.504  0.00  0.00    +0.000 C 
ATOM     14  C   UNL     1      -5.595  13.204  20.315  0.00  0.00    +0.000 A 
ATOM     15  C   UNL     1      -6.338  13.926  19.384  0.00  0.00    +0.000 A 
ATOM     16  C   UNL     1      -6.223  15.299  19.317  0.00  0.00    +0.000 A 
ATOM     17  C   UNL     1      -5.405  15.947  20.232  0.00  0.00    +0.000 A 
ATOM     18  C   UNL     1      -4.613  15.210  21.169  0.00  0.00    +0.000 A 
ATOM     19  C   UNL     1      -3.848  16.072  22.145  0.00  0.00    +0.000 C 
ATOM     20  C   UNL     1      -4.607  13.788  21.138  0.00  0.00    +0.000 A 
ENDBRANCH   8  20
ENDBRANCH   1  12
BRANCH   7  21
ATOM     21  C   UNL     1      -1.385  10.449  19.404  0.00  0.00    +0.000 C 
BRANCH  21  22
ATOM     22  C   UNL     1      -2.225  10.653  18.153  0.00  0.00    +0.000 A 
ATOM     23  C   UNL     1      -3.370  11.463  18.111  0.00  0.00    +0.000 A 
ATOM     24  C   UNL     1      -4.146  11.532  16.946  0.00  0.00    +0.000 A 
ATOM     25  C   UNL     1      -3.747  10.799  15.839  0.00  0.00    +0.000 A 
ATOM     26  N   UNL     1      -2.635  10.032  15.824  0.00  0.00    +0.000 NA
ATOM     27  C   UNL     1      -1.901   9.995  16.964  0.00  0.00    +0.000 A 
ENDBRANCH  21  22
ENDBRANCH   7  21
TORSDOF 4
ENDMDL
MODEL 7
REMARK VINA RESULT:      -7.1      8.168     11.902
REMARK  Name = 
REMARK  7 active torsions:
REMARK  status: ('A' for Active; 'I' for Inactive)
REMARK    1  A    between atoms: C_1  and  C_2
REMARK    2  A    between atoms: C_6  and  C_7
REMARK    3  A    between atoms: C_8  and  N_9
REMARK    4  A    between atoms: C_13  and  C_14
REMARK    5  A    between atoms: C_14  and  C_15
REMARK    6  A    between atoms: N_20  and  C_21
REMARK    7  A    between atoms: C_21  and  C_22
REMARK                            x       y       z     vdW  Elec       q    Type
REMARK                         _______ _______ _______ _____ _____    ______ ____
ROOT
ATOM      1  C   UNL     1       0.550  13.100  19.860  0.00  0.00    +0.000 C 
ATOM      2  C   UNL     1      -0.225  13.518  18.587  0.00  0.00    +0.000 C 
ATOM      3  C   UNL     1       1.687  12.175  19.297  0.00  0.00    +0.000 C 
ATOM      4  C   UNL     1       1.018  10.813  19.118  0.00  0.00    +0.000 C 
ATOM      5  C   UNL     1       0.121  10.763  20.312  0.00  0.00    +0.000 C 
ATOM      6  O   UNL     1      -0.327   9.742  20.805  0.00  0.00    +0.000 OA
ATOM      7  N   UNL     1      -0.134  12.070  20.732  0.00  0.00    +0.000 N 
ENDROOT
BRANCH   1  12
ATOM      8  N   UNL     1       1.649  15.564  20.125  0.00  0.00    +0.000 N 
ATOM      9  N   UNL     1       2.470  16.025  21.101  0.00  0.00    +0.000 NA
ATOM     10  N   UNL     1       2.370  15.226  22.140  0.00  0.00    +0.000 NA
ATOM     11  N   UNL     1       1.557  14.181  21.862  0.00  0.00    +0.000 NA
ATOM     12  C   UNL     1       1.165  14.297  20.599  0.00  0.00    +0.000 A 
BRANCH   8  20
ATOM     13  C   UNL     1       3.470  15.402  17.687  0.00  0.00    +0.000 C 
ATOM     14  C   UNL     1       2.439  16.445  17.905  0.00  0.00    +0.000 A 
ATOM     15  C   UNL     1       2.399  17.380  16.872  0.00  0.00    +0.000 A 
ATOM     16  C   UNL     1       1.311  18.217  16.734  0.00  0.00    +0.000 A 
ATOM     17  C   UNL     1       0.237  18.067  17.602  0.00  0.00    +0.000 A 
ATOM     18  C   UNL     1       0.286  17.133  18.686  0.00  0.00    +0.000 A 
ATOM     19  C   UNL     1      -0.996  17.038  19.478  0.00  0.00    +0.000 C 
ATOM     20  C   UNL     1       1.467  16.379  18.927  0.00  0.00    +0.000 A 
ENDBRANCH   8  20
ENDBRANCH   1  12
BRANCH   7  21
ATOM     21  C   UNL     1      -0.830  12.215  22.031  0.00  0.00    +0.000 C 
BRANCH  21  22
ATOM     22  C   UNL     1      -2.338  12.391  21.933  0.00  0.00    +0.000 A 
ATOM     23  C   UNL     1      -3.003  12.730  20.746  0.00  0.00    +0.000 A 
ATOM     24  C   UNL     1      -4.385  12.964  20.750  0.00  0.00    +0.000 A 
ATOM     25  C   UNL     1      -5.075  12.836  21.946  0.00  0.00    +0.000 A 
ATOM     26  N   UNL     1      -4.481  12.480  23.106  0.00  0.00    +0.000 NA
ATOM     27  C   UNL     1      -3.145  12.252  23.065  0.00  0.00    +0.000 A 
ENDBRANCH  21  22
ENDBRANCH   7  21
TORSDOF 4
ENDMDL
MODEL 8
REMARK VINA RESULT:      -7.1      6.743     10.660
REMARK  Name = 
REMARK  7 active torsions:
REMARK  status: ('A' for Active; 'I' for Inactive)
REMARK    1  A    between atoms: C_1  and  C_2
REMARK    2  A    between atoms: C_6  and  C_7
REMARK    3  A    between atoms: C_8  and  N_9
REMARK    4  A    between atoms: C_13  and  C_14
REMARK    5  A    between atoms: C_14  and  C_15
REMARK    6  A    between atoms: N_20  and  C_21
REMARK    7  A    between atoms: C_21  and  C_22
REMARK                            x       y       z     vdW  Elec       q    Type
REMARK                         _______ _______ _______ _____ _____    ______ ____
ROOT
ATOM      1  C   UNL     1       1.164  13.415  19.225  0.00  0.00    +0.000 C 
ATOM      2  C   UNL     1       2.128  12.774  20.253  0.00  0.00    +0.000 C 
ATOM      3  C   UNL     1       2.077  13.620  17.963  0.00  0.00    +0.000 C 
ATOM      4  C   UNL     1       2.828  14.921  18.242  0.00  0.00    +0.000 C 
ATOM      5  C   UNL     1       1.772  15.735  18.915  0.00  0.00    +0.000 C 
ATOM      6  O   UNL     1       1.770  16.953  18.987  0.00  0.00    +0.000 OA
ATOM      7  N   UNL     1       0.825  14.869  19.466  0.00  0.00    +0.000 N 
ENDROOT
BRANCH   1  12
ATOM      8  N   UNL     1      -0.187  11.079  18.971  0.00  0.00    +0.000 N 
ATOM      9  N   UNL     1      -1.208  10.778  18.130  0.00  0.00    +0.000 NA
ATOM     10  N   UNL     1      -1.734  11.901  17.696  0.00  0.00    +0.000 NA
ATOM     11  N   UNL     1      -1.039  12.965  18.160  0.00  0.00    +0.000 NA
ATOM     12  C   UNL     1      -0.019  12.502  18.874  0.00  0.00    +0.000 A 
BRANCH   8  20
ATOM     13  C   UNL     1       2.148   9.453  17.882  0.00  0.00    +0.000 C 
ATOM     14  C   UNL     1       1.380   9.116  19.104  0.00  0.00    +0.000 A 
ATOM     15  C   UNL     1       1.827   7.942  19.708  0.00  0.00    +0.000 A 
ATOM     16  C   UNL     1       1.464   7.646  21.006  0.00  0.00    +0.000 A 
ATOM     17  C   UNL     1       0.702   8.567  21.714  0.00  0.00    +0.000 A 
ATOM     18  C   UNL     1       0.212   9.758  21.089  0.00  0.00    +0.000 A 
ATOM     19  C   UNL     1      -0.525  10.687  22.024  0.00  0.00    +0.000 C 
ATOM     20  C   UNL     1       0.450   9.991  19.707  0.00  0.00    +0.000 A 
ENDBRANCH   8  20
ENDBRANCH   1  12
BRANCH   7  21
ATOM     21  C   UNL     1      -0.410  15.497  19.989  0.00  0.00    +0.000 C 
BRANCH  21  22
ATOM     22  C   UNL     1      -0.804  15.061  21.392  0.00  0.00    +0.000 A 
ATOM     23  C   UNL     1      -1.946  14.297  21.674  0.00  0.00    +0.000 A 
ATOM     24  C   UNL     1      -2.296  14.010  23.000  0.00  0.00    +0.000 A 
ATOM     25  C   UNL     1      -1.481  14.481  24.018  0.00  0.00    +0.000 A 
ATOM     26  N   UNL     1      -0.355  15.193  23.792  0.00  0.00    +0.000 NA
ATOM     27  C   UNL     1      -0.041  15.446  22.497  0.00  0.00    +0.000 A 
ENDBRANCH  21  22
ENDBRANCH   7  21
TORSDOF 4
ENDMDL
MODEL 9
REMARK VINA RESULT:      -7.0      6.676     10.608
REMARK  Name = 
REMARK  7 active torsions:
REMARK  status: ('A' for Active; 'I' for Inactive)
REMARK    1  A    between atoms: C_1  and  C_2
REMARK    2  A    between atoms: C_6  and  C_7
REMARK    3  A    between atoms: C_8  and  N_9
REMARK    4  A    between atoms: C_13  and  C_14
REMARK    5  A    between atoms: C_14  and  C_15
REMARK    6  A    between atoms: N_20  and  C_21
REMARK    7  A    between atoms: C_21  and  C_22
REMARK                            x       y       z     vdW  Elec       q    Type
REMARK                         _______ _______ _______ _____ _____    ______ ____
ROOT
ATOM      1  C   UNL     1       0.964  13.328  19.266  0.00  0.00    +0.000 C 
ATOM      2  C   UNL     1       1.892  12.743  20.358  0.00  0.00    +0.000 C 
ATOM      3  C   UNL     1       1.941  13.566  18.059  0.00  0.00    +0.000 C 
ATOM      4  C   UNL     1       2.610  14.905  18.368  0.00  0.00    +0.000 C 
ATOM      5  C   UNL     1       1.476  15.672  18.967  0.00  0.00    +0.000 C 
ATOM      6  O   UNL     1       1.412  16.889  19.024  0.00  0.00    +0.000 OA
ATOM      7  N   UNL     1       0.541  14.766  19.468  0.00  0.00    +0.000 N 
ENDROOT
BRANCH   1  12
ATOM      8  N   UNL     1      -0.237  10.923  18.914  0.00  0.00    +0.000 N 
ATOM      9  N   UNL     1      -1.209  10.582  18.031  0.00  0.00    +0.000 NA
ATOM     10  N   UNL     1      -1.785  11.683  17.603  0.00  0.00    +0.000 NA
ATOM     11  N   UNL     1      -1.171  12.774  18.115  0.00  0.00    +0.000 NA
ATOM     12  C   UNL     1      -0.150  12.356  18.853  0.00  0.00    +0.000 A 
BRANCH   8  20
ATOM     13  C   UNL     1       2.174   9.403  17.836  0.00  0.00    +0.000 C 
ATOM     14  C   UNL     1       1.410   9.026  19.049  0.00  0.00    +0.000 A 
ATOM     15  C   UNL     1       1.899   7.867  19.649  0.00  0.00    +0.000 A 
ATOM     16  C   UNL     1       1.538   7.548  20.942  0.00  0.00    +0.000 A 
ATOM     17  C   UNL     1       0.732   8.432  21.649  0.00  0.00    +0.000 A 
ATOM     18  C   UNL     1       0.199   9.606  21.027  0.00  0.00    +0.000 A 
ATOM     19  C   UNL     1      -0.585  10.497  21.961  0.00  0.00    +0.000 C 
ATOM     20  C   UNL     1       0.439   9.858  19.649  0.00  0.00    +0.000 A 
ENDBRANCH   8  20
ENDBRANCH   1  12
BRANCH   7  21
ATOM     21  C   UNL     1      -0.753  15.337  19.908  0.00  0.00    +0.000 C 
BRANCH  21  22
ATOM     22  C   UNL     1      -1.315  14.738  21.188  0.00  0.00    +0.000 A 
ATOM     23  C   UNL     1      -0.592  14.650  22.386  0.00  0.00    +0.000 A 
ATOM     24  C   UNL     1      -1.143  14.002  23.500  0.00  0.00    +0.000 A 
ATOM     25  C   UNL     1      -2.418  13.470  23.394  0.00  0.00    +0.000 A 
ATOM     26  N   UNL     1      -3.164  13.559  22.271  0.00  0.00    +0.000 NA
ATOM     27  C   UNL     1      -2.604  14.200  21.214  0.00  0.00    +0.000 A 
ENDBRANCH  21  22
ENDBRANCH   7  21
TORSDOF 4
ENDMDL
