MODEL 1
REMARK VINA RESULT:      -8.1      0.000      0.000
REMARK  Name = 
REMARK  10 active torsions:
REMARK  status: ('A' for Active; 'I' for Inactive)
REMARK    1  A    between atoms: C_1  and  C_2
REMARK    2  A    between atoms: C_2  and  C_3
REMARK    3  A    between atoms: C_3  and  C_4
REMARK    4  A    between atoms: C_6  and  C_7
REMARK    5  A    between atoms: C_7  and  C_8
REMARK    6  A    between atoms: C_8  and  C_9
REMARK    7  A    between atoms: C_12  and  S_13
REMARK    8  A    between atoms: S_13  and  C_16
REMARK    9  A    between atoms: C_16  and  C_17
REMARK   10  A    between atoms: C_20  and  C_21
REMARK                            x       y       z     vdW  Elec       q    Type
REMARK                         _______ _______ _______ _____ _____    ______ ____
ROOT
ATOM      1  C   UNL     1       6.292   4.307  14.754  0.00  0.00    +0.000 A 
ATOM      2  C   UNL     1       7.329   4.648  15.781  0.00  0.00    +0.000 A 
ATOM      3  C   UNL     1       6.938   4.629  17.069  0.00  0.00    +0.000 A 
ATOM      4  N   UNL     1       5.599   4.323  17.357  0.00  0.00    +0.000 N 
ATOM      5  N   UNL     1       4.968   4.287  18.554  0.00  0.00    +0.000 NA
ATOM      6  C   UNL     1       3.711   3.949  18.221  0.00  0.00    +0.000 A 
ATOM      7  N   UNL     1       3.528   3.696  16.878  0.00  0.00    +0.000 NA
ATOM      8  C   UNL     1       4.696   3.980  16.341  0.00  0.00    +0.000 A 
ATOM      9  N   UNL     1       5.064   3.971  15.025  0.00  0.00    +0.000 NA
ENDROOT
BRANCH   6  10
ATOM     10  S   UNL     1       2.374   3.863  19.380  0.00  0.00    +0.000 S 
ATOM     11  O   UNL     1       1.188   4.228  18.623  0.00  0.00    +0.000 OA
ATOM     12  O   UNL     1       2.523   2.556  19.997  0.00  0.00    +0.000 OA
BRANCH  10  13
ATOM     13  C   UNL     1       2.766   5.159  20.547  0.00  0.00    +0.000 C 
BRANCH  13  14
ATOM     14  C   UNL     1       2.317   6.495  19.996  0.00  0.00    +0.000 A 
ATOM     15  C   UNL     1       2.695   6.893  18.706  0.00  0.00    +0.000 A 
ATOM     16  C   UNL     1       2.296   8.132  18.191  0.00  0.00    +0.000 A 
ATOM     17  C   UNL     1       1.511   9.001  18.954  0.00  0.00    +0.000 A 
ATOM     18  C   UNL     1       1.113  10.348  18.425  0.00  0.00    +0.000 C 
ATOM     19  C   UNL     1       1.125   8.607  20.239  0.00  0.00    +0.000 A 
ATOM     20  C   UNL     1       1.524   7.366  20.756  0.00  0.00    +0.000 A 
ENDBRANCH  13  14
ENDBRANCH  10  13
ENDBRANCH   6  10
BRANCH   1  21
ATOM     21  C   UNL     1       6.739   4.337  13.298  0.00  0.00    +0.000 C 
BRANCH  21  23
ATOM     22  C   UNL     1       6.694   2.471  11.601  0.00  0.00    +0.000 C 
ATOM     23  C   UNL     1       5.862   3.441  12.426  0.00  0.00    +0.000 C 
ENDBRANCH  21  23
ENDBRANCH   1  21
BRANCH   3  24
ATOM     24  C   UNL     1       7.890   4.926  18.201  0.00  0.00    +0.000 C 
BRANCH  24  25
ATOM     25  C   UNL     1       7.736   6.320  18.826  0.00  0.00    +0.000 C 
ATOM     26  C   UNL     1       7.701   7.448  17.806  0.00  0.00    +0.000 C 
ENDBRANCH  24  25
ENDBRANCH   3  24
TORSDOF 7
ENDMDL
MODEL 2
REMARK VINA RESULT:      -8.0      1.699      4.187
REMARK  Name = 
REMARK  10 active torsions:
REMARK  status: ('A' for Active; 'I' for Inactive)
REMARK    1  A    between atoms: C_1  and  C_2
REMARK    2  A    between atoms: C_2  and  C_3
REMARK    3  A    between atoms: C_3  and  C_4
REMARK    4  A    between atoms: C_6  and  C_7
REMARK    5  A    between atoms: C_7  and  C_8
REMARK    6  A    between atoms: C_8  and  C_9
REMARK    7  A    between atoms: C_12  and  S_13
REMARK    8  A    between atoms: S_13  and  C_16
REMARK    9  A    between atoms: C_16  and  C_17
REMARK   10  A    between atoms: C_20  and  C_21
REMARK                            x       y       z     vdW  Elec       q    Type
REMARK                         _______ _______ _______ _____ _____    ______ ____
ROOT
ATOM      1  C   UNL     1       7.571   6.833  18.186  0.00  0.00    +0.000 A 
ATOM      2  C   UNL     1       7.169   6.599  16.760  0.00  0.00    +0.000 A 
ATOM      3  C   UNL     1       6.275   5.619  16.535  0.00  0.00    +0.000 A 
ATOM      4  N   UNL     1       5.807   4.875  17.629  0.00  0.00    +0.000 N 
ATOM      5  N   UNL     1       4.952   3.826  17.647  0.00  0.00    +0.000 NA
ATOM      6  C   UNL     1       4.881   3.518  18.954  0.00  0.00    +0.000 A 
ATOM      7  N   UNL     1       5.591   4.367  19.776  0.00  0.00    +0.000 NA
ATOM      8  C   UNL     1       6.204   5.177  18.939  0.00  0.00    +0.000 A 
ATOM      9  N   UNL     1       7.097   6.178  19.206  0.00  0.00    +0.000 NA
ENDROOT
BRANCH   6  10
ATOM     10  S   UNL     1       3.989   2.127  19.592  0.00  0.00    +0.000 S 
ATOM     11  O   UNL     1       3.746   1.271  18.443  0.00  0.00    +0.000 OA
ATOM     12  O   UNL     1       4.783   1.687  20.727  0.00  0.00    +0.000 OA
BRANCH  10  13
ATOM     13  C   UNL     1       2.450   2.850  20.141  0.00  0.00    +0.000 C 
BRANCH  13  14
ATOM     14  C   UNL     1       2.318   4.252  19.587  0.00  0.00    +0.000 A 
ATOM     15  C   UNL     1       1.985   4.453  18.240  0.00  0.00    +0.000 A 
ATOM     16  C   UNL     1       1.872   5.745  17.713  0.00  0.00    +0.000 A 
ATOM     17  C   UNL     1       2.092   6.864  18.520  0.00  0.00    +0.000 A 
ATOM     18  C   UNL     1       2.013   8.252  17.954  0.00  0.00    +0.000 C 
ATOM     19  C   UNL     1       2.418   6.670  19.866  0.00  0.00    +0.000 A 
ATOM     20  C   UNL     1       2.531   5.377  20.395  0.00  0.00    +0.000 A 
ENDBRANCH  13  14
ENDBRANCH  10  13
ENDBRANCH   6  10
BRANCH   1  21
ATOM     21  C   UNL     1       8.590   7.938  18.433  0.00  0.00    +0.000 C 
BRANCH  21  23
ATOM     22  C   UNL     1       8.995  10.426  18.325  0.00  0.00    +0.000 C 
ATOM     23  C   UNL     1       8.112   9.274  17.868  0.00  0.00    +0.000 C 
ENDBRANCH  21  23
ENDBRANCH   1  21
BRANCH   3  24
ATOM     24  C   UNL     1       5.766   5.300  15.151  0.00  0.00    +0.000 C 
BRANCH  24  25
ATOM     25  C   UNL     1       6.482   4.136  14.451  0.00  0.00    +0.000 C 
ATOM     26  C   UNL     1       5.857   3.744  13.120  0.00  0.00    +0.000 C 
ENDBRANCH  24  25
ENDBRANCH   3  24
TORSDOF 7
ENDMDL
MODEL 3
REMARK VINA RESULT:      -7.9      3.361      5.418
REMARK  Name = 
REMARK  10 active torsions:
REMARK  status: ('A' for Active; 'I' for Inactive)
REMARK    1  A    between atoms: C_1  and  C_2
REMARK    2  A    between atoms: C_2  and  C_3
REMARK    3  A    between atoms: C_3  and  C_4
REMARK    4  A    between atoms: C_6  and  C_7
REMARK    5  A    between atoms: C_7  and  C_8
REMARK    6  A    between atoms: C_8  and  C_9
REMARK    7  A    between atoms: C_12  and  S_13
REMARK    8  A    between atoms: S_13  and  C_16
REMARK    9  A    between atoms: C_16  and  C_17
REMARK   10  A    between atoms: C_20  and  C_21
REMARK                            x       y       z     vdW  Elec       q    Type
REMARK                         _______ _______ _______ _____ _____    ______ ____
ROOT
ATOM      1  C   UNL     1       4.020   5.421  17.745  0.00  0.00    +0.000 A 
ATOM      2  C   UNL     1       3.735   4.405  18.811  0.00  0.00    +0.000 A 
ATOM      3  C   UNL     1       2.945   4.798  19.828  0.00  0.00    +0.000 A 
ATOM      4  N   UNL     1       2.472   6.119  19.837  0.00  0.00    +0.000 N 
ATOM      5  N   UNL     1       1.712   6.749  20.763  0.00  0.00    +0.000 NA
ATOM      6  C   UNL     1       1.582   7.986  20.254  0.00  0.00    +0.000 A 
ATOM      7  N   UNL     1       2.160   8.152  19.013  0.00  0.00    +0.000 NA
ATOM      8  C   UNL     1       2.754   7.001  18.785  0.00  0.00    +0.000 A 
ATOM      9  N   UNL     1       3.537   6.630  17.727  0.00  0.00    +0.000 NA
ENDROOT
BRANCH   6  10
ATOM     10  S   UNL     1       0.774   9.318  21.097  0.00  0.00    +0.000 S 
ATOM     11  O   UNL     1      -0.608   8.893  21.246  0.00  0.00    +0.000 OA
ATOM     12  O   UNL     1       1.627   9.583  22.242  0.00  0.00    +0.000 OA
BRANCH  10  13
ATOM     13  C   UNL     1       0.868  10.659  19.918  0.00  0.00    +0.000 C 
BRANCH  13  14
ATOM     14  C   UNL     1      -0.453  10.793  19.191  0.00  0.00    +0.000 A 
ATOM     15  C   UNL     1      -0.716  10.021  18.051  0.00  0.00    +0.000 A 
ATOM     16  C   UNL     1      -1.928  10.146  17.363  0.00  0.00    +0.000 A 
ATOM     17  C   UNL     1      -2.905  11.046  17.799  0.00  0.00    +0.000 A 
ATOM     18  C   UNL     1      -4.191  11.216  17.044  0.00  0.00    +0.000 C 
ATOM     19  C   UNL     1      -2.651  11.814  18.940  0.00  0.00    +0.000 A 
ATOM     20  C   UNL     1      -1.437  11.690  19.630  0.00  0.00    +0.000 A 
ENDBRANCH  13  14
ENDBRANCH  10  13
ENDBRANCH   6  10
BRANCH   1  21
ATOM     21  C   UNL     1       4.920   4.974  16.601  0.00  0.00    +0.000 C 
BRANCH  21  23
ATOM     22  C   UNL     1       7.349   4.617  17.185  0.00  0.00    +0.000 C 
ATOM     23  C   UNL     1       6.305   5.611  16.698  0.00  0.00    +0.000 C 
ENDBRANCH  21  23
ENDBRANCH   1  21
BRANCH   3  24
ATOM     24  C   UNL     1       2.559   3.865  20.949  0.00  0.00    +0.000 C 
BRANCH  24  25
ATOM     25  C   UNL     1       1.719   2.653  20.521  0.00  0.00    +0.000 C 
ATOM     26  C   UNL     1       0.659   2.979  19.480  0.00  0.00    +0.000 C 
ENDBRANCH  24  25
ENDBRANCH   3  24
TORSDOF 7
ENDMDL
MODEL 4
REMARK VINA RESULT:      -7.5      3.866      5.987
REMARK  Name = 
REMARK  10 active torsions:
REMARK  status: ('A' for Active; 'I' for Inactive)
REMARK    1  A    between atoms: C_1  and  C_2
REMARK    2  A    between atoms: C_2  and  C_3
REMARK    3  A    between atoms: C_3  and  C_4
REMARK    4  A    between atoms: C_6  and  C_7
REMARK    5  A    between atoms: C_7  and  C_8
REMARK    6  A    between atoms: C_8  and  C_9
REMARK    7  A    between atoms: C_12  and  S_13
REMARK    8  A    between atoms: S_13  and  C_16
REMARK    9  A    between atoms: C_16  and  C_17
REMARK   10  A    between atoms: C_20  and  C_21
REMARK                            x       y       z     vdW  Elec       q    Type
REMARK                         _______ _______ _______ _____ _____    ______ ____
ROOT
ATOM      1  C   UNL     1       3.919   6.115  17.669  0.00  0.00    +0.000 A 
ATOM      2  C   UNL     1       3.630   5.173  18.799  0.00  0.00    +0.000 A 
ATOM      3  C   UNL     1       2.803   5.616  19.763  0.00  0.00    +0.000 A 
ATOM      4  N   UNL     1       2.295   6.920  19.663  0.00  0.00    +0.000 N 
ATOM      5  N   UNL     1       1.493   7.595  20.519  0.00  0.00    +0.000 NA
ATOM      6  C   UNL     1       1.345   8.787  19.917  0.00  0.00    +0.000 A 
ATOM      7  N   UNL     1       1.954   8.879  18.683  0.00  0.00    +0.000 NA
ATOM      8  C   UNL     1       2.585   7.731  18.556  0.00  0.00    +0.000 A 
ATOM      9  N   UNL     1       3.407   7.307  17.549  0.00  0.00    +0.000 NA
ENDROOT
BRANCH   6  10
ATOM     10  S   UNL     1       0.479  10.155  20.638  0.00  0.00    +0.000 S 
ATOM     11  O   UNL     1      -0.794   9.610  21.078  0.00  0.00    +0.000 OA
ATOM     12  O   UNL     1       1.436  10.729  21.568  0.00  0.00    +0.000 OA
BRANCH  10  13
ATOM     13  C   UNL     1       0.219  11.247  19.247  0.00  0.00    +0.000 C 
BRANCH  13  14
ATOM     14  C   UNL     1      -1.235  11.203  18.829  0.00  0.00    +0.000 A 
ATOM     15  C   UNL     1      -2.159  12.102  19.380  0.00  0.00    +0.000 A 
ATOM     16  C   UNL     1      -3.508  12.062  19.010  0.00  0.00    +0.000 A 
ATOM     17  C   UNL     1      -3.964  11.121  18.082  0.00  0.00    +0.000 A 
ATOM     18  C   UNL     1      -5.416  11.045  17.710  0.00  0.00    +0.000 C 
ATOM     19  C   UNL     1      -3.046  10.226  17.524  0.00  0.00    +0.000 A 
ATOM     20  C   UNL     1      -1.695  10.265  17.894  0.00  0.00    +0.000 A 
ENDBRANCH  13  14
ENDBRANCH  10  13
ENDBRANCH   6  10
BRANCH   1  21
ATOM     21  C   UNL     1       4.863   5.611  16.586  0.00  0.00    +0.000 C 
BRANCH  21  23
ATOM     22  C   UNL     1       7.180   5.651  17.584  0.00  0.00    +0.000 C 
ATOM     23  C   UNL     1       6.000   4.781  17.178  0.00  0.00    +0.000 C 
ENDBRANCH  21  23
ENDBRANCH   1  21
BRANCH   3  24
ATOM     24  C   UNL     1       2.408   4.757  20.939  0.00  0.00    +0.000 C 
BRANCH  24  25
ATOM     25  C   UNL     1       2.161   3.278  20.606  0.00  0.00    +0.000 C 
ATOM     26  C   UNL     1       0.842   3.024  19.891  0.00  0.00    +0.000 C 
ENDBRANCH  24  25
ENDBRANCH   3  24
TORSDOF 7
ENDMDL
MODEL 5
REMARK VINA RESULT:      -7.4      3.908      6.146
REMARK  Name = 
REMARK  10 active torsions:
REMARK  status: ('A' for Active; 'I' for Inactive)
REMARK    1  A    between atoms: C_1  and  C_2
REMARK    2  A    between atoms: C_2  and  C_3
REMARK    3  A    between atoms: C_3  and  C_4
REMARK    4  A    between atoms: C_6  and  C_7
REMARK    5  A    between atoms: C_7  and  C_8
REMARK    6  A    between atoms: C_8  and  C_9
REMARK    7  A    between atoms: C_12  and  S_13
REMARK    8  A    between atoms: S_13  and  C_16
REMARK    9  A    between atoms: C_16  and  C_17
REMARK   10  A    between atoms: C_20  and  C_21
REMARK                            x       y       z     vdW  Elec       q    Type
REMARK                         _______ _______ _______ _____ _____    ______ ____
ROOT
ATOM      1  C   UNL     1       2.729   4.522  19.943  0.00  0.00    +0.000 A 
ATOM      2  C   UNL     1       3.398   5.063  18.715  0.00  0.00    +0.000 A 
ATOM      3  C   UNL     1       3.241   6.376  18.467  0.00  0.00    +0.000 A 
ATOM      4  N   UNL     1       2.450   7.134  19.344  0.00  0.00    +0.000 N 
ATOM      5  N   UNL     1       2.113   8.443  19.279  0.00  0.00    +0.000 NA
ATOM      6  C   UNL     1       1.343   8.610  20.368  0.00  0.00    +0.000 A 
ATOM      7  N   UNL     1       1.235   7.489  21.163  0.00  0.00    +0.000 NA
ATOM      8  C   UNL     1       1.885   6.562  20.493  0.00  0.00    +0.000 A 
ATOM      9  N   UNL     1       2.039   5.235  20.786  0.00  0.00    +0.000 NA
ENDROOT
BRANCH   6  10
ATOM     10  S   UNL     1       0.499  10.119  20.756  0.00  0.00    +0.000 S 
ATOM     11  O   UNL     1      -0.830   9.713  21.182  0.00  0.00    +0.000 OA
ATOM     12  O   UNL     1       1.413  10.819  21.642  0.00  0.00    +0.000 OA
BRANCH  10  13
ATOM     13  C   UNL     1       0.399  10.944  19.174  0.00  0.00    +0.000 C 
BRANCH  13  14
ATOM     14  C   UNL     1      -1.042  10.990  18.712  0.00  0.00    +0.000 A 
ATOM     15  C   UNL     1      -1.506  10.087  17.746  0.00  0.00    +0.000 A 
ATOM     16  C   UNL     1      -2.832  10.128  17.302  0.00  0.00    +0.000 A 
ATOM     17  C   UNL     1      -3.725  11.074  17.813  0.00  0.00    +0.000 A 
ATOM     18  C   UNL     1      -5.138  11.152  17.314  0.00  0.00    +0.000 C 
ATOM     19  C   UNL     1      -3.270  11.974  18.783  0.00  0.00    +0.000 A 
ATOM     20  C   UNL     1      -1.941  11.934  19.228  0.00  0.00    +0.000 A 
ENDBRANCH  13  14
ENDBRANCH  10  13
ENDBRANCH   6  10
BRANCH   1  21
ATOM     21  C   UNL     1       2.905   3.034  20.214  0.00  0.00    +0.000 C 
BRANCH  21  23
ATOM     22  C   UNL     1       0.937   2.394  18.769  0.00  0.00    +0.000 C 
ATOM     23  C   UNL     1       1.570   2.293  20.148  0.00  0.00    +0.000 C 
ENDBRANCH  21  23
ENDBRANCH   1  21
BRANCH   3  24
ATOM     24  C   UNL     1       3.884   7.051  17.281  0.00  0.00    +0.000 C 
BRANCH  24  25
ATOM     25  C   UNL     1       5.263   6.498  16.891  0.00  0.00    +0.000 C 
ATOM     26  C   UNL     1       5.324   5.951  15.473  0.00  0.00    +0.000 C 
ENDBRANCH  24  25
ENDBRANCH   3  24
TORSDOF 7
ENDMDL
MODEL 6
REMARK VINA RESULT:      -7.4      4.021      6.295
REMARK  Name = 
REMARK  10 active torsions:
REMARK  status: ('A' for Active; 'I' for Inactive)
REMARK    1  A    between atoms: C_1  and  C_2
REMARK    2  A    between atoms: C_2  and  C_3
REMARK    3  A    between atoms: C_3  and  C_4
REMARK    4  A    between atoms: C_6  and  C_7
REMARK    5  A    between atoms: C_7  and  C_8
REMARK    6  A    between atoms: C_8  and  C_9
REMARK    7  A    between atoms: C_12  and  S_13
REMARK    8  A    between atoms: S_13  and  C_16
REMARK    9  A    between atoms: C_16  and  C_17
REMARK   10  A    between atoms: C_20  and  C_21
REMARK                            x       y       z     vdW  Elec       q    Type
REMARK                         _______ _______ _______ _____ _____    ______ ____
ROOT
ATOM      1  C   UNL     1       2.725   4.677  19.951  0.00  0.00    +0.000 A 
ATOM      2  C   UNL     1       3.407   5.192  18.719  0.00  0.00    +0.000 A 
ATOM      3  C   UNL     1       3.237   6.496  18.432  0.00  0.00    +0.000 A 
ATOM      4  N   UNL     1       2.423   7.268  19.275  0.00  0.00    +0.000 N 
ATOM      5  N   UNL     1       2.071   8.570  19.167  0.00  0.00    +0.000 NA
ATOM      6  C   UNL     1       1.281   8.758  20.238  0.00  0.00    +0.000 A 
ATOM      7  N   UNL     1       1.173   7.658  21.063  0.00  0.00    +0.000 NA
ATOM      8  C   UNL     1       1.846   6.721  20.429  0.00  0.00    +0.000 A 
ATOM      9  N   UNL     1       2.012   5.405  20.762  0.00  0.00    +0.000 NA
ENDROOT
BRANCH   6  10
ATOM     10  S   UNL     1       0.412  10.265  20.569  0.00  0.00    +0.000 S 
ATOM     11  O   UNL     1      -0.865   9.854  21.127  0.00  0.00    +0.000 OA
ATOM     12  O   UNL     1       1.362  11.064  21.324  0.00  0.00    +0.000 OA
BRANCH  10  13
ATOM     13  C   UNL     1       0.163  10.955  18.939  0.00  0.00    +0.000 C 
BRANCH  13  14
ATOM     14  C   UNL     1      -1.316  10.992  18.621  0.00  0.00    +0.000 A 
ATOM     15  C   UNL     1      -2.130  12.003  19.150  0.00  0.00    +0.000 A 
ATOM     16  C   UNL     1      -3.502  12.040  18.873  0.00  0.00    +0.000 A 
ATOM     17  C   UNL     1      -4.090  11.066  18.061  0.00  0.00    +0.000 A 
ATOM     18  C   UNL     1      -5.566  11.075  17.792  0.00  0.00    +0.000 C 
ATOM     19  C   UNL     1      -3.282  10.058  17.525  0.00  0.00    +0.000 A 
ATOM     20  C   UNL     1      -1.908  10.021  17.802  0.00  0.00    +0.000 A 
ENDBRANCH  13  14
ENDBRANCH  10  13
ENDBRANCH   6  10
BRANCH   1  21
ATOM     21  C   UNL     1       2.914   3.200  20.267  0.00  0.00    +0.000 C 
BRANCH  21  23
ATOM     22  C   UNL     1       0.886   2.447  18.968  0.00  0.00    +0.000 C 
ATOM     23  C   UNL     1       1.576   2.465  20.323  0.00  0.00    +0.000 C 
ENDBRANCH  21  23
ENDBRANCH   1  21
BRANCH   3  24
ATOM     24  C   UNL     1       3.892   7.146  17.238  0.00  0.00    +0.000 C 
BRANCH  24  25
ATOM     25  C   UNL     1       5.114   6.399  16.684  0.00  0.00    +0.000 C 
ATOM     26  C   UNL     1       6.438   6.875  17.265  0.00  0.00    +0.000 C 
ENDBRANCH  24  25
ENDBRANCH   3  24
TORSDOF 7
ENDMDL
MODEL 7
REMARK VINA RESULT:      -7.4      4.044      5.959
REMARK  Name = 
REMARK  10 active torsions:
REMARK  status: ('A' for Active; 'I' for Inactive)
REMARK    1  A    between atoms: C_1  and  C_2
REMARK    2  A    between atoms: C_2  and  C_3
REMARK    3  A    between atoms: C_3  and  C_4
REMARK    4  A    between atoms: C_6  and  C_7
REMARK    5  A    between atoms: C_7  and  C_8
REMARK    6  A    between atoms: C_8  and  C_9
REMARK    7  A    between atoms: C_12  and  S_13
REMARK    8  A    between atoms: S_13  and  C_16
REMARK    9  A    between atoms: C_16  and  C_17
REMARK   10  A    between atoms: C_20  and  C_21
REMARK                            x       y       z     vdW  Elec       q    Type
REMARK                         _______ _______ _______ _____ _____    ______ ____
ROOT
ATOM      1  C   UNL     1       3.934   6.141  17.621  0.00  0.00    +0.000 A 
ATOM      2  C   UNL     1       3.666   4.897  18.414  0.00  0.00    +0.000 A 
ATOM      3  C   UNL     1       2.850   5.019  19.477  0.00  0.00    +0.000 A 
ATOM      4  N   UNL     1       2.335   6.288  19.784  0.00  0.00    +0.000 N 
ATOM      5  N   UNL     1       1.542   6.663  20.815  0.00  0.00    +0.000 NA
ATOM      6  C   UNL     1       1.380   7.980  20.606  0.00  0.00    +0.000 A 
ATOM      7  N   UNL     1       1.971   8.448  19.451  0.00  0.00    +0.000 NA
ATOM      8  C   UNL     1       2.605   7.398  18.973  0.00  0.00    +0.000 A 
ATOM      9  N   UNL     1       3.414   7.307  17.875  0.00  0.00    +0.000 NA
ENDROOT
BRANCH   6  10
ATOM     10  S   UNL     1       0.519   9.056  21.719  0.00  0.00    +0.000 S 
ATOM     11  O   UNL     1      -0.767   8.419  21.946  0.00  0.00    +0.000 OA
ATOM     12  O   UNL     1       1.467   9.285  22.796  0.00  0.00    +0.000 OA
BRANCH  10  13
ATOM     13  C   UNL     1       0.292  10.542  20.751  0.00  0.00    +0.000 C 
BRANCH  13  14
ATOM     14  C   UNL     1      -0.883  11.328  21.290  0.00  0.00    +0.000 A 
ATOM     15  C   UNL     1      -1.796  11.929  20.412  0.00  0.00    +0.000 A 
ATOM     16  C   UNL     1      -2.880  12.669  20.898  0.00  0.00    +0.000 A 
ATOM     17  C   UNL     1      -3.075  12.826  22.273  0.00  0.00    +0.000 A 
ATOM     18  C   UNL     1      -4.211  13.651  22.803  0.00  0.00    +0.000 C 
ATOM     19  C   UNL     1      -2.171  12.223  23.155  0.00  0.00    +0.000 A 
ATOM     20  C   UNL     1      -1.085  11.482  22.669  0.00  0.00    +0.000 A 
ENDBRANCH  13  14
ENDBRANCH  10  13
ENDBRANCH   6  10
BRANCH   1  21
ATOM     21  C   UNL     1       4.864   5.998  16.424  0.00  0.00    +0.000 C 
BRANCH  21  23
ATOM     22  C   UNL     1       7.079   6.854  17.278  0.00  0.00    +0.000 C 
ATOM     23  C   UNL     1       6.281   5.629  16.858  0.00  0.00    +0.000 C 
ENDBRANCH  21  23
ENDBRANCH   1  21
BRANCH   3  24
ATOM     24  C   UNL     1       2.477   3.840  20.341  0.00  0.00    +0.000 C 
BRANCH  24  25
ATOM     25  C   UNL     1       1.050   3.312  20.134  0.00  0.00    +0.000 C 
ATOM     26  C   UNL     1       0.887   2.462  18.883  0.00  0.00    +0.000 C 
ENDBRANCH  24  25
ENDBRANCH   3  24
TORSDOF 7
ENDMDL
MODEL 8
REMARK VINA RESULT:      -7.4      4.007      5.782
REMARK  Name = 
REMARK  10 active torsions:
REMARK  status: ('A' for Active; 'I' for Inactive)
REMARK    1  A    between atoms: C_1  and  C_2
REMARK    2  A    between atoms: C_2  and  C_3
REMARK    3  A    between atoms: C_3  and  C_4
REMARK    4  A    between atoms: C_6  and  C_7
REMARK    5  A    between atoms: C_7  and  C_8
REMARK    6  A    between atoms: C_8  and  C_9
REMARK    7  A    between atoms: C_12  and  S_13
REMARK    8  A    between atoms: S_13  and  C_16
REMARK    9  A    between atoms: C_16  and  C_17
REMARK   10  A    between atoms: C_20  and  C_21
REMARK                            x       y       z     vdW  Elec       q    Type
REMARK                         _______ _______ _______ _____ _____    ______ ____
ROOT
ATOM      1  C   UNL     1       3.955   6.210  17.534  0.00  0.00    +0.000 A 
ATOM      2  C   UNL     1       3.732   4.952  18.319  0.00  0.00    +0.000 A 
ATOM      3  C   UNL     1       2.915   5.040  19.386  0.00  0.00    +0.000 A 
ATOM      4  N   UNL     1       2.358   6.288  19.702  0.00  0.00    +0.000 N 
ATOM      5  N   UNL     1       1.556   6.629  20.737  0.00  0.00    +0.000 NA
ATOM      6  C   UNL     1       1.348   7.942  20.538  0.00  0.00    +0.000 A 
ATOM      7  N   UNL     1       1.919   8.437  19.384  0.00  0.00    +0.000 NA
ATOM      8  C   UNL     1       2.587   7.412  18.897  0.00  0.00    +0.000 A 
ATOM      9  N   UNL     1       3.396   7.356  17.797  0.00  0.00    +0.000 NA
ENDROOT
BRANCH   6  10
ATOM     10  S   UNL     1       0.453   8.980  21.660  0.00  0.00    +0.000 S 
ATOM     11  O   UNL     1      -0.676   8.179  22.103  0.00  0.00    +0.000 OA
ATOM     12  O   UNL     1       1.467   9.461  22.583  0.00  0.00    +0.000 OA
BRANCH  10  13
ATOM     13  C   UNL     1      -0.124  10.306  20.610  0.00  0.00    +0.000 C 
BRANCH  13  14
ATOM     14  C   UNL     1      -0.377  11.544  21.444  0.00  0.00    +0.000 A 
ATOM     15  C   UNL     1      -1.356  11.535  22.447  0.00  0.00    +0.000 A 
ATOM     16  C   UNL     1      -1.608  12.677  23.216  0.00  0.00    +0.000 A 
ATOM     17  C   UNL     1      -0.887  13.855  22.997  0.00  0.00    +0.000 A 
ATOM     18  C   UNL     1      -1.178  15.096  23.789  0.00  0.00    +0.000 C 
ATOM     19  C   UNL     1       0.095  13.868  22.002  0.00  0.00    +0.000 A 
ATOM     20  C   UNL     1       0.348  12.725  21.231  0.00  0.00    +0.000 A 
ENDBRANCH  13  14
ENDBRANCH  10  13
ENDBRANCH   6  10
BRANCH   1  21
ATOM     21  C   UNL     1       4.886   6.107  16.333  0.00  0.00    +0.000 C 
BRANCH  21  23
ATOM     22  C   UNL     1       6.134   4.496  14.845  0.00  0.00    +0.000 C 
ATOM     23  C   UNL     1       5.468   4.701  16.197  0.00  0.00    +0.000 C 
ENDBRANCH  21  23
ENDBRANCH   1  21
BRANCH   3  24
ATOM     24  C   UNL     1       2.586   3.843  20.243  0.00  0.00    +0.000 C 
BRANCH  24  25
ATOM     25  C   UNL     1       2.233   2.567  19.465  0.00  0.00    +0.000 C 
ATOM     26  C   UNL     1       0.809   2.551  18.929  0.00  0.00    +0.000 C 
ENDBRANCH  24  25
ENDBRANCH   3  24
TORSDOF 7
ENDMDL
MODEL 9
REMARK VINA RESULT:      -7.4      4.087      5.914
REMARK  Name = 
REMARK  10 active torsions:
REMARK  status: ('A' for Active; 'I' for Inactive)
REMARK    1  A    between atoms: C_1  and  C_2
REMARK    2  A    between atoms: C_2  and  C_3
REMARK    3  A    between atoms: C_3  and  C_4
REMARK    4  A    between atoms: C_6  and  C_7
REMARK    5  A    between atoms: C_7  and  C_8
REMARK    6  A    between atoms: C_8  and  C_9
REMARK    7  A    between atoms: C_12  and  S_13
REMARK    8  A    between atoms: S_13  and  C_16
REMARK    9  A    between atoms: C_16  and  C_17
REMARK   10  A    between atoms: C_20  and  C_21
REMARK                            x       y       z     vdW  Elec       q    Type
REMARK                         _______ _______ _______ _____ _____    ______ ____
ROOT
ATOM      1  C   UNL     1       4.472   5.989  17.726  0.00  0.00    +0.000 A 
ATOM      2  C   UNL     1       3.940   5.242  18.913  0.00  0.00    +0.000 A 
ATOM      3  C   UNL     1       2.954   5.836  19.611  0.00  0.00    +0.000 A 
ATOM      4  N   UNL     1       2.517   7.106  19.206  0.00  0.00    +0.000 N 
ATOM      5  N   UNL     1       1.585   7.910  19.768  0.00  0.00    +0.000 NA
ATOM      6  C   UNL     1       1.595   8.989  18.966  0.00  0.00    +0.000 A 
ATOM      7  N   UNL     1       2.435   8.879  17.878  0.00  0.00    +0.000 NA
ATOM      8  C   UNL     1       3.042   7.726  18.063  0.00  0.00    +0.000 A 
ATOM      9  N   UNL     1       4.030   7.144  17.319  0.00  0.00    +0.000 NA
ENDROOT
BRANCH   6  10
ATOM     10  S   UNL     1       0.649  10.454  19.274  0.00  0.00    +0.000 S 
ATOM     11  O   UNL     1       1.294  11.496  18.493  0.00  0.00    +0.000 OA
ATOM     12  O   UNL     1      -0.725  10.048  19.031  0.00  0.00    +0.000 OA
BRANCH  10  13
ATOM     13  C   UNL     1       0.919  10.752  21.016  0.00  0.00    +0.000 C 
BRANCH  13  14
ATOM     14  C   UNL     1      -0.306  11.404  21.619  0.00  0.00    +0.000 A 
ATOM     15  C   UNL     1      -0.917  10.851  22.753  0.00  0.00    +0.000 A 
ATOM     16  C   UNL     1      -2.059  11.437  23.311  0.00  0.00    +0.000 A 
ATOM     17  C   UNL     1      -2.615  12.589  22.748  0.00  0.00    +0.000 A 
ATOM     18  C   UNL     1      -3.862  13.202  23.317  0.00  0.00    +0.000 C 
ATOM     19  C   UNL     1      -2.006  13.149  21.621  0.00  0.00    +0.000 A 
ATOM     20  C   UNL     1      -0.863  12.563  21.060  0.00  0.00    +0.000 A 
ENDBRANCH  13  14
ENDBRANCH  10  13
ENDBRANCH   6  10
BRANCH   1  21
ATOM     21  C   UNL     1       5.592   5.315  16.945  0.00  0.00    +0.000 C 
BRANCH  21  23
ATOM     22  C   UNL     1       5.938   4.060  14.784  0.00  0.00    +0.000 C 
ATOM     23  C   UNL     1       5.050   4.240  16.005  0.00  0.00    +0.000 C 
ENDBRANCH  21  23
ENDBRANCH   1  21
BRANCH   3  24
ATOM     24  C   UNL     1       2.312   5.179  20.808  0.00  0.00    +0.000 C 
BRANCH  24  25
ATOM     25  C   UNL     1       1.207   4.167  20.475  0.00  0.00    +0.000 C 
ATOM     26  C   UNL     1       1.358   2.836  21.197  0.00  0.00    +0.000 C 
ENDBRANCH  24  25
ENDBRANCH   3  24
TORSDOF 7
ENDMDL
