MODEL 1
REMARK VINA RESULT:      -6.6      0.000      0.000
REMARK  Name = 
REMARK  9 active torsions:
REMARK  status: ('A' for Active; 'I' for Inactive)
REMARK    1  A    between atoms: C_1  and  N_2
REMARK    2  A    between atoms: N_2  and  C_3
REMARK    3  A    between atoms: N_2  and  C_9
REMARK    4  A    between atoms: C_3  and  C_4
REMARK    5  A    between atoms: C_4  and  S_5
REMARK    6  A    between atoms: S_5  and  N_6
REMARK    7  A    between atoms: C_9  and  C_10
REMARK    8  A    between atoms: C_14  and  O_15
REMARK    9  A    between atoms: O_15  and  C_16
REMARK                            x       y       z     vdW  Elec       q    Type
REMARK                         _______ _______ _______ _____ _____    ______ ____
ROOT
ATOM      1  C   UNL     1       5.872   5.281  18.895  0.00  0.00    +0.000 C 
ENDROOT
BRANCH   1   2
ATOM      2  C   UNL     1       4.434   5.455  18.462  0.00  0.00    +0.000 A 
ATOM      3  C   UNL     1       3.815   6.712  18.475  0.00  0.00    +0.000 A 
ATOM      4  C   UNL     1       2.456   6.821  18.185  0.00  0.00    +0.000 A 
ATOM      5  C   UNL     1       1.708   5.666  17.926  0.00  0.00    +0.000 A 
ATOM      6  C   UNL     1       2.319   4.411  17.917  0.00  0.00    +0.000 A 
ATOM      7  C   UNL     1       3.696   4.326  18.097  0.00  0.00    +0.000 A 
BRANCH   6   8
ATOM      8  O   UNL     1       1.495   3.348  17.712  0.00  0.00    +0.000 OA
BRANCH   8   9
ATOM      9  C   UNL     1       1.096   2.560  18.831  0.00  0.00    +0.000 C 
ATOM     10  F   UNL     1       0.122   1.658  18.574  0.00  0.00    +0.000 F 
ATOM     11  F   UNL     1       2.168   1.875  19.285  0.00  0.00    +0.000 F 
ATOM     12  F   UNL     1       0.669   3.379  19.817  0.00  0.00    +0.000 F 
ENDBRANCH   8   9
ENDBRANCH   6   8
ENDBRANCH   1   2
BRANCH   1  14
ATOM     13  C   UNL     1       7.846   6.645  18.473  0.00  0.00    +0.000 C 
ATOM     14  N   UNL     1       6.850   5.734  17.884  0.00  0.00    +0.000 NA
BRANCH  14  15
ATOM     15  C   UNL     1       7.553   4.595  17.250  0.00  0.00    +0.000 C 
BRANCH  15  16
ATOM     16  C   UNL     1       6.708   3.929  16.175  0.00  0.00    +0.000 C 
BRANCH  16  17
ATOM     17  S   UNL     1       6.672   4.867  14.668  0.00  0.00    +0.000 S 
ATOM     18  O   UNL     1       7.925   5.563  14.479  0.00  0.00    +0.000 OA
ATOM     19  O   UNL     1       6.041   4.091  13.631  0.00  0.00    +0.000 OA
BRANCH  17  20
ATOM     20  N   UNL     1       5.554   6.043  15.096  0.00  0.00    +0.000 NA
ATOM     21  H   UNL     1       5.968   6.975  15.069  0.00  0.00    +0.000 HD
ATOM     22  H   UNL     1       4.685   5.941  14.569  0.00  0.00    +0.000 HD
ENDBRANCH  17  20
ENDBRANCH  16  17
ENDBRANCH  15  16
ENDBRANCH  14  15
ENDBRANCH   1  14
TORSDOF 8
ENDMDL
MODEL 2
REMARK VINA RESULT:      -6.5      3.821      5.889
REMARK  Name = 
REMARK  9 active torsions:
REMARK  status: ('A' for Active; 'I' for Inactive)
REMARK    1  A    between atoms: C_1  and  N_2
REMARK    2  A    between atoms: N_2  and  C_3
REMARK    3  A    between atoms: N_2  and  C_9
REMARK    4  A    between atoms: C_3  and  C_4
REMARK    5  A    between atoms: C_4  and  S_5
REMARK    6  A    between atoms: S_5  and  N_6
REMARK    7  A    between atoms: C_9  and  C_10
REMARK    8  A    between atoms: C_14  and  O_15
REMARK    9  A    between atoms: O_15  and  C_16
REMARK                            x       y       z     vdW  Elec       q    Type
REMARK                         _______ _______ _______ _____ _____    ______ ____
ROOT
ATOM      1  C   UNL     1       3.674   5.904  18.691  0.00  0.00    +0.000 C 
ENDROOT
BRANCH   1   2
ATOM      2  C   UNL     1       4.987   5.333  18.206  0.00  0.00    +0.000 A 
ATOM      3  C   UNL     1       6.200   5.663  18.825  0.00  0.00    +0.000 A 
ATOM      4  C   UNL     1       7.403   5.215  18.282  0.00  0.00    +0.000 A 
ATOM      5  C   UNL     1       7.394   4.475  17.095  0.00  0.00    +0.000 A 
ATOM      6  C   UNL     1       6.189   4.149  16.470  0.00  0.00    +0.000 A 
ATOM      7  C   UNL     1       4.990   4.505  17.081  0.00  0.00    +0.000 A 
BRANCH   6   8
ATOM      8  O   UNL     1       6.290   3.477  15.291  0.00  0.00    +0.000 OA
BRANCH   8   9
ATOM      9  C   UNL     1       6.033   4.176  14.075  0.00  0.00    +0.000 C 
ATOM     10  F   UNL     1       4.743   4.168  13.675  0.00  0.00    +0.000 F 
ATOM     11  F   UNL     1       6.397   5.467  14.232  0.00  0.00    +0.000 F 
ATOM     12  F   UNL     1       6.788   3.640  13.091  0.00  0.00    +0.000 F 
ENDBRANCH   8   9
ENDBRANCH   6   8
ENDBRANCH   1   2
BRANCH   1  14
ATOM     13  C   UNL     1       1.971   5.964  20.432  0.00  0.00    +0.000 C 
ATOM     14  N   UNL     1       3.270   5.404  20.021  0.00  0.00    +0.000 NA
BRANCH  14  15
ATOM     15  C   UNL     1       3.189   3.925  20.050  0.00  0.00    +0.000 C 
BRANCH  15  16
ATOM     16  C   UNL     1       1.753   3.431  19.984  0.00  0.00    +0.000 C 
BRANCH  16  17
ATOM     17  S   UNL     1       1.339   2.772  18.388  0.00  0.00    +0.000 S 
ATOM     18  O   UNL     1       0.172   1.924  18.481  0.00  0.00    +0.000 OA
ATOM     19  O   UNL     1       1.484   3.800  17.388  0.00  0.00    +0.000 OA
BRANCH  17  20
ATOM     20  N   UNL     1       2.641   1.738  18.165  0.00  0.00    +0.000 NA
ATOM     21  H   UNL     1       3.524   2.249  18.164  0.00  0.00    +0.000 HD
ATOM     22  H   UNL     1       2.603   0.945  18.808  0.00  0.00    +0.000 HD
ENDBRANCH  17  20
ENDBRANCH  16  17
ENDBRANCH  15  16
ENDBRANCH  14  15
ENDBRANCH   1  14
TORSDOF 8
ENDMDL
MODEL 3
REMARK VINA RESULT:      -6.3      4.329      6.355
REMARK  Name = 
REMARK  9 active torsions:
REMARK  status: ('A' for Active; 'I' for Inactive)
REMARK    1  A    between atoms: C_1  and  N_2
REMARK    2  A    between atoms: N_2  and  C_3
REMARK    3  A    between atoms: N_2  and  C_9
REMARK    4  A    between atoms: C_3  and  C_4
REMARK    5  A    between atoms: C_4  and  S_5
REMARK    6  A    between atoms: S_5  and  N_6
REMARK    7  A    between atoms: C_9  and  C_10
REMARK    8  A    between atoms: C_14  and  O_15
REMARK    9  A    between atoms: O_15  and  C_16
REMARK                            x       y       z     vdW  Elec       q    Type
REMARK                         _______ _______ _______ _____ _____    ______ ____
ROOT
ATOM      1  C   UNL     1       3.745   6.415  18.023  0.00  0.00    +0.000 C 
ENDROOT
BRANCH   1   2
ATOM      2  C   UNL     1       5.015   5.662  17.698  0.00  0.00    +0.000 A 
ATOM      3  C   UNL     1       6.208   5.911  18.389  0.00  0.00    +0.000 A 
ATOM      4  C   UNL     1       7.389   5.287  17.988  0.00  0.00    +0.000 A 
ATOM      5  C   UNL     1       7.382   4.449  16.867  0.00  0.00    +0.000 A 
ATOM      6  C   UNL     1       6.197   4.203  16.170  0.00  0.00    +0.000 A 
ATOM      7  C   UNL     1       5.006   4.741  16.648  0.00  0.00    +0.000 A 
BRANCH   6   8
ATOM      8  O   UNL     1       6.308   3.422  15.062  0.00  0.00    +0.000 OA
BRANCH   8   9
ATOM      9  C   UNL     1       6.191   4.028  13.777  0.00  0.00    +0.000 C 
ATOM     10  F   UNL     1       6.743   3.326  12.763  0.00  0.00    +0.000 F 
ATOM     11  F   UNL     1       4.881   4.187  13.489  0.00  0.00    +0.000 F 
ATOM     12  F   UNL     1       6.767   5.250  13.812  0.00  0.00    +0.000 F 
ENDBRANCH   8   9
ENDBRANCH   6   8
ENDBRANCH   1   2
BRANCH   1  14
ATOM     13  C   UNL     1       2.254   7.185  19.789  0.00  0.00    +0.000 C 
ATOM     14  N   UNL     1       3.256   6.179  19.397  0.00  0.00    +0.000 NA
BRANCH  14  15
ATOM     15  C   UNL     1       2.667   4.828  19.546  0.00  0.00    +0.000 C 
BRANCH  15  16
ATOM     16  C   UNL     1       2.233   4.549  20.976  0.00  0.00    +0.000 C 
BRANCH  16  17
ATOM     17  S   UNL     1       2.231   2.814  21.355  0.00  0.00    +0.000 S 
ATOM     18  O   UNL     1       3.586   2.320  21.453  0.00  0.00    +0.000 OA
ATOM     19  O   UNL     1       1.221   2.536  22.344  0.00  0.00    +0.000 OA
BRANCH  17  20
ATOM     20  N   UNL     1       1.626   2.213  19.910  0.00  0.00    +0.000 NA
ATOM     21  H   UNL     1       2.376   1.865  19.310  0.00  0.00    +0.000 HD
ATOM     22  H   UNL     1       0.862   1.554  20.070  0.00  0.00    +0.000 HD
ENDBRANCH  17  20
ENDBRANCH  16  17
ENDBRANCH  15  16
ENDBRANCH  14  15
ENDBRANCH   1  14
TORSDOF 8
ENDMDL
MODEL 4
REMARK VINA RESULT:      -6.3      0.989      1.432
REMARK  Name = 
REMARK  9 active torsions:
REMARK  status: ('A' for Active; 'I' for Inactive)
REMARK    1  A    between atoms: C_1  and  N_2
REMARK    2  A    between atoms: N_2  and  C_3
REMARK    3  A    between atoms: N_2  and  C_9
REMARK    4  A    between atoms: C_3  and  C_4
REMARK    5  A    between atoms: C_4  and  S_5
REMARK    6  A    between atoms: S_5  and  N_6
REMARK    7  A    between atoms: C_9  and  C_10
REMARK    8  A    between atoms: C_14  and  O_15
REMARK    9  A    between atoms: O_15  and  C_16
REMARK                            x       y       z     vdW  Elec       q    Type
REMARK                         _______ _______ _______ _____ _____    ______ ____
ROOT
ATOM      1  C   UNL     1       5.980   4.699  18.814  0.00  0.00    +0.000 C 
ENDROOT
BRANCH   1   2
ATOM      2  C   UNL     1       4.558   5.021  18.415  0.00  0.00    +0.000 A 
ATOM      3  C   UNL     1       4.068   6.333  18.454  0.00  0.00    +0.000 A 
ATOM      4  C   UNL     1       2.721   6.581  18.195  0.00  0.00    +0.000 A 
ATOM      5  C   UNL     1       1.856   5.510  17.942  0.00  0.00    +0.000 A 
ATOM      6  C   UNL     1       2.337   4.200  17.909  0.00  0.00    +0.000 A 
ATOM      7  C   UNL     1       3.703   3.976  18.058  0.00  0.00    +0.000 A 
BRANCH   6   8
ATOM      8  O   UNL     1       1.407   3.227  17.714  0.00  0.00    +0.000 OA
BRANCH   8   9
ATOM      9  C   UNL     1       0.935   2.489  18.839  0.00  0.00    +0.000 C 
ATOM     10  F   UNL     1       0.478   3.243  19.863  0.00  0.00    +0.000 F 
ATOM     11  F   UNL     1      -0.082   1.693  18.440  0.00  0.00    +0.000 F 
ATOM     12  F   UNL     1       1.931   1.702  19.300  0.00  0.00    +0.000 F 
ENDBRANCH   8   9
ENDBRANCH   6   8
ENDBRANCH   1   2
BRANCH   1  14
ATOM     13  C   UNL     1       7.998   5.742  19.696  0.00  0.00    +0.000 C 
ATOM     14  N   UNL     1       6.891   5.861  18.732  0.00  0.00    +0.000 NA
BRANCH  14  15
ATOM     15  C   UNL     1       7.452   6.024  17.371  0.00  0.00    +0.000 C 
BRANCH  15  16
ATOM     16  C   UNL     1       7.323   4.753  16.545  0.00  0.00    +0.000 C 
BRANCH  16  17
ATOM     17  S   UNL     1       6.699   5.070  14.913  0.00  0.00    +0.000 S 
ATOM     18  O   UNL     1       5.470   5.828  14.983  0.00  0.00    +0.000 OA
ATOM     19  O   UNL     1       7.789   5.422  14.038  0.00  0.00    +0.000 OA
BRANCH  17  20
ATOM     20  N   UNL     1       6.254   3.513  14.476  0.00  0.00    +0.000 NA
ATOM     21  H   UNL     1       6.033   2.946  15.296  0.00  0.00    +0.000 HD
ATOM     22  H   UNL     1       5.534   3.519  13.750  0.00  0.00    +0.000 HD
ENDBRANCH  17  20
ENDBRANCH  16  17
ENDBRANCH  15  16
ENDBRANCH  14  15
ENDBRANCH   1  14
TORSDOF 8
ENDMDL
MODEL 5
REMARK VINA RESULT:      -6.3      4.083      6.315
REMARK  Name = 
REMARK  9 active torsions:
REMARK  status: ('A' for Active; 'I' for Inactive)
REMARK    1  A    between atoms: C_1  and  N_2
REMARK    2  A    between atoms: N_2  and  C_3
REMARK    3  A    between atoms: N_2  and  C_9
REMARK    4  A    between atoms: C_3  and  C_4
REMARK    5  A    between atoms: C_4  and  S_5
REMARK    6  A    between atoms: S_5  and  N_6
REMARK    7  A    between atoms: C_9  and  C_10
REMARK    8  A    between atoms: C_14  and  O_15
REMARK    9  A    between atoms: O_15  and  C_16
REMARK                            x       y       z     vdW  Elec       q    Type
REMARK                         _______ _______ _______ _____ _____    ______ ____
ROOT
ATOM      1  C   UNL     1       2.196   5.784  18.405  0.00  0.00    +0.000 C 
ENDROOT
BRANCH   1   2
ATOM      2  C   UNL     1       3.446   5.307  17.700  0.00  0.00    +0.000 A 
ATOM      3  C   UNL     1       3.480   4.078  17.027  0.00  0.00    +0.000 A 
ATOM      4  C   UNL     1       4.680   3.612  16.491  0.00  0.00    +0.000 A 
ATOM      5  C   UNL     1       5.852   4.355  16.668  0.00  0.00    +0.000 A 
ATOM      6  C   UNL     1       5.825   5.576  17.343  0.00  0.00    +0.000 A 
ATOM      7  C   UNL     1       4.604   6.085  17.775  0.00  0.00    +0.000 A 
BRANCH   6   8
ATOM      8  O   UNL     1       7.026   6.192  17.512  0.00  0.00    +0.000 OA
BRANCH   8   9
ATOM      9  C   UNL     1       7.753   5.966  18.718  0.00  0.00    +0.000 C 
ATOM     10  F   UNL     1       6.989   5.796  19.820  0.00  0.00    +0.000 F 
ATOM     11  F   UNL     1       8.501   4.851  18.572  0.00  0.00    +0.000 F 
ATOM     12  F   UNL     1       8.585   7.008  18.933  0.00  0.00    +0.000 F 
ENDBRANCH   8   9
ENDBRANCH   6   8
ENDBRANCH   1   2
BRANCH   1  14
ATOM     13  C   UNL     1       1.945   7.681  19.914  0.00  0.00    +0.000 C 
ATOM     14  N   UNL     1       2.450   6.305  19.764  0.00  0.00    +0.000 NA
BRANCH  14  15
ATOM     15  C   UNL     1       1.834   5.448  20.804  0.00  0.00    +0.000 C 
BRANCH  15  16
ATOM     16  C   UNL     1       1.063   4.284  20.201  0.00  0.00    +0.000 C 
BRANCH  16  17
ATOM     17  S   UNL     1       1.785   2.714  20.610  0.00  0.00    +0.000 S 
ATOM     18  O   UNL     1       1.521   2.384  21.992  0.00  0.00    +0.000 OA
ATOM     19  O   UNL     1       1.572   1.787  19.527  0.00  0.00    +0.000 OA
BRANCH  17  20
ATOM     20  N   UNL     1       3.410   3.126  20.539  0.00  0.00    +0.000 NA
ATOM     21  H   UNL     1       3.594   3.995  21.041  0.00  0.00    +0.000 HD
ATOM     22  H   UNL     1       4.007   2.340  20.804  0.00  0.00    +0.000 HD
ENDBRANCH  17  20
ENDBRANCH  16  17
ENDBRANCH  15  16
ENDBRANCH  14  15
ENDBRANCH   1  14
TORSDOF 8
ENDMDL
MODEL 6
REMARK VINA RESULT:      -6.2      2.102      2.570
REMARK  Name = 
REMARK  9 active torsions:
REMARK  status: ('A' for Active; 'I' for Inactive)
REMARK    1  A    between atoms: C_1  and  N_2
REMARK    2  A    between atoms: N_2  and  C_3
REMARK    3  A    between atoms: N_2  and  C_9
REMARK    4  A    between atoms: C_3  and  C_4
REMARK    5  A    between atoms: C_4  and  S_5
REMARK    6  A    between atoms: S_5  and  N_6
REMARK    7  A    between atoms: C_9  and  C_10
REMARK    8  A    between atoms: C_14  and  O_15
REMARK    9  A    between atoms: O_15  and  C_16
REMARK                            x       y       z     vdW  Elec       q    Type
REMARK                         _______ _______ _______ _____ _____    ______ ____
ROOT
ATOM      1  C   UNL     1       5.041   4.077  16.383  0.00  0.00    +0.000 C 
ENDROOT
BRANCH   1   2
ATOM      2  C   UNL     1       4.166   4.712  17.441  0.00  0.00    +0.000 A 
ATOM      3  C   UNL     1       3.902   6.088  17.439  0.00  0.00    +0.000 A 
ATOM      4  C   UNL     1       3.191   6.661  18.493  0.00  0.00    +0.000 A 
ATOM      5  C   UNL     1       2.785   5.864  19.569  0.00  0.00    +0.000 A 
ATOM      6  C   UNL     1       3.052   4.494  19.578  0.00  0.00    +0.000 A 
ATOM      7  C   UNL     1       3.662   3.914  18.470  0.00  0.00    +0.000 A 
BRANCH   6   8
ATOM      8  O   UNL     1       2.667   3.819  20.695  0.00  0.00    +0.000 OA
BRANCH   8   9
ATOM      9  C   UNL     1       1.495   3.009  20.641  0.00  0.00    +0.000 C 
ATOM     10  F   UNL     1       1.623   1.867  19.929  0.00  0.00    +0.000 F 
ATOM     11  F   UNL     1       1.148   2.661  21.899  0.00  0.00    +0.000 F 
ATOM     12  F   UNL     1       0.484   3.731  20.109  0.00  0.00    +0.000 F 
ENDBRANCH   8   9
ENDBRANCH   6   8
ENDBRANCH   1   2
BRANCH   1  14
ATOM     13  C   UNL     1       7.337   4.618  16.994  0.00  0.00    +0.000 C 
ATOM     14  N   UNL     1       6.236   4.880  16.050  0.00  0.00    +0.000 NA
BRANCH  14  15
ATOM     15  C   UNL     1       6.709   4.615  14.671  0.00  0.00    +0.000 C 
BRANCH  15  16
ATOM     16  C   UNL     1       5.957   3.464  14.022  0.00  0.00    +0.000 C 
BRANCH  16  17
ATOM     17  S   UNL     1       6.003   3.544  12.248  0.00  0.00    +0.000 S 
ATOM     18  O   UNL     1       4.680   3.791  11.721  0.00  0.00    +0.000 OA
ATOM     19  O   UNL     1       7.166   4.284  11.828  0.00  0.00    +0.000 OA
BRANCH  17  20
ATOM     20  N   UNL     1       6.341   1.937  11.904  0.00  0.00    +0.000 NA
ATOM     21  H   UNL     1       7.243   1.657  12.293  0.00  0.00    +0.000 HD
ATOM     22  H   UNL     1       5.558   1.329  12.150  0.00  0.00    +0.000 HD
ENDBRANCH  17  20
ENDBRANCH  16  17
ENDBRANCH  15  16
ENDBRANCH  14  15
ENDBRANCH   1  14
TORSDOF 8
ENDMDL
MODEL 7
REMARK VINA RESULT:      -6.2      3.412      4.315
REMARK  Name = 
REMARK  9 active torsions:
REMARK  status: ('A' for Active; 'I' for Inactive)
REMARK    1  A    between atoms: C_1  and  N_2
REMARK    2  A    between atoms: N_2  and  C_3
REMARK    3  A    between atoms: N_2  and  C_9
REMARK    4  A    between atoms: C_3  and  C_4
REMARK    5  A    between atoms: C_4  and  S_5
REMARK    6  A    between atoms: S_5  and  N_6
REMARK    7  A    between atoms: C_9  and  C_10
REMARK    8  A    between atoms: C_14  and  O_15
REMARK    9  A    between atoms: O_15  and  C_16
REMARK                            x       y       z     vdW  Elec       q    Type
REMARK                         _______ _______ _______ _____ _____    ______ ____
ROOT
ATOM      1  C   UNL     1       3.050   5.316  18.756  0.00  0.00    +0.000 C 
ENDROOT
BRANCH   1   2
ATOM      2  C   UNL     1       2.410   6.677  18.908  0.00  0.00    +0.000 A 
ATOM      3  C   UNL     1       2.325   7.568  17.830  0.00  0.00    +0.000 A 
ATOM      4  C   UNL     1       1.837   8.859  18.031  0.00  0.00    +0.000 A 
ATOM      5  C   UNL     1       1.478   9.270  19.319  0.00  0.00    +0.000 A 
ATOM      6  C   UNL     1       1.566   8.388  20.398  0.00  0.00    +0.000 A 
ATOM      7  C   UNL     1       1.947   7.070  20.166  0.00  0.00    +0.000 A 
BRANCH   6   8
ATOM      8  O   UNL     1       1.248   8.902  21.617  0.00  0.00    +0.000 OA
BRANCH   8   9
ATOM      9  C   UNL     1      -0.125   8.993  21.989  0.00  0.00    +0.000 C 
ATOM     10  F   UNL     1      -0.883   7.930  21.638  0.00  0.00    +0.000 F 
ATOM     11  F   UNL     1      -0.204   9.117  23.332  0.00  0.00    +0.000 F 
ATOM     12  F   UNL     1      -0.661  10.101  21.430  0.00  0.00    +0.000 F 
ENDBRANCH   8   9
ENDBRANCH   6   8
ENDBRANCH   1   2
BRANCH   1  14
ATOM     13  C   UNL     1       5.456   5.288  19.139  0.00  0.00    +0.000 C 
ATOM     14  N   UNL     1       4.387   5.363  18.128  0.00  0.00    +0.000 NA
BRANCH  14  15
ATOM     15  C   UNL     1       4.573   4.267  17.148  0.00  0.00    +0.000 C 
BRANCH  15  16
ATOM     16  C   UNL     1       6.006   4.186  16.648  0.00  0.00    +0.000 C 
BRANCH  16  17
ATOM     17  S   UNL     1       6.223   5.005  15.087  0.00  0.00    +0.000 S 
ATOM     18  O   UNL     1       7.606   5.388  14.909  0.00  0.00    +0.000 OA
ATOM     19  O   UNL     1       5.460   4.323  14.073  0.00  0.00    +0.000 OA
BRANCH  17  20
ATOM     20  N   UNL     1       5.390   6.427  15.399  0.00  0.00    +0.000 NA
ATOM     21  H   UNL     1       6.027   7.220  15.483  0.00  0.00    +0.000 HD
ATOM     22  H   UNL     1       4.619   6.561  14.742  0.00  0.00    +0.000 HD
ENDBRANCH  17  20
ENDBRANCH  16  17
ENDBRANCH  15  16
ENDBRANCH  14  15
ENDBRANCH   1  14
TORSDOF 8
ENDMDL
MODEL 8
REMARK VINA RESULT:      -6.2      2.011      2.756
REMARK  Name = 
REMARK  9 active torsions:
REMARK  status: ('A' for Active; 'I' for Inactive)
REMARK    1  A    between atoms: C_1  and  N_2
REMARK    2  A    between atoms: N_2  and  C_3
REMARK    3  A    between atoms: N_2  and  C_9
REMARK    4  A    between atoms: C_3  and  C_4
REMARK    5  A    between atoms: C_4  and  S_5
REMARK    6  A    between atoms: S_5  and  N_6
REMARK    7  A    between atoms: C_9  and  C_10
REMARK    8  A    between atoms: C_14  and  O_15
REMARK    9  A    between atoms: O_15  and  C_16
REMARK                            x       y       z     vdW  Elec       q    Type
REMARK                         _______ _______ _______ _____ _____    ______ ____
ROOT
ATOM      1  C   UNL     1       3.715   5.948  17.500  0.00  0.00    +0.000 C 
ENDROOT
BRANCH   1   2
ATOM      2  C   UNL     1       3.176   4.589  17.887  0.00  0.00    +0.000 A 
ATOM      3  C   UNL     1       3.285   3.489  17.025  0.00  0.00    +0.000 A 
ATOM      4  C   UNL     1       2.674   2.281  17.359  0.00  0.00    +0.000 A 
ATOM      5  C   UNL     1       1.918   2.189  18.533  0.00  0.00    +0.000 A 
ATOM      6  C   UNL     1       1.801   3.284  19.391  0.00  0.00    +0.000 A 
ATOM      7  C   UNL     1       2.507   4.448  19.105  0.00  0.00    +0.000 A 
BRANCH   6   8
ATOM      8  O   UNL     1       0.998   3.109  20.475  0.00  0.00    +0.000 OA
BRANCH   8   9
ATOM      9  C   UNL     1       1.597   2.841  21.741  0.00  0.00    +0.000 C 
ATOM     10  F   UNL     1       0.759   2.333  22.672  0.00  0.00    +0.000 F 
ATOM     11  F   UNL     1       2.596   1.948  21.569  0.00  0.00    +0.000 F 
ATOM     12  F   UNL     1       2.130   3.984  22.227  0.00  0.00    +0.000 F 
ENDBRANCH   8   9
ENDBRANCH   6   8
ENDBRANCH   1   2
BRANCH   1  14
ATOM     13  C   UNL     1       5.520   5.126  18.914  0.00  0.00    +0.000 C 
ATOM     14  N   UNL     1       5.024   6.258  18.112  0.00  0.00    +0.000 NA
BRANCH  14  15
ATOM     15  C   UNL     1       6.039   6.607  17.091  0.00  0.00    +0.000 C 
BRANCH  15  16
ATOM     16  C   UNL     1       5.756   5.941  15.754  0.00  0.00    +0.000 C 
BRANCH  16  17
ATOM     17  S   UNL     1       7.094   4.901  15.223  0.00  0.00    +0.000 S 
ATOM     18  O   UNL     1       7.736   5.465  14.057  0.00  0.00    +0.000 OA
ATOM     19  O   UNL     1       7.827   4.431  16.371  0.00  0.00    +0.000 OA
BRANCH  17  20
ATOM     20  N   UNL     1       6.221   3.579  14.672  0.00  0.00    +0.000 NA
ATOM     21  H   UNL     1       6.184   3.558  13.652  0.00  0.00    +0.000 HD
ATOM     22  H   UNL     1       6.538   2.713  15.110  0.00  0.00    +0.000 HD
ENDBRANCH  17  20
ENDBRANCH  16  17
ENDBRANCH  15  16
ENDBRANCH  14  15
ENDBRANCH   1  14
TORSDOF 8
ENDMDL
MODEL 9
REMARK VINA RESULT:      -6.2      4.068      6.109
REMARK  Name = 
REMARK  9 active torsions:
REMARK  status: ('A' for Active; 'I' for Inactive)
REMARK    1  A    between atoms: C_1  and  N_2
REMARK    2  A    between atoms: N_2  and  C_3
REMARK    3  A    between atoms: N_2  and  C_9
REMARK    4  A    between atoms: C_3  and  C_4
REMARK    5  A    between atoms: C_4  and  S_5
REMARK    6  A    between atoms: S_5  and  N_6
REMARK    7  A    between atoms: C_9  and  C_10
REMARK    8  A    between atoms: C_14  and  O_15
REMARK    9  A    between atoms: O_15  and  C_16
REMARK                            x       y       z     vdW  Elec       q    Type
REMARK                         _______ _______ _______ _____ _____    ______ ____
ROOT
ATOM      1  C   UNL     1       3.724   6.663  17.822  0.00  0.00    +0.000 C 
ENDROOT
BRANCH   1   2
ATOM      2  C   UNL     1       4.960   5.830  17.569  0.00  0.00    +0.000 A 
ATOM      3  C   UNL     1       6.142   6.039  18.293  0.00  0.00    +0.000 A 
ATOM      4  C   UNL     1       7.298   5.338  17.955  0.00  0.00    +0.000 A 
ATOM      5  C   UNL     1       7.282   4.461  16.864  0.00  0.00    +0.000 A 
ATOM      6  C   UNL     1       6.110   4.254  16.135  0.00  0.00    +0.000 A 
ATOM      7  C   UNL     1       4.935   4.874  16.552  0.00  0.00    +0.000 A 
BRANCH   6   8
ATOM      8  O   UNL     1       6.213   3.428  15.060  0.00  0.00    +0.000 OA
BRANCH   8   9
ATOM      9  C   UNL     1       6.171   3.992  13.751  0.00  0.00    +0.000 C 
ATOM     10  F   UNL     1       6.850   5.152  13.608  0.00  0.00    +0.000 F 
ATOM     11  F   UNL     1       6.700   3.107  12.879  0.00  0.00    +0.000 F 
ATOM     12  F   UNL     1       4.883   4.208  13.405  0.00  0.00    +0.000 F 
ENDBRANCH   8   9
ENDBRANCH   6   8
ENDBRANCH   1   2
BRANCH   1  14
ATOM     13  C   UNL     1       2.263   7.443  19.610  0.00  0.00    +0.000 C 
ATOM     14  N   UNL     1       3.014   6.298  19.066  0.00  0.00    +0.000 NA
BRANCH  14  15
ATOM     15  C   UNL     1       2.082   5.166  18.855  0.00  0.00    +0.000 C 
BRANCH  15  16
ATOM     16  C   UNL     1       1.789   4.420  20.147  0.00  0.00    +0.000 C 
BRANCH  16  17
ATOM     17  S   UNL     1       2.651   2.870  20.241  0.00  0.00    +0.000 S 
ATOM     18  O   UNL     1       1.854   1.815  19.658  0.00  0.00    +0.000 OA
ATOM     19  O   UNL     1       4.042   3.071  19.922  0.00  0.00    +0.000 OA
BRANCH  17  20
ATOM     20  N   UNL     1       2.599   2.621  21.899  0.00  0.00    +0.000 NA
ATOM     21  H   UNL     1       2.785   3.486  22.410  0.00  0.00    +0.000 HD
ATOM     22  H   UNL     1       1.747   2.131  22.177  0.00  0.00    +0.000 HD
ENDBRANCH  17  20
ENDBRANCH  16  17
ENDBRANCH  15  16
ENDBRANCH  14  15
ENDBRANCH   1  14
TORSDOF 8
ENDMDL
