MODEL 1
REMARK VINA RESULT:      -7.9      0.000      0.000
REMARK  Name = 
REMARK  10 active torsions:
REMARK  status: ('A' for Active; 'I' for Inactive)
REMARK    1  A    between atoms: C_2  and  C_3
REMARK    2  A    between atoms: C_3  and  C_4
REMARK    3  A    between atoms: C_6  and  C_7
REMARK    4  A    between atoms: C_9  and  O_10
REMARK    5  A    between atoms: O_10  and  C_11
REMARK    6  A    between atoms: C_12  and  C_13
REMARK    7  A    between atoms: C_16  and  O_17
REMARK    8  A    between atoms: O_17  and  C_18
REMARK    9  A    between atoms: C_19  and  C_20
REMARK   10  A    between atoms: C_20  and  C_21
REMARK                            x       y       z     vdW  Elec       q    Type
REMARK                         _______ _______ _______ _____ _____    ______ ____
ROOT
ATOM      1  C   UNL     1       1.752   6.611  20.375  0.00  0.00    +0.000 A 
ATOM      2  C   UNL     1       1.343   5.381  20.887  0.00  0.00    +0.000 A 
ATOM      3  C   UNL     1       1.922   4.193  20.418  0.00  0.00    +0.000 A 
ATOM      4  C   UNL     1       2.898   4.208  19.399  0.00  0.00    +0.000 A 
ATOM      5  C   UNL     1       3.306   5.448  18.836  0.00  0.00    +0.000 A 
ATOM      6  C   UNL     1       2.697   6.626  19.338  0.00  0.00    +0.000 A 
ENDROOT
BRANCH   5   7
ATOM      7  C   UNL     1       4.357   5.588  17.793  0.00  0.00    +0.000 A 
ATOM      8  C   UNL     1       4.326   4.833  16.615  0.00  0.00    +0.000 A 
ATOM      9  C   UNL     1       5.410   4.847  15.734  0.00  0.00    +0.000 A 
ATOM     10  C   UNL     1       6.578   5.569  16.010  0.00  0.00    +0.000 A 
ATOM     11  C   UNL     1       6.615   6.366  17.160  0.00  0.00    +0.000 A 
ATOM     12  C   UNL     1       5.457   6.431  17.974  0.00  0.00    +0.000 A 
BRANCH  10  13
ATOM     13  O   UNL     1       7.584   5.280  15.135  0.00  0.00    +0.000 OA
ATOM     14  C   UNL     1       7.259   4.842  13.827  0.00  0.00    +0.000 C 
ENDBRANCH  10  13
BRANCH  11  15
ATOM     15  C   UNL     1       7.827   7.092  17.701  0.00  0.00    +0.000 C 
BRANCH  15  16
ATOM     16  C   UNL     1       7.803   8.594  17.633  0.00  0.00    +0.000 C 
ATOM     17  C   UNL     1       8.573   9.450  18.320  0.00  0.00    +0.000 C 
ENDBRANCH  15  16
ENDBRANCH  11  15
ENDBRANCH   5   7
BRANCH   3  18
ATOM     18  C   UNL     1       1.516   2.921  21.065  0.00  0.00    +0.000 C 
ATOM     19  O   UNL     1       2.012   2.542  22.129  0.00  0.00    +0.000 OA
ENDBRANCH   3  18
BRANCH   4  20
ATOM     20  O   UNL     1       3.537   3.011  19.154  0.00  0.00    +0.000 OA
ATOM     21  C   UNL     1       2.934   2.144  18.192  0.00  0.00    +0.000 C 
ENDBRANCH   4  20
BRANCH   1  22
ATOM     22  C   UNL     1       1.252   7.904  20.979  0.00  0.00    +0.000 C 
BRANCH  22  24
ATOM     23  C   UNL     1       0.107   9.936  20.051  0.00  0.00    +0.000 C 
ATOM     24  C   UNL     1       1.092   9.024  19.997  0.00  0.00    +0.000 C 
ENDBRANCH  22  24
ENDBRANCH   1  22
TORSDOF 8
ENDMDL
MODEL 2
REMARK VINA RESULT:      -7.8      2.279      6.356
REMARK  Name = 
REMARK  10 active torsions:
REMARK  status: ('A' for Active; 'I' for Inactive)
REMARK    1  A    between atoms: C_2  and  C_3
REMARK    2  A    between atoms: C_3  and  C_4
REMARK    3  A    between atoms: C_6  and  C_7
REMARK    4  A    between atoms: C_9  and  O_10
REMARK    5  A    between atoms: O_10  and  C_11
REMARK    6  A    between atoms: C_12  and  C_13
REMARK    7  A    between atoms: C_16  and  O_17
REMARK    8  A    between atoms: O_17  and  C_18
REMARK    9  A    between atoms: C_19  and  C_20
REMARK   10  A    between atoms: C_20  and  C_21
REMARK                            x       y       z     vdW  Elec       q    Type
REMARK                         _______ _______ _______ _____ _____    ______ ____
ROOT
ATOM      1  C   UNL     1       5.602   5.595  17.511  0.00  0.00    +0.000 A 
ATOM      2  C   UNL     1       5.217   4.256  17.471  0.00  0.00    +0.000 A 
ATOM      3  C   UNL     1       3.902   3.889  17.790  0.00  0.00    +0.000 A 
ATOM      4  C   UNL     1       2.951   4.852  18.191  0.00  0.00    +0.000 A 
ATOM      5  C   UNL     1       3.329   6.220  18.272  0.00  0.00    +0.000 A 
ATOM      6  C   UNL     1       4.668   6.550  17.941  0.00  0.00    +0.000 A 
ENDROOT
BRANCH   5   7
ATOM      7  C   UNL     1       2.402   7.325  18.636  0.00  0.00    +0.000 A 
ATOM      8  C   UNL     1       2.009   8.290  17.702  0.00  0.00    +0.000 A 
ATOM      9  C   UNL     1       1.285   9.415  18.104  0.00  0.00    +0.000 A 
ATOM     10  C   UNL     1       0.966   9.647  19.449  0.00  0.00    +0.000 A 
ATOM     11  C   UNL     1       1.311   8.674  20.395  0.00  0.00    +0.000 A 
ATOM     12  C   UNL     1       1.935   7.486  19.944  0.00  0.00    +0.000 A 
BRANCH  10  13
ATOM     13  O   UNL     1       0.449  10.893  19.650  0.00  0.00    +0.000 OA
ATOM     14  C   UNL     1      -0.309  11.502  18.619  0.00  0.00    +0.000 C 
ENDBRANCH  10  13
BRANCH  11  15
ATOM     15  C   UNL     1       1.188   8.811  21.896  0.00  0.00    +0.000 C 
BRANCH  15  16
ATOM     16  C   UNL     1      -0.199   8.989  22.448  0.00  0.00    +0.000 C 
ATOM     17  C   UNL     1      -0.707  10.085  23.030  0.00  0.00    +0.000 C 
ENDBRANCH  15  16
ENDBRANCH  11  15
ENDBRANCH   5   7
BRANCH   3  18
ATOM     18  C   UNL     1       3.524   2.463  17.641  0.00  0.00    +0.000 C 
ATOM     19  O   UNL     1       3.607   1.663  18.578  0.00  0.00    +0.000 OA
ENDBRANCH   3  18
BRANCH   4  20
ATOM     20  O   UNL     1       1.647   4.413  18.289  0.00  0.00    +0.000 OA
ATOM     21  C   UNL     1       1.224   3.935  19.566  0.00  0.00    +0.000 C 
ENDBRANCH   4  20
BRANCH   1  22
ATOM     22  C   UNL     1       6.967   6.020  17.020  0.00  0.00    +0.000 C 
BRANCH  22  24
ATOM     23  C   UNL     1       7.889   8.274  17.633  0.00  0.00    +0.000 C 
ATOM     24  C   UNL     1       7.678   6.980  17.926  0.00  0.00    +0.000 C 
ENDBRANCH  22  24
ENDBRANCH   1  22
TORSDOF 8
ENDMDL
MODEL 3
REMARK VINA RESULT:      -7.6      0.867      1.067
REMARK  Name = 
REMARK  10 active torsions:
REMARK  status: ('A' for Active; 'I' for Inactive)
REMARK    1  A    between atoms: C_2  and  C_3
REMARK    2  A    between atoms: C_3  and  C_4
REMARK    3  A    between atoms: C_6  and  C_7
REMARK    4  A    between atoms: C_9  and  O_10
REMARK    5  A    between atoms: O_10  and  C_11
REMARK    6  A    between atoms: C_12  and  C_13
REMARK    7  A    between atoms: C_16  and  O_17
REMARK    8  A    between atoms: O_17  and  C_18
REMARK    9  A    between atoms: C_19  and  C_20
REMARK   10  A    between atoms: C_20  and  C_21
REMARK                            x       y       z     vdW  Elec       q    Type
REMARK                         _______ _______ _______ _____ _____    ______ ____
ROOT
ATOM      1  C   UNL     1       1.834   6.725  20.473  0.00  0.00    +0.000 A 
ATOM      2  C   UNL     1       1.301   5.520  20.929  0.00  0.00    +0.000 A 
ATOM      3  C   UNL     1       1.709   4.306  20.357  0.00  0.00    +0.000 A 
ATOM      4  C   UNL     1       2.633   4.274  19.290  0.00  0.00    +0.000 A 
ATOM      5  C   UNL     1       3.163   5.492  18.785  0.00  0.00    +0.000 A 
ATOM      6  C   UNL     1       2.727   6.698  19.390  0.00  0.00    +0.000 A 
ENDROOT
BRANCH   5   7
ATOM      7  C   UNL     1       4.176   5.577  17.698  0.00  0.00    +0.000 A 
ATOM      8  C   UNL     1       4.208   4.648  16.652  0.00  0.00    +0.000 A 
ATOM      9  C   UNL     1       5.270   4.637  15.744  0.00  0.00    +0.000 A 
ATOM     10  C   UNL     1       6.357   5.512  15.867  0.00  0.00    +0.000 A 
ATOM     11  C   UNL     1       6.325   6.478  16.880  0.00  0.00    +0.000 A 
ATOM     12  C   UNL     1       5.181   6.548  17.711  0.00  0.00    +0.000 A 
BRANCH  10  13
ATOM     13  O   UNL     1       7.373   5.196  15.015  0.00  0.00    +0.000 OA
ATOM     14  C   UNL     1       7.069   4.600  13.765  0.00  0.00    +0.000 C 
ENDBRANCH  10  13
BRANCH  11  15
ATOM     15  C   UNL     1       7.461   7.402  17.263  0.00  0.00    +0.000 C 
BRANCH  15  16
ATOM     16  C   UNL     1       8.186   7.088  18.542  0.00  0.00    +0.000 C 
ATOM     17  C   UNL     1       8.122   5.954  19.254  0.00  0.00    +0.000 C 
ENDBRANCH  15  16
ENDBRANCH  11  15
ENDBRANCH   5   7
BRANCH   3  18
ATOM     18  C   UNL     1       1.179   3.051  20.944  0.00  0.00    +0.000 C 
ATOM     19  O   UNL     1       1.536   2.647  22.054  0.00  0.00    +0.000 OA
ENDBRANCH   3  18
BRANCH   4  20
ATOM     20  O   UNL     1       3.109   3.029  18.938  0.00  0.00    +0.000 OA
ATOM     21  C   UNL     1       4.270   2.565  19.628  0.00  0.00    +0.000 C 
ENDBRANCH   4  20
BRANCH   1  22
ATOM     22  C   UNL     1       1.523   8.024  21.182  0.00  0.00    +0.000 C 
BRANCH  22  24
ATOM     23  C   UNL     1      -0.378   9.660  21.283  0.00  0.00    +0.000 C 
ATOM     24  C   UNL     1       0.072   8.398  21.177  0.00  0.00    +0.000 C 
ENDBRANCH  22  24
ENDBRANCH   1  22
TORSDOF 8
ENDMDL
MODEL 4
REMARK VINA RESULT:      -7.6      2.422      6.622
REMARK  Name = 
REMARK  10 active torsions:
REMARK  status: ('A' for Active; 'I' for Inactive)
REMARK    1  A    between atoms: C_2  and  C_3
REMARK    2  A    between atoms: C_3  and  C_4
REMARK    3  A    between atoms: C_6  and  C_7
REMARK    4  A    between atoms: C_9  and  O_10
REMARK    5  A    between atoms: O_10  and  C_11
REMARK    6  A    between atoms: C_12  and  C_13
REMARK    7  A    between atoms: C_16  and  O_17
REMARK    8  A    between atoms: O_17  and  C_18
REMARK    9  A    between atoms: C_19  and  C_20
REMARK   10  A    between atoms: C_20  and  C_21
REMARK                            x       y       z     vdW  Elec       q    Type
REMARK                         _______ _______ _______ _____ _____    ______ ____
ROOT
ATOM      1  C   UNL     1       4.903   5.432  16.965  0.00  0.00    +0.000 A 
ATOM      2  C   UNL     1       5.035   4.291  17.756  0.00  0.00    +0.000 A 
ATOM      3  C   UNL     1       4.275   4.151  18.926  0.00  0.00    +0.000 A 
ATOM      4  C   UNL     1       3.392   5.167  19.351  0.00  0.00    +0.000 A 
ATOM      5  C   UNL     1       3.268   6.355  18.579  0.00  0.00    +0.000 A 
ATOM      6  C   UNL     1       4.052   6.458  17.403  0.00  0.00    +0.000 A 
ENDROOT
BRANCH   5   7
ATOM      7  C   UNL     1       2.336   7.470  18.904  0.00  0.00    +0.000 A 
ATOM      8  C   UNL     1       1.937   8.397  17.935  0.00  0.00    +0.000 A 
ATOM      9  C   UNL     1       1.209   9.533  18.296  0.00  0.00    +0.000 A 
ATOM     10  C   UNL     1       0.894   9.815  19.631  0.00  0.00    +0.000 A 
ATOM     11  C   UNL     1       1.245   8.881  20.613  0.00  0.00    +0.000 A 
ATOM     12  C   UNL     1       1.873   7.678  20.206  0.00  0.00    +0.000 A 
BRANCH  10  13
ATOM     13  O   UNL     1       0.373  11.066  19.786  0.00  0.00    +0.000 OA
ATOM     14  C   UNL     1       1.212  12.114  20.244  0.00  0.00    +0.000 C 
ENDBRANCH  10  13
BRANCH  11  15
ATOM     15  C   UNL     1       1.127   9.075  22.108  0.00  0.00    +0.000 C 
BRANCH  15  16
ATOM     16  C   UNL     1      -0.264   9.216  22.664  0.00  0.00    +0.000 C 
ATOM     17  C   UNL     1      -0.861  10.342  23.079  0.00  0.00    +0.000 C 
ENDBRANCH  15  16
ENDBRANCH  11  15
ENDBRANCH   5   7
BRANCH   3  18
ATOM     18  C   UNL     1       4.387   2.877  19.677  0.00  0.00    +0.000 C 
ATOM     19  O   UNL     1       3.890   1.827  19.260  0.00  0.00    +0.000 OA
ENDBRANCH   3  18
BRANCH   4  20
ATOM     20  O   UNL     1       2.556   4.845  20.398  0.00  0.00    +0.000 OA
ATOM     21  C   UNL     1       1.334   4.184  20.067  0.00  0.00    +0.000 C 
ENDBRANCH   4  20
BRANCH   1  22
ATOM     22  C   UNL     1       5.597   5.526  15.625  0.00  0.00    +0.000 C 
BRANCH  22  24
ATOM     23  C   UNL     1       6.079   3.949  13.733  0.00  0.00    +0.000 C 
ATOM     24  C   UNL     1       6.011   4.206  15.050  0.00  0.00    +0.000 C 
ENDBRANCH  22  24
ENDBRANCH   1  22
TORSDOF 8
ENDMDL
MODEL 5
REMARK VINA RESULT:      -7.4      2.360      6.414
REMARK  Name = 
REMARK  10 active torsions:
REMARK  status: ('A' for Active; 'I' for Inactive)
REMARK    1  A    between atoms: C_2  and  C_3
REMARK    2  A    between atoms: C_3  and  C_4
REMARK    3  A    between atoms: C_6  and  C_7
REMARK    4  A    between atoms: C_9  and  O_10
REMARK    5  A    between atoms: O_10  and  C_11
REMARK    6  A    between atoms: C_12  and  C_13
REMARK    7  A    between atoms: C_16  and  O_17
REMARK    8  A    between atoms: O_17  and  C_18
REMARK    9  A    between atoms: C_19  and  C_20
REMARK   10  A    between atoms: C_20  and  C_21
REMARK                            x       y       z     vdW  Elec       q    Type
REMARK                         _______ _______ _______ _____ _____    ______ ____
ROOT
ATOM      1  C   UNL     1       4.857   5.035  16.853  0.00  0.00    +0.000 A 
ATOM      2  C   UNL     1       4.384   3.756  17.141  0.00  0.00    +0.000 A 
ATOM      3  C   UNL     1       3.201   3.589  17.875  0.00  0.00    +0.000 A 
ATOM      4  C   UNL     1       2.483   4.700  18.367  0.00  0.00    +0.000 A 
ATOM      5  C   UNL     1       2.964   6.013  18.115  0.00  0.00    +0.000 A 
ATOM      6  C   UNL     1       4.164   6.140  17.370  0.00  0.00    +0.000 A 
ENDROOT
BRANCH   5   7
ATOM      7  C   UNL     1       2.267   7.257  18.543  0.00  0.00    +0.000 A 
ATOM      8  C   UNL     1       2.118   8.348  17.679  0.00  0.00    +0.000 A 
ATOM      9  C   UNL     1       1.623   9.565  18.153  0.00  0.00    +0.000 A 
ATOM     10  C   UNL     1       1.304   9.759  19.503  0.00  0.00    +0.000 A 
ATOM     11  C   UNL     1       1.404   8.670  20.376  0.00  0.00    +0.000 A 
ATOM     12  C   UNL     1       1.791   7.414  19.848  0.00  0.00    +0.000 A 
BRANCH  10  13
ATOM     13  O   UNL     1       1.045  11.067  19.790  0.00  0.00    +0.000 OA
ATOM     14  C   UNL     1       0.872  11.988  18.726  0.00  0.00    +0.000 C 
ENDBRANCH  10  13
BRANCH  11  15
ATOM     15  C   UNL     1       1.251   8.719  21.880  0.00  0.00    +0.000 C 
BRANCH  15  16
ATOM     16  C   UNL     1      -0.127   9.001  22.411  0.00  0.00    +0.000 C 
ATOM     17  C   UNL     1      -0.484   9.964  23.273  0.00  0.00    +0.000 C 
ENDBRANCH  15  16
ENDBRANCH  11  15
ENDBRANCH   5   7
BRANCH   3  18
ATOM     18  C   UNL     1       2.696   2.208  18.072  0.00  0.00    +0.000 C 
ATOM     19  O   UNL     1       3.441   1.282  18.405  0.00  0.00    +0.000 OA
ENDBRANCH   3  18
BRANCH   4  20
ATOM     20  O   UNL     1       1.240   4.430  18.900  0.00  0.00    +0.000 OA
ATOM     21  C   UNL     1       1.193   4.101  20.289  0.00  0.00    +0.000 C 
ENDBRANCH   4  20
BRANCH   1  22
ATOM     22  C   UNL     1       6.042   5.231  15.934  0.00  0.00    +0.000 C 
BRANCH  22  24
ATOM     23  C   UNL     1       7.674   4.683  17.761  0.00  0.00    +0.000 C 
ATOM     24  C   UNL     1       7.331   4.679  16.461  0.00  0.00    +0.000 C 
ENDBRANCH  22  24
ENDBRANCH   1  22
TORSDOF 8
ENDMDL
MODEL 6
REMARK VINA RESULT:      -7.4      1.904      3.522
REMARK  Name = 
REMARK  10 active torsions:
REMARK  status: ('A' for Active; 'I' for Inactive)
REMARK    1  A    between atoms: C_2  and  C_3
REMARK    2  A    between atoms: C_3  and  C_4
REMARK    3  A    between atoms: C_6  and  C_7
REMARK    4  A    between atoms: C_9  and  O_10
REMARK    5  A    between atoms: O_10  and  C_11
REMARK    6  A    between atoms: C_12  and  C_13
REMARK    7  A    between atoms: C_16  and  O_17
REMARK    8  A    between atoms: O_17  and  C_18
REMARK    9  A    between atoms: C_19  and  C_20
REMARK   10  A    between atoms: C_20  and  C_21
REMARK                            x       y       z     vdW  Elec       q    Type
REMARK                         _______ _______ _______ _____ _____    ______ ____
ROOT
ATOM      1  C   UNL     1       1.953   4.633  20.535  0.00  0.00    +0.000 A 
ATOM      2  C   UNL     1       1.344   5.804  20.985  0.00  0.00    +0.000 A 
ATOM      3  C   UNL     1       1.685   7.040  20.417  0.00  0.00    +0.000 A 
ATOM      4  C   UNL     1       2.670   7.136  19.410  0.00  0.00    +0.000 A 
ATOM      5  C   UNL     1       3.329   5.960  18.961  0.00  0.00    +0.000 A 
ATOM      6  C   UNL     1       2.956   4.730  19.559  0.00  0.00    +0.000 A 
ENDROOT
BRANCH   5   7
ATOM      7  C   UNL     1       4.347   5.934  17.875  0.00  0.00    +0.000 A 
ATOM      8  C   UNL     1       4.252   5.040  16.802  0.00  0.00    +0.000 A 
ATOM      9  C   UNL     1       5.304   4.909  15.893  0.00  0.00    +0.000 A 
ATOM     10  C   UNL     1       6.502   5.620  16.040  0.00  0.00    +0.000 A 
ATOM     11  C   UNL     1       6.603   6.551  17.080  0.00  0.00    +0.000 A 
ATOM     12  C   UNL     1       5.477   6.756  17.915  0.00  0.00    +0.000 A 
BRANCH  10  13
ATOM     13  O   UNL     1       7.467   5.190  15.177  0.00  0.00    +0.000 OA
ATOM     14  C   UNL     1       7.093   4.751  13.883  0.00  0.00    +0.000 C 
ENDBRANCH  10  13
BRANCH  11  15
ATOM     15  C   UNL     1       7.854   7.297  17.488  0.00  0.00    +0.000 C 
BRANCH  15  16
ATOM     16  C   UNL     1       7.719   8.779  17.705  0.00  0.00    +0.000 C 
ATOM     17  C   UNL     1       8.589   9.591  18.321  0.00  0.00    +0.000 C 
ENDBRANCH  15  16
ENDBRANCH  11  15
ENDBRANCH   5   7
BRANCH   3  18
ATOM     18  C   UNL     1       0.939   8.240  20.869  0.00  0.00    +0.000 C 
ATOM     19  O   UNL     1       1.343   8.950  21.794  0.00  0.00    +0.000 OA
ENDBRANCH   3  18
BRANCH   4  20
ATOM     20  O   UNL     1       2.784   8.362  18.789  0.00  0.00    +0.000 OA
ATOM     21  C   UNL     1       1.944   8.591  17.658  0.00  0.00    +0.000 C 
ENDBRANCH   4  20
BRANCH   1  22
ATOM     22  C   UNL     1       1.484   3.282  21.027  0.00  0.00    +0.000 C 
BRANCH  22  24
ATOM     23  C   UNL     1       0.680   2.187  18.916  0.00  0.00    +0.000 C 
ATOM     24  C   UNL     1       1.496   2.207  19.983  0.00  0.00    +0.000 C 
ENDBRANCH  22  24
ENDBRANCH   1  22
TORSDOF 8
ENDMDL
MODEL 7
REMARK VINA RESULT:      -7.4      2.309      6.342
REMARK  Name = 
REMARK  10 active torsions:
REMARK  status: ('A' for Active; 'I' for Inactive)
REMARK    1  A    between atoms: C_2  and  C_3
REMARK    2  A    between atoms: C_3  and  C_4
REMARK    3  A    between atoms: C_6  and  C_7
REMARK    4  A    between atoms: C_9  and  O_10
REMARK    5  A    between atoms: O_10  and  C_11
REMARK    6  A    between atoms: C_12  and  C_13
REMARK    7  A    between atoms: C_16  and  O_17
REMARK    8  A    between atoms: O_17  and  C_18
REMARK    9  A    between atoms: C_19  and  C_20
REMARK   10  A    between atoms: C_20  and  C_21
REMARK                            x       y       z     vdW  Elec       q    Type
REMARK                         _______ _______ _______ _____ _____    ______ ____
ROOT
ATOM      1  C   UNL     1       5.773   5.217  17.736  0.00  0.00    +0.000 A 
ATOM      2  C   UNL     1       5.604   3.971  18.337  0.00  0.00    +0.000 A 
ATOM      3  C   UNL     1       4.468   3.711  19.117  0.00  0.00    +0.000 A 
ATOM      4  C   UNL     1       3.492   4.706  19.342  0.00  0.00    +0.000 A 
ATOM      5  C   UNL     1       3.661   5.996  18.768  0.00  0.00    +0.000 A 
ATOM      6  C   UNL     1       4.823   6.219  17.986  0.00  0.00    +0.000 A 
ENDROOT
BRANCH   5   7
ATOM      7  C   UNL     1       2.677   7.105  18.899  0.00  0.00    +0.000 A 
ATOM      8  C   UNL     1       2.368   7.941  17.819  0.00  0.00    +0.000 A 
ATOM      9  C   UNL     1       1.582   9.080  18.007  0.00  0.00    +0.000 A 
ATOM     10  C   UNL     1       1.116   9.458  19.273  0.00  0.00    +0.000 A 
ATOM     11  C   UNL     1       1.377   8.614  20.359  0.00  0.00    +0.000 A 
ATOM     12  C   UNL     1       2.070   7.402  20.122  0.00  0.00    +0.000 A 
BRANCH  10  13
ATOM     13  O   UNL     1       0.556  10.701  19.268  0.00  0.00    +0.000 OA
ATOM     14  C   UNL     1      -0.638  10.919  18.536  0.00  0.00    +0.000 C 
ENDBRANCH  10  13
BRANCH  11  15
ATOM     15  C   UNL     1       1.092   8.922  21.813  0.00  0.00    +0.000 C 
BRANCH  15  16
ATOM     16  C   UNL     1      -0.328   9.272  22.164  0.00  0.00    +0.000 C 
ATOM     17  C   UNL     1      -0.747  10.050  23.172  0.00  0.00    +0.000 C 
ENDBRANCH  15  16
ENDBRANCH  11  15
ENDBRANCH   5   7
BRANCH   3  18
ATOM     18  C   UNL     1       4.295   2.340  19.654  0.00  0.00    +0.000 C 
ATOM     19  O   UNL     1       5.100   1.841  20.445  0.00  0.00    +0.000 OA
ENDBRANCH   3  18
BRANCH   4  20
ATOM     20  O   UNL     1       2.330   4.288  19.954  0.00  0.00    +0.000 OA
ATOM     21  C   UNL     1       1.276   3.845  19.098  0.00  0.00    +0.000 C 
ENDBRANCH   4  20
BRANCH   1  22
ATOM     22  C   UNL     1       6.911   5.460  16.769  0.00  0.00    +0.000 C 
BRANCH  22  24
ATOM     23  C   UNL     1       5.532   4.375  14.974  0.00  0.00    +0.000 C 
ATOM     24  C   UNL     1       6.601   5.097  15.349  0.00  0.00    +0.000 C 
ENDBRANCH  22  24
ENDBRANCH   1  22
TORSDOF 8
ENDMDL
MODEL 8
REMARK VINA RESULT:      -7.3      2.181      6.655
REMARK  Name = 
REMARK  10 active torsions:
REMARK  status: ('A' for Active; 'I' for Inactive)
REMARK    1  A    between atoms: C_2  and  C_3
REMARK    2  A    between atoms: C_3  and  C_4
REMARK    3  A    between atoms: C_6  and  C_7
REMARK    4  A    between atoms: C_9  and  O_10
REMARK    5  A    between atoms: O_10  and  C_11
REMARK    6  A    between atoms: C_12  and  C_13
REMARK    7  A    between atoms: C_16  and  O_17
REMARK    8  A    between atoms: O_17  and  C_18
REMARK    9  A    between atoms: C_19  and  C_20
REMARK   10  A    between atoms: C_20  and  C_21
REMARK                            x       y       z     vdW  Elec       q    Type
REMARK                         _______ _______ _______ _____ _____    ______ ____
ROOT
ATOM      1  C   UNL     1       4.982   5.649  17.189  0.00  0.00    +0.000 A 
ATOM      2  C   UNL     1       4.494   4.347  17.083  0.00  0.00    +0.000 A 
ATOM      3  C   UNL     1       3.264   4.005  17.663  0.00  0.00    +0.000 A 
ATOM      4  C   UNL     1       2.511   4.950  18.393  0.00  0.00    +0.000 A 
ATOM      5  C   UNL     1       3.006   6.274  18.544  0.00  0.00    +0.000 A 
ATOM      6  C   UNL     1       4.252   6.580  17.943  0.00  0.00    +0.000 A 
ENDROOT
BRANCH   5   7
ATOM      7  C   UNL     1       2.279   7.363  19.251  0.00  0.00    +0.000 A 
ATOM      8  C   UNL     1       1.962   7.270  20.611  0.00  0.00    +0.000 A 
ATOM      9  C   UNL     1       1.127   8.216  21.212  0.00  0.00    +0.000 A 
ATOM     10  C   UNL     1       0.541   9.256  20.479  0.00  0.00    +0.000 A 
ATOM     11  C   UNL     1       0.878   9.394  19.127  0.00  0.00    +0.000 A 
ATOM     12  C   UNL     1       1.822   8.496  18.572  0.00  0.00    +0.000 A 
BRANCH  10  13
ATOM     13  O   UNL     1      -0.397   9.932  21.202  0.00  0.00    +0.000 OA
ATOM     14  C   UNL     1      -0.093  11.227  21.692  0.00  0.00    +0.000 C 
ENDBRANCH  10  13
BRANCH  11  15
ATOM     15  C   UNL     1       0.240  10.351  18.145  0.00  0.00    +0.000 C 
BRANCH  15  16
ATOM     16  C   UNL     1      -1.117   9.974  17.617  0.00  0.00    +0.000 C 
ATOM     17  C   UNL     1      -2.309  10.325  18.118  0.00  0.00    +0.000 C 
ENDBRANCH  15  16
ENDBRANCH  11  15
ENDBRANCH   5   7
BRANCH   3  18
ATOM     18  C   UNL     1       2.750   2.632  17.439  0.00  0.00    +0.000 C 
ATOM     19  O   UNL     1       3.222   1.654  18.026  0.00  0.00    +0.000 OA
ENDBRANCH   3  18
BRANCH   4  20
ATOM     20  O   UNL     1       1.236   4.565  18.749  0.00  0.00    +0.000 OA
ATOM     21  C   UNL     1       1.083   3.949  20.028  0.00  0.00    +0.000 C 
ENDBRANCH   4  20
BRANCH   1  22
ATOM     22  C   UNL     1       6.225   6.070  16.439  0.00  0.00    +0.000 C 
BRANCH  22  24
ATOM     23  C   UNL     1       7.673   7.824  17.500  0.00  0.00    +0.000 C 
ATOM     24  C   UNL     1       7.348   6.534  17.315  0.00  0.00    +0.000 C 
ENDBRANCH  22  24
ENDBRANCH   1  22
TORSDOF 8
ENDMDL
MODEL 9
REMARK VINA RESULT:      -7.1      2.287      6.808
REMARK  Name = 
REMARK  10 active torsions:
REMARK  status: ('A' for Active; 'I' for Inactive)
REMARK    1  A    between atoms: C_2  and  C_3
REMARK    2  A    between atoms: C_3  and  C_4
REMARK    3  A    between atoms: C_6  and  C_7
REMARK    4  A    between atoms: C_9  and  O_10
REMARK    5  A    between atoms: O_10  and  C_11
REMARK    6  A    between atoms: C_12  and  C_13
REMARK    7  A    between atoms: C_16  and  O_17
REMARK    8  A    between atoms: O_17  and  C_18
REMARK    9  A    between atoms: C_19  and  C_20
REMARK   10  A    between atoms: C_20  and  C_21
REMARK                            x       y       z     vdW  Elec       q    Type
REMARK                         _______ _______ _______ _____ _____    ______ ____
ROOT
ATOM      1  C   UNL     1       4.683   5.422  17.085  0.00  0.00    +0.000 A 
ATOM      2  C   UNL     1       4.190   4.120  17.157  0.00  0.00    +0.000 A 
ATOM      3  C   UNL     1       3.029   3.845  17.895  0.00  0.00    +0.000 A 
ATOM      4  C   UNL     1       2.357   4.862  18.607  0.00  0.00    +0.000 A 
ATOM      5  C   UNL     1       2.861   6.190  18.576  0.00  0.00    +0.000 A 
ATOM      6  C   UNL     1       4.036   6.427  17.819  0.00  0.00    +0.000 A 
ENDROOT
BRANCH   5   7
ATOM      7  C   UNL     1       2.211   7.348  19.248  0.00  0.00    +0.000 A 
ATOM      8  C   UNL     1       1.975   7.358  20.627  0.00  0.00    +0.000 A 
ATOM      9  C   UNL     1       1.207   8.369  21.209  0.00  0.00    +0.000 A 
ATOM     10  C   UNL     1       0.608   9.377  20.442  0.00  0.00    +0.000 A 
ATOM     11  C   UNL     1       0.866   9.412  19.067  0.00  0.00    +0.000 A 
ATOM     12  C   UNL     1       1.747   8.448  18.520  0.00  0.00    +0.000 A 
BRANCH  10  13
ATOM     13  O   UNL     1      -0.264  10.131  21.171  0.00  0.00    +0.000 OA
ATOM     14  C   UNL     1      -0.201  10.089  22.586  0.00  0.00    +0.000 C 
ENDBRANCH  10  13
BRANCH  11  15
ATOM     15  C   UNL     1       0.197  10.322  18.060  0.00  0.00    +0.000 C 
BRANCH  15  16
ATOM     16  C   UNL     1      -1.269  10.096  17.813  0.00  0.00    +0.000 C 
ATOM     17  C   UNL     1      -2.180  11.009  17.449  0.00  0.00    +0.000 C 
ENDBRANCH  15  16
ENDBRANCH  11  15
ENDBRANCH   5   7
BRANCH   3  18
ATOM     18  C   UNL     1       2.498   2.460  17.861  0.00  0.00    +0.000 C 
ATOM     19  O   UNL     1       3.224   1.478  18.039  0.00  0.00    +0.000 OA
ENDBRANCH   3  18
BRANCH   4  20
ATOM     20  O   UNL     1       1.128   4.523  19.132  0.00  0.00    +0.000 OA
ATOM     21  C   UNL     1       1.116   4.009  20.465  0.00  0.00    +0.000 C 
ENDBRANCH   4  20
BRANCH   1  22
ATOM     22  C   UNL     1       5.839   5.759  16.170  0.00  0.00    +0.000 C 
BRANCH  22  24
ATOM     23  C   UNL     1       6.423   4.191  14.298  0.00  0.00    +0.000 C 
ATOM     24  C   UNL     1       5.703   5.219  14.778  0.00  0.00    +0.000 C 
ENDBRANCH  22  24
ENDBRANCH   1  22
TORSDOF 8
ENDMDL
