MODEL 1
REMARK VINA RESULT:      -7.3      0.000      0.000
REMARK  Name = 
REMARK  7 active torsions:
REMARK  status: ('A' for Active; 'I' for Inactive)
REMARK    1  A    between atoms: C_1  and  C_2
REMARK    2  A    between atoms: C_2  and  N_3
REMARK    3  A    between atoms: C_17  and  C_18
REMARK    4  A    between atoms: C_18  and  C_19
REMARK    5  A    between atoms: C_18  and  C_20
REMARK    6  A    between atoms: C_18  and  S_21
REMARK    7  A    between atoms: S_21  and  C_22
REMARK                            x       y       z     vdW  Elec       q    Type
REMARK                         _______ _______ _______ _____ _____    ______ ____
ROOT
ATOM      1  N   UNL     1       6.823  14.723  19.117  0.00  0.00    +0.000 N 
ATOM      2  C   UNL     1       8.031  14.075  19.190  0.00  0.00    +0.000 A 
ATOM      3  N   UNL     1       8.703  13.836  18.082  0.00  0.00    +0.000 NA
ATOM      4  C   UNL     1       9.766  13.094  18.443  0.00  0.00    +0.000 A 
ATOM      5  C   UNL     1      10.731  12.573  17.559  0.00  0.00    +0.000 A 
ATOM      6  C   UNL     1      11.771  11.832  18.091  0.00  0.00    +0.000 A 
ATOM      7  C   UNL     1      11.825  11.592  19.459  0.00  0.00    +0.000 A 
ATOM      8  C   UNL     1      10.855  12.097  20.356  0.00  0.00    +0.000 A 
ATOM      9  C   UNL     1       9.808  12.876  19.831  0.00  0.00    +0.000 A 
ATOM     10  N   UNL     1       8.721  13.567  20.363  0.00  0.00    +0.000 N 
ATOM     11  C   UNL     1       8.276  13.754  21.783  0.00  0.00    +0.000 A 
ATOM     12  N   UNL     1       8.811  13.170  22.961  0.00  0.00    +0.000 NA
ATOM     13  C   UNL     1       7.972  13.089  24.077  0.00  0.00    +0.000 A 
ATOM     14  C   UNL     1       6.650  13.411  23.793  0.00  0.00    +0.000 A 
ATOM     15  C   UNL     1       6.375  14.418  22.883  0.00  0.00    +0.000 A 
ATOM     16  N   UNL     1       7.202  14.563  21.861  0.00  0.00    +0.000 NA
ATOM     17  O   UNL     1       5.606  12.717  24.294  0.00  0.00    +0.000 OA
ATOM     18  C   UNL     1       5.742  12.777  25.686  0.00  0.00    +0.000 C 
ATOM     19  C   UNL     1       6.955  11.962  26.086  0.00  0.00    +0.000 C 
ATOM     20  C   UNL     1       6.779  11.889  27.613  0.00  0.00    +0.000 C 
ATOM     21  O   UNL     1       6.736  13.232  28.129  0.00  0.00    +0.000 OA
ATOM     22  C   UNL     1       8.032  13.797  27.970  0.00  0.00    +0.000 C 
ATOM     23  C   UNL     1       8.650  13.777  26.503  0.00  0.00    +0.000 C 
ATOM     24  N   UNL     1       8.233  12.650  25.549  0.00  0.00    +0.000 N 
ATOM     25  H   UNL     1       6.151  14.625  19.876  0.00  0.00    +0.000 HD
ENDROOT
BRANCH  15  26
ATOM     26  C   UNL     1       5.616  15.633  23.441  0.00  0.00    +0.000 C 
ATOM     27  C   UNL     1       5.483  15.661  24.991  0.00  0.00    +0.000 C 
ATOM     28  C   UNL     1       6.355  16.892  22.929  0.00  0.00    +0.000 C 
BRANCH  26  29
ATOM     29  S   UNL     1       3.910  15.660  22.802  0.00  0.00    +0.000 S 
ATOM     30  C   UNL     1       3.762  16.678  21.384  0.00  0.00    +0.000 C 
ATOM     31  O   UNL     1       3.541  14.307  22.429  0.00  0.00    +0.000 OA
ATOM     32  O   UNL     1       3.093  16.312  23.837  0.00  0.00    +0.000 OA
ENDBRANCH  26  29
ENDBRANCH  15  26
BRANCH   1  34
ATOM     33  C   UNL     1       4.721  15.086  17.813  0.00  0.00    +0.000 C 
ATOM     34  C   UNL     1       6.229  14.889  17.775  0.00  0.00    +0.000 C 
ENDBRANCH   1  34
TORSDOF 3
ENDMDL
MODEL 2
REMARK VINA RESULT:      -6.7      2.947      6.881
REMARK  Name = 
REMARK  7 active torsions:
REMARK  status: ('A' for Active; 'I' for Inactive)
REMARK    1  A    between atoms: C_1  and  C_2
REMARK    2  A    between atoms: C_2  and  N_3
REMARK    3  A    between atoms: C_17  and  C_18
REMARK    4  A    between atoms: C_18  and  C_19
REMARK    5  A    between atoms: C_18  and  C_20
REMARK    6  A    between atoms: C_18  and  S_21
REMARK    7  A    between atoms: S_21  and  C_22
REMARK                            x       y       z     vdW  Elec       q    Type
REMARK                         _______ _______ _______ _____ _____    ______ ____
ROOT
ATOM      1  N   UNL     1       5.115  15.847  23.708  0.00  0.00    +0.000 N 
ATOM      2  C   UNL     1       5.392  14.701  24.412  0.00  0.00    +0.000 A 
ATOM      3  N   UNL     1       4.841  14.520  25.594  0.00  0.00    +0.000 NA
ATOM      4  C   UNL     1       5.382  13.393  26.091  0.00  0.00    +0.000 A 
ATOM      5  C   UNL     1       5.109  12.851  27.362  0.00  0.00    +0.000 A 
ATOM      6  C   UNL     1       5.745  11.677  27.722  0.00  0.00    +0.000 A 
ATOM      7  C   UNL     1       6.651  11.083  26.852  0.00  0.00    +0.000 A 
ATOM      8  C   UNL     1       6.946  11.623  25.579  0.00  0.00    +0.000 A 
ATOM      9  C   UNL     1       6.284  12.802  25.189  0.00  0.00    +0.000 A 
ATOM     10  N   UNL     1       6.262  13.597  24.045  0.00  0.00    +0.000 N 
ATOM     11  C   UNL     1       6.967  13.445  22.730  0.00  0.00    +0.000 A 
ATOM     12  N   UNL     1       7.939  12.481  22.354  0.00  0.00    +0.000 NA
ATOM     13  C   UNL     1       8.795  12.807  21.299  0.00  0.00    +0.000 A 
ATOM     14  C   UNL     1       8.698  14.137  20.907  0.00  0.00    +0.000 A 
ATOM     15  C   UNL     1       7.462  14.762  20.918  0.00  0.00    +0.000 A 
ATOM     16  N   UNL     1       6.606  14.409  21.862  0.00  0.00    +0.000 NA
ATOM     17  O   UNL     1       9.778  14.889  20.602  0.00  0.00    +0.000 OA
ATOM     18  C   UNL     1      10.432  14.213  19.567  0.00  0.00    +0.000 C 
ATOM     19  C   UNL     1      11.018  12.932  20.123  0.00  0.00    +0.000 C 
ATOM     20  C   UNL     1      11.928  12.488  18.964  0.00  0.00    +0.000 C 
ATOM     21  O   UNL     1      11.117  12.339  17.783  0.00  0.00    +0.000 OA
ATOM     22  C   UNL     1      10.263  11.218  17.985  0.00  0.00    +0.000 C 
ATOM     23  C   UNL     1       9.356  11.232  19.293  0.00  0.00    +0.000 C 
ATOM     24  N   UNL     1       9.869  11.980  20.531  0.00  0.00    +0.000 N 
ATOM     25  H   UNL     1       5.756  16.162  22.983  0.00  0.00    +0.000 HD
ENDROOT
BRANCH  15  26
ATOM     26  C   UNL     1       6.949  15.252  19.554  0.00  0.00    +0.000 C 
ATOM     27  C   UNL     1       7.572  14.527  18.326  0.00  0.00    +0.000 C 
ATOM     28  C   UNL     1       5.411  15.084  19.571  0.00  0.00    +0.000 C 
BRANCH  26  29
ATOM     29  S   UNL     1       7.339  17.018  19.330  0.00  0.00    +0.000 S 
ATOM     30  C   UNL     1       8.693  17.252  18.244  0.00  0.00    +0.000 C 
ATOM     31  O   UNL     1       6.179  17.673  18.755  0.00  0.00    +0.000 OA
ATOM     32  O   UNL     1       7.800  17.506  20.638  0.00  0.00    +0.000 OA
ENDBRANCH  26  29
ENDBRANCH  15  26
BRANCH   1  34
ATOM     33  C   UNL     1       3.288  17.551  23.619  0.00  0.00    +0.000 C 
ATOM     34  C   UNL     1       4.412  16.926  24.431  0.00  0.00    +0.000 C 
ENDBRANCH   1  34
TORSDOF 3
ENDMDL
MODEL 3
REMARK VINA RESULT:      -6.6      1.232      1.344
REMARK  Name = 
REMARK  7 active torsions:
REMARK  status: ('A' for Active; 'I' for Inactive)
REMARK    1  A    between atoms: C_1  and  C_2
REMARK    2  A    between atoms: C_2  and  N_3
REMARK    3  A    between atoms: C_17  and  C_18
REMARK    4  A    between atoms: C_18  and  C_19
REMARK    5  A    between atoms: C_18  and  C_20
REMARK    6  A    between atoms: C_18  and  S_21
REMARK    7  A    between atoms: S_21  and  C_22
REMARK                            x       y       z     vdW  Elec       q    Type
REMARK                         _______ _______ _______ _____ _____    ______ ____
ROOT
ATOM      1  N   UNL     1       6.921  14.912  19.127  0.00  0.00    +0.000 N 
ATOM      2  C   UNL     1       8.093  14.200  19.192  0.00  0.00    +0.000 A 
ATOM      3  N   UNL     1       8.738  13.914  18.080  0.00  0.00    +0.000 NA
ATOM      4  C   UNL     1       9.762  13.118  18.436  0.00  0.00    +0.000 A 
ATOM      5  C   UNL     1      10.688  12.537  17.547  0.00  0.00    +0.000 A 
ATOM      6  C   UNL     1      11.692  11.745  18.075  0.00  0.00    +0.000 A 
ATOM      7  C   UNL     1      11.748  11.515  19.444  0.00  0.00    +0.000 A 
ATOM      8  C   UNL     1      10.818  12.080  20.347  0.00  0.00    +0.000 A 
ATOM      9  C   UNL     1       9.809  12.911  19.826  0.00  0.00    +0.000 A 
ATOM     10  N   UNL     1       8.768  13.665  20.363  0.00  0.00    +0.000 N 
ATOM     11  C   UNL     1       8.349  13.889  21.785  0.00  0.00    +0.000 A 
ATOM     12  N   UNL     1       8.865  13.287  22.963  0.00  0.00    +0.000 NA
ATOM     13  C   UNL     1       8.036  13.262  24.089  0.00  0.00    +0.000 A 
ATOM     14  C   UNL     1       6.730  13.654  23.816  0.00  0.00    +0.000 A 
ATOM     15  C   UNL     1       6.500  14.666  22.900  0.00  0.00    +0.000 A 
ATOM     16  N   UNL     1       7.322  14.757  21.867  0.00  0.00    +0.000 NA
ATOM     17  O   UNL     1       5.655  13.023  24.336  0.00  0.00    +0.000 OA
ATOM     18  C   UNL     1       5.811  13.088  25.725  0.00  0.00    +0.000 C 
ATOM     19  C   UNL     1       6.982  12.211  26.120  0.00  0.00    +0.000 C 
ATOM     20  C   UNL     1       6.819  12.161  27.649  0.00  0.00    +0.000 C 
ATOM     21  O   UNL     1       6.855  13.510  28.153  0.00  0.00    +0.000 OA
ATOM     22  C   UNL     1       8.178  14.002  27.974  0.00  0.00    +0.000 C 
ATOM     23  C   UNL     1       8.778  13.935  26.501  0.00  0.00    +0.000 C 
ATOM     24  N   UNL     1       8.289  12.824  25.562  0.00  0.00    +0.000 N 
ATOM     25  H   UNL     1       6.253  14.858  19.893  0.00  0.00    +0.000 HD
ENDROOT
BRANCH  15  26
ATOM     26  C   UNL     1       5.815  15.926  23.454  0.00  0.00    +0.000 C 
ATOM     27  C   UNL     1       4.309  15.747  23.803  0.00  0.00    +0.000 C 
ATOM     28  C   UNL     1       6.622  16.358  24.702  0.00  0.00    +0.000 C 
BRANCH  26  29
ATOM     29  S   UNL     1       5.877  17.270  22.227  0.00  0.00    +0.000 S 
ATOM     30  C   UNL     1       4.846  18.613  22.679  0.00  0.00    +0.000 C 
ATOM     31  O   UNL     1       7.242  17.755  22.148  0.00  0.00    +0.000 OA
ATOM     32  O   UNL     1       5.290  16.728  20.992  0.00  0.00    +0.000 OA
ENDBRANCH  26  29
ENDBRANCH  15  26
BRANCH   1  34
ATOM     33  C   UNL     1       4.809  14.944  17.790  0.00  0.00    +0.000 C 
ATOM     34  C   UNL     1       6.322  15.098  17.789  0.00  0.00    +0.000 C 
ENDBRANCH   1  34
TORSDOF 3
ENDMDL
MODEL 4
REMARK VINA RESULT:      -6.5      7.929     11.333
REMARK  Name = 
REMARK  7 active torsions:
REMARK  status: ('A' for Active; 'I' for Inactive)
REMARK    1  A    between atoms: C_1  and  C_2
REMARK    2  A    between atoms: C_2  and  N_3
REMARK    3  A    between atoms: C_17  and  C_18
REMARK    4  A    between atoms: C_18  and  C_19
REMARK    5  A    between atoms: C_18  and  C_20
REMARK    6  A    between atoms: C_18  and  S_21
REMARK    7  A    between atoms: S_21  and  C_22
REMARK                            x       y       z     vdW  Elec       q    Type
REMARK                         _______ _______ _______ _____ _____    ______ ____
ROOT
ATOM      1  N   UNL     1      -2.744  10.645  17.484  0.00  0.00    +0.000 N 
ATOM      2  C   UNL     1      -3.730  11.173  18.280  0.00  0.00    +0.000 A 
ATOM      3  N   UNL     1      -4.962  10.724  18.165  0.00  0.00    +0.000 NA
ATOM      4  C   UNL     1      -5.719  11.497  18.964  0.00  0.00    +0.000 A 
ATOM      5  C   UNL     1      -7.116  11.395  19.110  0.00  0.00    +0.000 A 
ATOM      6  C   UNL     1      -7.747  12.264  19.982  0.00  0.00    +0.000 A 
ATOM      7  C   UNL     1      -7.009  13.227  20.659  0.00  0.00    +0.000 A 
ATOM      8  C   UNL     1      -5.608  13.350  20.512  0.00  0.00    +0.000 A 
ATOM      9  C   UNL     1      -4.950  12.454  19.651  0.00  0.00    +0.000 A 
ATOM     10  N   UNL     1      -3.627  12.223  19.279  0.00  0.00    +0.000 N 
ATOM     11  C   UNL     1      -2.354  12.882  19.721  0.00  0.00    +0.000 A 
ATOM     12  N   UNL     1      -2.189  14.004  20.574  0.00  0.00    +0.000 NA
ATOM     13  C   UNL     1      -1.000  14.730  20.462  0.00  0.00    +0.000 A 
ATOM     14  C   UNL     1      -0.233  14.357  19.363  0.00  0.00    +0.000 A 
ATOM     15  C   UNL     1      -0.184  13.025  18.987  0.00  0.00    +0.000 A 
ATOM     16  N   UNL     1      -1.277  12.299  19.160  0.00  0.00    +0.000 NA
ATOM     17  O   UNL     1       0.399  15.254  18.576  0.00  0.00    +0.000 OA
ATOM     18  C   UNL     1       1.242  15.978  19.426  0.00  0.00    +0.000 C 
ATOM     19  C   UNL     1       0.387  16.828  20.343  0.00  0.00    +0.000 C 
ATOM     20  C   UNL     1       1.445  17.751  20.972  0.00  0.00    +0.000 C 
ATOM     21  O   UNL     1       2.431  16.931  21.627  0.00  0.00    +0.000 OA
ATOM     22  C   UNL     1       1.807  16.322  22.752  0.00  0.00    +0.000 C 
ATOM     23  C   UNL     1       0.477  15.492  22.476  0.00  0.00    +0.000 C 
ATOM     24  N   UNL     1      -0.412  15.907  21.296  0.00  0.00    +0.000 N 
ATOM     25  H   UNL     1      -1.893  11.178  17.313  0.00  0.00    +0.000 HD
ENDROOT
BRANCH  15  26
ATOM     26  C   UNL     1       1.202  12.363  19.054  0.00  0.00    +0.000 C 
ATOM     27  C   UNL     1       2.225  12.888  18.005  0.00  0.00    +0.000 C 
ATOM     28  C   UNL     1       1.729  12.579  20.493  0.00  0.00    +0.000 C 
BRANCH  26  29
ATOM     29  S   UNL     1       1.061  10.572  18.748  0.00  0.00    +0.000 S 
ATOM     30  C   UNL     1       0.827   9.675  20.235  0.00  0.00    +0.000 C 
ATOM     31  O   UNL     1      -0.089  10.343  17.895  0.00  0.00    +0.000 OA
ATOM     32  O   UNL     1       2.369  10.139  18.233  0.00  0.00    +0.000 OA
ENDBRANCH  26  29
ENDBRANCH  15  26
BRANCH   1  34
ATOM     33  C   UNL     1      -2.910  10.397  15.002  0.00  0.00    +0.000 C 
ATOM     34  C   UNL     1      -3.173   9.780  16.367  0.00  0.00    +0.000 C 
ENDBRANCH   1  34
TORSDOF 3
ENDMDL
MODEL 5
REMARK VINA RESULT:      -6.4      3.837      7.696
REMARK  Name = 
REMARK  7 active torsions:
REMARK  status: ('A' for Active; 'I' for Inactive)
REMARK    1  A    between atoms: C_1  and  C_2
REMARK    2  A    between atoms: C_2  and  N_3
REMARK    3  A    between atoms: C_17  and  C_18
REMARK    4  A    between atoms: C_18  and  C_19
REMARK    5  A    between atoms: C_18  and  C_20
REMARK    6  A    between atoms: C_18  and  S_21
REMARK    7  A    between atoms: S_21  and  C_22
REMARK                            x       y       z     vdW  Elec       q    Type
REMARK                         _______ _______ _______ _____ _____    ______ ____
ROOT
ATOM      1  N   UNL     1       2.114  14.399  20.857  0.00  0.00    +0.000 N 
ATOM      2  C   UNL     1       1.818  15.394  19.960  0.00  0.00    +0.000 A 
ATOM      3  N   UNL     1       0.562  15.612  19.628  0.00  0.00    +0.000 NA
ATOM      4  C   UNL     1       0.588  16.544  18.658  0.00  0.00    +0.000 A 
ATOM      5  C   UNL     1      -0.541  17.041  17.978  0.00  0.00    +0.000 A 
ATOM      6  C   UNL     1      -0.346  18.007  17.007  0.00  0.00    +0.000 A 
ATOM      7  C   UNL     1       0.941  18.436  16.703  0.00  0.00    +0.000 A 
ATOM      8  C   UNL     1       2.084  17.936  17.368  0.00  0.00    +0.000 A 
ATOM      9  C   UNL     1       1.897  16.974  18.377  0.00  0.00    +0.000 A 
ATOM     10  N   UNL     1       2.726  16.291  19.265  0.00  0.00    +0.000 N 
ATOM     11  C   UNL     1       4.207  16.370  19.483  0.00  0.00    +0.000 A 
ATOM     12  N   UNL     1       5.171  17.108  18.747  0.00  0.00    +0.000 NA
ATOM     13  C   UNL     1       6.497  16.669  18.802  0.00  0.00    +0.000 A 
ATOM     14  C   UNL     1       6.639  15.430  19.415  0.00  0.00    +0.000 A 
ATOM     15  C   UNL     1       5.835  15.109  20.496  0.00  0.00    +0.000 A 
ATOM     16  N   UNL     1       4.599  15.581  20.502  0.00  0.00    +0.000 NA
ATOM     17  O   UNL     1       7.466  14.472  18.944  0.00  0.00    +0.000 OA
ATOM     18  C   UNL     1       8.740  15.051  18.913  0.00  0.00    +0.000 C 
ATOM     19  C   UNL     1       8.757  16.119  17.838  0.00  0.00    +0.000 C 
ATOM     20  C   UNL     1      10.263  16.422  17.740  0.00  0.00    +0.000 C 
ATOM     21  O   UNL     1      10.726  16.840  19.038  0.00  0.00    +0.000 OA
ATOM     22  C   UNL     1      10.147  18.110  19.314  0.00  0.00    +0.000 C 
ATOM     23  C   UNL     1       8.561  18.213  19.223  0.00  0.00    +0.000 C 
ATOM     24  N   UNL     1       7.822  17.279  18.255  0.00  0.00    +0.000 N 
ATOM     25  H   UNL     1       3.050  13.996  20.875  0.00  0.00    +0.000 HD
ENDROOT
BRANCH  15  26
ATOM     26  C   UNL     1       6.569  14.851  21.822  0.00  0.00    +0.000 C 
ATOM     27  C   UNL     1       7.590  13.677  21.783  0.00  0.00    +0.000 C 
ATOM     28  C   UNL     1       7.268  16.176  22.207  0.00  0.00    +0.000 C 
BRANCH  26  29
ATOM     29  S   UNL     1       5.377  14.420  23.131  0.00  0.00    +0.000 S 
ATOM     30  C   UNL     1       6.152  13.602  24.472  0.00  0.00    +0.000 C 
ATOM     31  O   UNL     1       4.783  15.646  23.629  0.00  0.00    +0.000 OA
ATOM     32  O   UNL     1       4.464  13.427  22.544  0.00  0.00    +0.000 OA
ENDBRANCH  26  29
ENDBRANCH  15  26
BRANCH   1  34
ATOM     33  C   UNL     1       1.143  12.124  20.492  0.00  0.00    +0.000 C 
ATOM     34  C   UNL     1       1.026  13.462  21.205  0.00  0.00    +0.000 C 
ENDBRANCH   1  34
TORSDOF 3
ENDMDL
MODEL 6
REMARK VINA RESULT:      -6.4      8.746     10.705
REMARK  Name = 
REMARK  7 active torsions:
REMARK  status: ('A' for Active; 'I' for Inactive)
REMARK    1  A    between atoms: C_1  and  C_2
REMARK    2  A    between atoms: C_2  and  N_3
REMARK    3  A    between atoms: C_17  and  C_18
REMARK    4  A    between atoms: C_18  and  C_19
REMARK    5  A    between atoms: C_18  and  C_20
REMARK    6  A    between atoms: C_18  and  S_21
REMARK    7  A    between atoms: S_21  and  C_22
REMARK                            x       y       z     vdW  Elec       q    Type
REMARK                         _______ _______ _______ _____ _____    ______ ____
ROOT
ATOM      1  N   UNL     1      -4.694  12.359  19.033  0.00  0.00    +0.000 N 
ATOM      2  C   UNL     1      -3.377  11.980  18.952  0.00  0.00    +0.000 A 
ATOM      3  N   UNL     1      -3.023  11.059  18.080  0.00  0.00    +0.000 NA
ATOM      4  C   UNL     1      -1.721  10.808  18.309  0.00  0.00    +0.000 A 
ATOM      5  C   UNL     1      -0.946   9.849  17.628  0.00  0.00    +0.000 A 
ATOM      6  C   UNL     1       0.386   9.718  17.979  0.00  0.00    +0.000 A 
ATOM      7  C   UNL     1       0.916  10.498  19.000  0.00  0.00    +0.000 A 
ATOM      8  C   UNL     1       0.146  11.455  19.700  0.00  0.00    +0.000 A 
ATOM      9  C   UNL     1      -1.202  11.618  19.334  0.00  0.00    +0.000 A 
ATOM     10  N   UNL     1      -2.245  12.452  19.732  0.00  0.00    +0.000 N 
ATOM     11  C   UNL     1      -2.287  13.559  20.742  0.00  0.00    +0.000 A 
ATOM     12  N   UNL     1      -1.269  13.974  21.641  0.00  0.00    +0.000 NA
ATOM     13  C   UNL     1      -1.667  14.667  22.789  0.00  0.00    +0.000 A 
ATOM     14  C   UNL     1      -3.044  14.661  22.982  0.00  0.00    +0.000 A 
ATOM     15  C   UNL     1      -3.886  14.744  21.885  0.00  0.00    +0.000 A 
ATOM     16  N   UNL     1      -3.491  14.163  20.764  0.00  0.00    +0.000 NA
ATOM     17  O   UNL     1      -3.610  14.479  24.194  0.00  0.00    +0.000 OA
ATOM     18  C   UNL     1      -3.096  15.494  25.010  0.00  0.00    +0.000 C 
ATOM     19  C   UNL     1      -1.624  15.223  25.244  0.00  0.00    +0.000 C 
ATOM     20  C   UNL     1      -1.307  16.226  26.367  0.00  0.00    +0.000 C 
ATOM     21  O   UNL     1      -1.628  17.549  25.897  0.00  0.00    +0.000 OA
ATOM     22  C   UNL     1      -0.693  17.883  24.878  0.00  0.00    +0.000 C 
ATOM     23  C   UNL     1      -0.564  16.868  23.659  0.00  0.00    +0.000 C 
ATOM     24  N   UNL     1      -0.856  15.383  23.909  0.00  0.00    +0.000 N 
ATOM     25  H   UNL     1      -5.043  12.796  19.884  0.00  0.00    +0.000 HD
ENDROOT
BRANCH  15  26
ATOM     26  C   UNL     1      -4.797  15.981  21.834  0.00  0.00    +0.000 C 
ATOM     27  C   UNL     1      -4.256  17.219  22.608  0.00  0.00    +0.000 C 
ATOM     28  C   UNL     1      -5.007  16.316  20.338  0.00  0.00    +0.000 C 
BRANCH  26  29
ATOM     29  S   UNL     1      -6.415  15.605  22.580  0.00  0.00    +0.000 S 
ATOM     30  C   UNL     1      -6.725  13.881  22.625  0.00  0.00    +0.000 C 
ATOM     31  O   UNL     1      -6.417  16.101  23.943  0.00  0.00    +0.000 OA
ATOM     32  O   UNL     1      -7.427  16.159  21.668  0.00  0.00    +0.000 OA
ENDBRANCH  26  29
ENDBRANCH  15  26
BRANCH   1  34
ATOM     33  C   UNL     1      -6.702  10.882  19.233  0.00  0.00    +0.000 C 
ATOM     34  C   UNL     1      -5.678  11.527  18.311  0.00  0.00    +0.000 C 
ENDBRANCH   1  34
TORSDOF 3
ENDMDL
MODEL 7
REMARK VINA RESULT:      -6.4      0.939      1.012
REMARK  Name = 
REMARK  7 active torsions:
REMARK  status: ('A' for Active; 'I' for Inactive)
REMARK    1  A    between atoms: C_1  and  C_2
REMARK    2  A    between atoms: C_2  and  N_3
REMARK    3  A    between atoms: C_17  and  C_18
REMARK    4  A    between atoms: C_18  and  C_19
REMARK    5  A    between atoms: C_18  and  C_20
REMARK    6  A    between atoms: C_18  and  S_21
REMARK    7  A    between atoms: S_21  and  C_22
REMARK                            x       y       z     vdW  Elec       q    Type
REMARK                         _______ _______ _______ _____ _____    ______ ____
ROOT
ATOM      1  N   UNL     1       6.596  14.936  19.101  0.00  0.00    +0.000 N 
ATOM      2  C   UNL     1       7.764  14.230  19.243  0.00  0.00    +0.000 A 
ATOM      3  N   UNL     1       8.407  13.821  18.168  0.00  0.00    +0.000 NA
ATOM      4  C   UNL     1       9.428  13.063  18.608  0.00  0.00    +0.000 A 
ATOM      5  C   UNL     1      10.349  12.384  17.787  0.00  0.00    +0.000 A 
ATOM      6  C   UNL     1      11.349  11.649  18.398  0.00  0.00    +0.000 A 
ATOM      7  C   UNL     1      11.406  11.569  19.784  0.00  0.00    +0.000 A 
ATOM      8  C   UNL     1      10.480  12.235  20.620  0.00  0.00    +0.000 A 
ATOM      9  C   UNL     1       9.474  13.008  20.012  0.00  0.00    +0.000 A 
ATOM     10  N   UNL     1       8.438  13.822  20.464  0.00  0.00    +0.000 N 
ATOM     11  C   UNL     1       8.022  14.202  21.854  0.00  0.00    +0.000 A 
ATOM     12  N   UNL     1       8.536  13.729  23.091  0.00  0.00    +0.000 NA
ATOM     13  C   UNL     1       7.708  13.831  24.213  0.00  0.00    +0.000 A 
ATOM     14  C   UNL     1       6.404  14.197  23.899  0.00  0.00    +0.000 A 
ATOM     15  C   UNL     1       6.178  15.105  22.878  0.00  0.00    +0.000 A 
ATOM     16  N   UNL     1       7.000  15.078  21.842  0.00  0.00    +0.000 NA
ATOM     17  O   UNL     1       5.327  13.632  24.485  0.00  0.00    +0.000 OA
ATOM     18  C   UNL     1       5.484  13.847  25.859  0.00  0.00    +0.000 C 
ATOM     19  C   UNL     1       6.651  13.013  26.346  0.00  0.00    +0.000 C 
ATOM     20  C   UNL     1       6.489  13.131  27.872  0.00  0.00    +0.000 C 
ATOM     21  O   UNL     1       6.533  14.526  28.226  0.00  0.00    +0.000 OA
ATOM     22  C   UNL     1       7.859  14.988  27.994  0.00  0.00    +0.000 C 
ATOM     23  C   UNL     1       8.456  14.758  26.537  0.00  0.00    +0.000 C 
ATOM     24  N   UNL     1       7.960  13.554  25.725  0.00  0.00    +0.000 N 
ATOM     25  H   UNL     1       5.929  14.970  19.869  0.00  0.00    +0.000 HD
ENDROOT
BRANCH  15  26
ATOM     26  C   UNL     1       5.500  16.421  23.293  0.00  0.00    +0.000 C 
ATOM     27  C   UNL     1       5.592  16.751  24.811  0.00  0.00    +0.000 C 
ATOM     28  C   UNL     1       6.149  17.542  22.445  0.00  0.00    +0.000 C 
BRANCH  26  29
ATOM     29  S   UNL     1       3.719  16.361  22.912  0.00  0.00    +0.000 S 
ATOM     30  C   UNL     1       3.304  14.946  21.965  0.00  0.00    +0.000 C 
ATOM     31  O   UNL     1       2.986  16.301  24.162  0.00  0.00    +0.000 OA
ATOM     32  O   UNL     1       3.447  17.510  22.035  0.00  0.00    +0.000 OA
ENDBRANCH  26  29
ENDBRANCH  15  26
BRANCH   1  34
ATOM     33  C   UNL     1       4.504  15.271  17.774  0.00  0.00    +0.000 C 
ATOM     34  C   UNL     1       5.996  14.978  17.752  0.00  0.00    +0.000 C 
ENDBRANCH   1  34
TORSDOF 3
ENDMDL
MODEL 8
REMARK VINA RESULT:      -6.3      2.627      6.741
REMARK  Name = 
REMARK  7 active torsions:
REMARK  status: ('A' for Active; 'I' for Inactive)
REMARK    1  A    between atoms: C_1  and  C_2
REMARK    2  A    between atoms: C_2  and  N_3
REMARK    3  A    between atoms: C_17  and  C_18
REMARK    4  A    between atoms: C_18  and  C_19
REMARK    5  A    between atoms: C_18  and  C_20
REMARK    6  A    between atoms: C_18  and  S_21
REMARK    7  A    between atoms: S_21  and  C_22
REMARK                            x       y       z     vdW  Elec       q    Type
REMARK                         _______ _______ _______ _____ _____    ______ ____
ROOT
ATOM      1  N   UNL     1       5.723  15.972  24.103  0.00  0.00    +0.000 N 
ATOM      2  C   UNL     1       5.714  14.738  24.705  0.00  0.00    +0.000 A 
ATOM      3  N   UNL     1       5.055  14.575  25.833  0.00  0.00    +0.000 NA
ATOM      4  C   UNL     1       5.323  13.322  26.245  0.00  0.00    +0.000 A 
ATOM      5  C   UNL     1       4.856  12.742  27.440  0.00  0.00    +0.000 A 
ATOM      6  C   UNL     1       5.217  11.435  27.716  0.00  0.00    +0.000 A 
ATOM      7  C   UNL     1       6.045  10.743  26.841  0.00  0.00    +0.000 A 
ATOM      8  C   UNL     1       6.532  11.318  25.644  0.00  0.00    +0.000 A 
ATOM      9  C   UNL     1       6.149  12.637  25.337  0.00  0.00    +0.000 A 
ATOM     10  N   UNL     1       6.368  13.514  24.277  0.00  0.00    +0.000 N 
ATOM     11  C   UNL     1       7.121  13.332  22.993  0.00  0.00    +0.000 A 
ATOM     12  N   UNL     1       7.904  12.224  22.575  0.00  0.00    +0.000 NA
ATOM     13  C   UNL     1       8.881  12.455  21.603  0.00  0.00    +0.000 A 
ATOM     14  C   UNL     1       9.081  13.806  21.339  0.00  0.00    +0.000 A 
ATOM     15  C   UNL     1       7.998  14.669  21.346  0.00  0.00    +0.000 A 
ATOM     16  N   UNL     1       7.023  14.421  22.205  0.00  0.00    +0.000 NA
ATOM     17  O   UNL     1      10.309  14.342  21.167  0.00  0.00    +0.000 OA
ATOM     18  C   UNL     1      10.886  13.636  20.105  0.00  0.00    +0.000 C 
ATOM     19  C   UNL     1      11.162  12.218  20.564  0.00  0.00    +0.000 C 
ATOM     20  C   UNL     1      12.045  11.697  19.416  0.00  0.00    +0.000 C 
ATOM     21  O   UNL     1      11.307  11.819  18.185  0.00  0.00    +0.000 OA
ATOM     22  C   UNL     1      10.233  10.886  18.231  0.00  0.00    +0.000 C 
ATOM     23  C   UNL     1       9.256  10.975  19.485  0.00  0.00    +0.000 C 
ATOM     24  N   UNL     1       9.819  11.493  20.815  0.00  0.00    +0.000 N 
ATOM     25  H   UNL     1       6.465  16.209  23.447  0.00  0.00    +0.000 HD
ENDROOT
BRANCH  15  26
ATOM     26  C   UNL     1       7.693  15.369  20.012  0.00  0.00    +0.000 C 
ATOM     27  C   UNL     1       8.614  16.580  19.687  0.00  0.00    +0.000 C 
ATOM     28  C   UNL     1       7.795  14.288  18.910  0.00  0.00    +0.000 C 
BRANCH  26  29
ATOM     29  S   UNL     1       5.996  16.031  20.021  0.00  0.00    +0.000 S 
ATOM     30  C   UNL     1       5.682  17.036  18.620  0.00  0.00    +0.000 C 
ATOM     31  O   UNL     1       5.069  14.916  19.995  0.00  0.00    +0.000 OA
ATOM     32  O   UNL     1       5.915  16.938  21.176  0.00  0.00    +0.000 OA
ENDBRANCH  26  29
ENDBRANCH  15  26
BRANCH   1  34
ATOM     33  C   UNL     1       4.003  17.781  24.240  0.00  0.00    +0.000 C 
ATOM     34  C   UNL     1       5.201  17.107  24.891  0.00  0.00    +0.000 C 
ENDBRANCH   1  34
TORSDOF 3
ENDMDL
MODEL 9
REMARK VINA RESULT:      -6.3      8.093     11.395
REMARK  Name = 
REMARK  7 active torsions:
REMARK  status: ('A' for Active; 'I' for Inactive)
REMARK    1  A    between atoms: C_1  and  C_2
REMARK    2  A    between atoms: C_2  and  N_3
REMARK    3  A    between atoms: C_17  and  C_18
REMARK    4  A    between atoms: C_18  and  C_19
REMARK    5  A    between atoms: C_18  and  C_20
REMARK    6  A    between atoms: C_18  and  S_21
REMARK    7  A    between atoms: S_21  and  C_22
REMARK                            x       y       z     vdW  Elec       q    Type
REMARK                         _______ _______ _______ _____ _____    ______ ____
ROOT
ATOM      1  N   UNL     1      -2.755  11.938  17.818  0.00  0.00    +0.000 N 
ATOM      2  C   UNL     1      -3.801  11.847  18.702  0.00  0.00    +0.000 A 
ATOM      3  N   UNL     1      -4.827  11.073  18.411  0.00  0.00    +0.000 NA
ATOM      4  C   UNL     1      -5.736  11.277  19.382  0.00  0.00    +0.000 A 
ATOM      5  C   UNL     1      -7.011  10.681  19.440  0.00  0.00    +0.000 A 
ATOM      6  C   UNL     1      -7.827  10.990  20.514  0.00  0.00    +0.000 A 
ATOM      7  C   UNL     1      -7.395  11.891  21.479  0.00  0.00    +0.000 A 
ATOM      8  C   UNL     1      -6.123  12.507  21.426  0.00  0.00    +0.000 A 
ATOM      9  C   UNL     1      -5.272  12.180  20.355  0.00  0.00    +0.000 A 
ATOM     10  N   UNL     1      -3.974  12.520  19.978  0.00  0.00    +0.000 N 
ATOM     11  C   UNL     1      -2.956  13.396  20.644  0.00  0.00    +0.000 A 
ATOM     12  N   UNL     1      -3.104  14.198  21.806  0.00  0.00    +0.000 NA
ATOM     13  C   UNL     1      -2.225  15.273  21.963  0.00  0.00    +0.000 A 
ATOM     14  C   UNL     1      -1.457  15.522  20.831  0.00  0.00    +0.000 A 
ATOM     15  C   UNL     1      -1.005  14.458  20.067  0.00  0.00    +0.000 A 
ATOM     16  N   UNL     1      -1.789  13.397  19.971  0.00  0.00    +0.000 NA
ATOM     17  O   UNL     1      -1.205  16.769  20.379  0.00  0.00    +0.000 OA
ATOM     18  C   UNL     1      -0.585  17.440  21.439  0.00  0.00    +0.000 C 
ATOM     19  C   UNL     1      -1.603  17.644  22.542  0.00  0.00    +0.000 C 
ATOM     20  C   UNL     1      -0.860  18.629  23.461  0.00  0.00    +0.000 C 
ATOM     21  O   UNL     1       0.381  18.022  23.866  0.00  0.00    +0.000 OA
ATOM     22  C   UNL     1       0.068  16.934  24.728  0.00  0.00    +0.000 C 
ATOM     23  C   UNL     1      -0.937  15.837  24.165  0.00  0.00    +0.000 C 
ATOM     24  N   UNL     1      -1.993  16.270  23.138  0.00  0.00    +0.000 N 
ATOM     25  H   UNL     1      -2.136  12.746  17.848  0.00  0.00    +0.000 HD
ENDROOT
BRANCH  15  26
ATOM     26  C   UNL     1       0.522  14.302  19.976  0.00  0.00    +0.000 C 
ATOM     27  C   UNL     1       1.241  15.407  19.149  0.00  0.00    +0.000 C 
ATOM     28  C   UNL     1       1.052  14.269  21.429  0.00  0.00    +0.000 C 
BRANCH  26  29
ATOM     29  S   UNL     1       0.947  12.727  19.165  0.00  0.00    +0.000 S 
ATOM     30  C   UNL     1       2.544  12.777  18.445  0.00  0.00    +0.000 C 
ATOM     31  O   UNL     1       0.935  11.679  20.168  0.00  0.00    +0.000 OA
ATOM     32  O   UNL     1       0.015  12.580  18.037  0.00  0.00    +0.000 OA
ENDBRANCH  26  29
ENDBRANCH  15  26
BRANCH   1  34
ATOM     33  C   UNL     1      -2.315   9.988  16.316  0.00  0.00    +0.000 C 
ATOM     34  C   UNL     1      -2.958  11.357  16.475  0.00  0.00    +0.000 C 
ENDBRANCH   1  34
TORSDOF 3
ENDMDL
