MODEL 1
REMARK VINA RESULT:      -9.2      0.000      0.000
REMARK  Name = 
REMARK  4 active torsions:
REMARK  status: ('A' for Active; 'I' for Inactive)
REMARK    1  A    between atoms: C_1  and  S_2
REMARK    2  A    between atoms: S_2  and  C_5
REMARK    3  A    between atoms: C_8  and  C_9
REMARK    4  A    between atoms: C_18  and  C_19
REMARK                            x       y       z     vdW  Elec       q    Type
REMARK                         _______ _______ _______ _____ _____    ______ ____
ROOT
ATOM      1  C   UNL     1       3.536   6.276  18.354  0.00  0.00    +0.000 A 
ATOM      2  N   UNL     1       4.862   6.479  18.267  0.00  0.00    +0.000 NA
ATOM      3  C   UNL     1       5.525   5.614  17.461  0.00  0.00    +0.000 A 
ATOM      4  C   UNL     1       6.863   5.262  17.613  0.00  0.00    +0.000 A 
ATOM      5  C   UNL     1       7.503   4.434  16.681  0.00  0.00    +0.000 A 
ATOM      6  C   UNL     1       6.848   4.082  15.505  0.00  0.00    +0.000 A 
ATOM      7  C   UNL     1       5.484   4.316  15.402  0.00  0.00    +0.000 A 
ATOM      8  C   UNL     1       4.825   4.886  16.495  0.00  0.00    +0.000 A 
ATOM      9  C   UNL     1       3.518   4.537  16.835  0.00  0.00    +0.000 A 
ATOM     10  C   UNL     1       3.052   5.016  18.049  0.00  0.00    +0.000 A 
ENDROOT
BRANCH   1  14
ATOM     11  C   UNL     1       0.782   9.376  19.478  0.00  0.00    +0.000 A 
ATOM     12  C   UNL     1       1.270   9.320  18.181  0.00  0.00    +0.000 A 
ATOM     13  C   UNL     1       2.166   8.302  17.853  0.00  0.00    +0.000 A 
ATOM     14  C   UNL     1       2.597   7.331  18.796  0.00  0.00    +0.000 A 
ATOM     15  C   UNL     1       2.109   7.440  20.103  0.00  0.00    +0.000 A 
ATOM     16  C   UNL     1       1.208   8.458  20.444  0.00  0.00    +0.000 A 
BRANCH  11  18
ATOM     17  C   UNL     1       0.523  12.132  19.460  0.00  0.00    +0.000 C 
ATOM     18  S   UNL     1      -0.382  10.664  19.877  0.00  0.00    +0.000 S 
ATOM     19  O   UNL     1      -0.591  10.646  21.300  0.00  0.00    +0.000 OA
ATOM     20  O   UNL     1      -1.493  10.538  18.945  0.00  0.00    +0.000 OA
ENDBRANCH  11  18
ENDBRANCH   1  14
BRANCH  10  21
ATOM     21  C   UNL     1       2.577   4.166  19.181  0.00  0.00    +0.000 A 
ATOM     22  C   UNL     1       1.180   3.973  19.364  0.00  0.00    +0.000 A 
ATOM     23  C   UNL     1       0.643   3.211  20.404  0.00  0.00    +0.000 A 
ATOM     24  C   UNL     1       1.505   2.651  21.334  0.00  0.00    +0.000 A 
ATOM     25  C   UNL     1       2.879   2.870  21.220  0.00  0.00    +0.000 A 
ATOM     26  C   UNL     1       3.414   3.625  20.162  0.00  0.00    +0.000 A 
ENDBRANCH  10  21
TORSDOF 3
ENDMDL
MODEL 2
REMARK VINA RESULT:      -9.2      0.724      1.280
REMARK  Name = 
REMARK  4 active torsions:
REMARK  status: ('A' for Active; 'I' for Inactive)
REMARK    1  A    between atoms: C_1  and  S_2
REMARK    2  A    between atoms: S_2  and  C_5
REMARK    3  A    between atoms: C_8  and  C_9
REMARK    4  A    between atoms: C_18  and  C_19
REMARK                            x       y       z     vdW  Elec       q    Type
REMARK                         _______ _______ _______ _____ _____    ______ ____
ROOT
ATOM      1  C   UNL     1       3.510   6.348  18.338  0.00  0.00    +0.000 A 
ATOM      2  N   UNL     1       4.840   6.531  18.261  0.00  0.00    +0.000 NA
ATOM      3  C   UNL     1       5.499   5.632  17.488  0.00  0.00    +0.000 A 
ATOM      4  C   UNL     1       6.830   5.266  17.666  0.00  0.00    +0.000 A 
ATOM      5  C   UNL     1       7.468   4.402  16.767  0.00  0.00    +0.000 A 
ATOM      6  C   UNL     1       6.821   4.025  15.594  0.00  0.00    +0.000 A 
ATOM      7  C   UNL     1       5.462   4.275  15.468  0.00  0.00    +0.000 A 
ATOM      8  C   UNL     1       4.799   4.886  16.537  0.00  0.00    +0.000 A 
ATOM      9  C   UNL     1       3.483   4.565  16.872  0.00  0.00    +0.000 A 
ATOM     10  C   UNL     1       3.011   5.088  18.065  0.00  0.00    +0.000 A 
ENDROOT
BRANCH   1  14
ATOM     11  C   UNL     1       0.790   9.521  19.339  0.00  0.00    +0.000 A 
ATOM     12  C   UNL     1       1.299   9.424  18.052  0.00  0.00    +0.000 A 
ATOM     13  C   UNL     1       2.183   8.384  17.765  0.00  0.00    +0.000 A 
ATOM     14  C   UNL     1       2.581   7.429  18.739  0.00  0.00    +0.000 A 
ATOM     15  C   UNL     1       2.073   7.578  20.033  0.00  0.00    +0.000 A 
ATOM     16  C   UNL     1       1.184   8.620  20.334  0.00  0.00    +0.000 A 
BRANCH  11  18
ATOM     17  C   UNL     1      -0.568  10.700  21.442  0.00  0.00    +0.000 C 
ATOM     18  S   UNL     1      -0.359  10.836  19.686  0.00  0.00    +0.000 S 
ATOM     19  O   UNL     1      -1.609  10.511  19.051  0.00  0.00    +0.000 OA
ATOM     20  O   UNL     1       0.330  12.088  19.409  0.00  0.00    +0.000 OA
ENDBRANCH  11  18
ENDBRANCH   1  14
BRANCH  10  21
ATOM     21  C   UNL     1       2.512   4.278  19.217  0.00  0.00    +0.000 A 
ATOM     22  C   UNL     1       3.445   3.574  20.026  0.00  0.00    +0.000 A 
ATOM     23  C   UNL     1       3.070   2.778  21.110  0.00  0.00    +0.000 A 
ATOM     24  C   UNL     1       1.721   2.625  21.390  0.00  0.00    +0.000 A 
ATOM     25  C   UNL     1       0.773   3.254  20.579  0.00  0.00    +0.000 A 
ATOM     26  C   UNL     1       1.159   4.065  19.499  0.00  0.00    +0.000 A 
ENDBRANCH  10  21
TORSDOF 3
ENDMDL
MODEL 3
REMARK VINA RESULT:      -9.2      0.187      1.348
REMARK  Name = 
REMARK  4 active torsions:
REMARK  status: ('A' for Active; 'I' for Inactive)
REMARK    1  A    between atoms: C_1  and  S_2
REMARK    2  A    between atoms: S_2  and  C_5
REMARK    3  A    between atoms: C_8  and  C_9
REMARK    4  A    between atoms: C_18  and  C_19
REMARK                            x       y       z     vdW  Elec       q    Type
REMARK                         _______ _______ _______ _____ _____    ______ ____
ROOT
ATOM      1  C   UNL     1       3.492   6.351  18.323  0.00  0.00    +0.000 A 
ATOM      2  N   UNL     1       4.821   6.542  18.267  0.00  0.00    +0.000 NA
ATOM      3  C   UNL     1       5.499   5.644  17.510  0.00  0.00    +0.000 A 
ATOM      4  C   UNL     1       6.829   5.287  17.712  0.00  0.00    +0.000 A 
ATOM      5  C   UNL     1       7.488   4.423  16.828  0.00  0.00    +0.000 A 
ATOM      6  C   UNL     1       6.863   4.036  15.647  0.00  0.00    +0.000 A 
ATOM      7  C   UNL     1       5.505   4.276  15.497  0.00  0.00    +0.000 A 
ATOM      8  C   UNL     1       4.820   4.888  16.551  0.00  0.00    +0.000 A 
ATOM      9  C   UNL     1       3.501   4.561  16.866  0.00  0.00    +0.000 A 
ATOM     10  C   UNL     1       3.006   5.086  18.049  0.00  0.00    +0.000 A 
ENDROOT
BRANCH   1  14
ATOM     11  C   UNL     1       0.786   9.442  19.584  0.00  0.00    +0.000 A 
ATOM     12  C   UNL     1       1.217   8.486  20.491  0.00  0.00    +0.000 A 
ATOM     13  C   UNL     1       2.092   7.495  20.046  0.00  0.00    +0.000 A 
ATOM     14  C   UNL     1       2.550   7.428  18.702  0.00  0.00    +0.000 A 
ATOM     15  C   UNL     1       2.068   8.391  17.808  0.00  0.00    +0.000 A 
ATOM     16  C   UNL     1       1.189   9.391  18.245  0.00  0.00    +0.000 A 
BRANCH  11  18
ATOM     17  C   UNL     1       0.666  12.184  19.945  0.00  0.00    +0.000 C 
ATOM     18  S   UNL     1      -0.308  10.718  20.172  0.00  0.00    +0.000 S 
ATOM     19  O   UNL     1      -0.505  10.516  21.583  0.00  0.00    +0.000 OA
ATOM     20  O   UNL     1      -1.432  10.775  19.249  0.00  0.00    +0.000 OA
ENDBRANCH  11  18
ENDBRANCH   1  14
BRANCH  10  21
ATOM     21  C   UNL     1       2.492   4.279  19.196  0.00  0.00    +0.000 A 
ATOM     22  C   UNL     1       3.420   3.627  20.055  0.00  0.00    +0.000 A 
ATOM     23  C   UNL     1       3.033   2.838  21.140  0.00  0.00    +0.000 A 
ATOM     24  C   UNL     1       1.681   2.637  21.370  0.00  0.00    +0.000 A 
ATOM     25  C   UNL     1       0.742   3.213  20.510  0.00  0.00    +0.000 A 
ATOM     26  C   UNL     1       1.139   4.019  19.430  0.00  0.00    +0.000 A 
ENDBRANCH  10  21
TORSDOF 3
ENDMDL
MODEL 4
REMARK VINA RESULT:      -9.1      0.693      1.354
REMARK  Name = 
REMARK  4 active torsions:
REMARK  status: ('A' for Active; 'I' for Inactive)
REMARK    1  A    between atoms: C_1  and  S_2
REMARK    2  A    between atoms: S_2  and  C_5
REMARK    3  A    between atoms: C_8  and  C_9
REMARK    4  A    between atoms: C_18  and  C_19
REMARK                            x       y       z     vdW  Elec       q    Type
REMARK                         _______ _______ _______ _____ _____    ______ ____
ROOT
ATOM      1  C   UNL     1       3.560   6.299  18.279  0.00  0.00    +0.000 A 
ATOM      2  N   UNL     1       4.889   6.479  18.191  0.00  0.00    +0.000 NA
ATOM      3  C   UNL     1       5.538   5.593  17.394  0.00  0.00    +0.000 A 
ATOM      4  C   UNL     1       6.869   5.219  17.551  0.00  0.00    +0.000 A 
ATOM      5  C   UNL     1       7.495   4.370  16.630  0.00  0.00    +0.000 A 
ATOM      6  C   UNL     1       6.834   4.016  15.458  0.00  0.00    +0.000 A 
ATOM      7  C   UNL     1       5.475   4.272  15.351  0.00  0.00    +0.000 A 
ATOM      8  C   UNL     1       4.825   4.865  16.438  0.00  0.00    +0.000 A 
ATOM      9  C   UNL     1       3.512   4.543  16.781  0.00  0.00    +0.000 A 
ATOM     10  C   UNL     1       3.054   5.045  17.989  0.00  0.00    +0.000 A 
ENDROOT
BRANCH   1  14
ATOM     11  C   UNL     1       0.917   9.381  19.685  0.00  0.00    +0.000 A 
ATOM     12  C   UNL     1       1.339   8.382  20.550  0.00  0.00    +0.000 A 
ATOM     13  C   UNL     1       2.193   7.396  20.058  0.00  0.00    +0.000 A 
ATOM     14  C   UNL     1       2.639   7.375  18.709  0.00  0.00    +0.000 A 
ATOM     15  C   UNL     1       2.166   8.380  17.858  0.00  0.00    +0.000 A 
ATOM     16  C   UNL     1       1.308   9.377  18.341  0.00  0.00    +0.000 A 
BRANCH  11  18
ATOM     17  C   UNL     1      -0.493  10.056  21.970  0.00  0.00    +0.000 C 
ATOM     18  S   UNL     1      -0.151  10.651  20.333  0.00  0.00    +0.000 S 
ATOM     19  O   UNL     1      -1.374  10.629  19.576  0.00  0.00    +0.000 OA
ATOM     20  O   UNL     1       0.648  11.861  20.450  0.00  0.00    +0.000 OA
ENDBRANCH  11  18
ENDBRANCH   1  14
BRANCH  10  21
ATOM     21  C   UNL     1       2.565   4.216  19.131  0.00  0.00    +0.000 A 
ATOM     22  C   UNL     1       1.170   3.969  19.260  0.00  0.00    +0.000 A 
ATOM     23  C   UNL     1       0.619   3.222  20.303  0.00  0.00    +0.000 A 
ATOM     24  C   UNL     1       1.461   2.734  21.291  0.00  0.00    +0.000 A 
ATOM     25  C   UNL     1       2.829   3.010  21.229  0.00  0.00    +0.000 A 
ATOM     26  C   UNL     1       3.378   3.748  20.167  0.00  0.00    +0.000 A 
ENDBRANCH  10  21
TORSDOF 3
ENDMDL
MODEL 5
REMARK VINA RESULT:      -7.6      3.737      8.557
REMARK  Name = 
REMARK  4 active torsions:
REMARK  status: ('A' for Active; 'I' for Inactive)
REMARK    1  A    between atoms: C_1  and  S_2
REMARK    2  A    between atoms: S_2  and  C_5
REMARK    3  A    between atoms: C_8  and  C_9
REMARK    4  A    between atoms: C_18  and  C_19
REMARK                            x       y       z     vdW  Elec       q    Type
REMARK                         _______ _______ _______ _____ _____    ______ ____
ROOT
ATOM      1  C   UNL     1       0.585  10.840  19.773  0.00  0.00    +0.000 A 
ATOM      2  N   UNL     1       1.223  11.995  20.032  0.00  0.00    +0.000 NA
ATOM      3  C   UNL     1       0.563  12.843  20.860  0.00  0.00    +0.000 A 
ATOM      4  C   UNL     1       0.710  14.227  20.850  0.00  0.00    +0.000 A 
ATOM      5  C   UNL     1       0.065  15.029  21.801  0.00  0.00    +0.000 A 
ATOM      6  C   UNL     1      -0.605  14.434  22.865  0.00  0.00    +0.000 A 
ATOM      7  C   UNL     1      -0.866  13.072  22.816  0.00  0.00    +0.000 A 
ATOM      8  C   UNL     1      -0.453  12.358  21.687  0.00  0.00    +0.000 A 
ATOM      9  C   UNL     1      -1.195  11.296  21.170  0.00  0.00    +0.000 A 
ATOM     10  C   UNL     1      -0.788  10.806  19.940  0.00  0.00    +0.000 A 
ENDROOT
BRANCH   1  14
ATOM     11  C   UNL     1       2.573   7.256  18.484  0.00  0.00    +0.000 A 
ATOM     12  C   UNL     1       2.060   7.340  19.769  0.00  0.00    +0.000 A 
ATOM     13  C   UNL     1       1.425   8.520  20.155  0.00  0.00    +0.000 A 
ATOM     14  C   UNL     1       1.291   9.635  19.284  0.00  0.00    +0.000 A 
ATOM     15  C   UNL     1       1.850   9.525  18.006  0.00  0.00    +0.000 A 
ATOM     16  C   UNL     1       2.491   8.344  17.607  0.00  0.00    +0.000 A 
BRANCH  11  18
ATOM     17  C   UNL     1       4.215   5.260  19.474  0.00  0.00    +0.000 C 
ATOM     18  S   UNL     1       3.357   5.733  17.995  0.00  0.00    +0.000 S 
ATOM     19  O   UNL     1       4.331   6.042  16.982  0.00  0.00    +0.000 OA
ATOM     20  O   UNL     1       2.297   4.765  17.758  0.00  0.00    +0.000 OA
ENDBRANCH  11  18
ENDBRANCH   1  14
BRANCH  10  21
ATOM     21  C   UNL     1      -1.633  10.769  18.709  0.00  0.00    +0.000 A 
ATOM     22  C   UNL     1      -2.798  11.581  18.644  0.00  0.00    +0.000 A 
ATOM     23  C   UNL     1      -3.658  11.599  17.544  0.00  0.00    +0.000 A 
ATOM     24  C   UNL     1      -3.395  10.752  16.479  0.00  0.00    +0.000 A 
ATOM     25  C   UNL     1      -2.292   9.896  16.535  0.00  0.00    +0.000 A 
ATOM     26  C   UNL     1      -1.423   9.895  17.638  0.00  0.00    +0.000 A 
ENDBRANCH  10  21
TORSDOF 3
ENDMDL
MODEL 6
REMARK VINA RESULT:      -7.4      3.876      8.187
REMARK  Name = 
REMARK  4 active torsions:
REMARK  status: ('A' for Active; 'I' for Inactive)
REMARK    1  A    between atoms: C_1  and  S_2
REMARK    2  A    between atoms: S_2  and  C_5
REMARK    3  A    between atoms: C_8  and  C_9
REMARK    4  A    between atoms: C_18  and  C_19
REMARK                            x       y       z     vdW  Elec       q    Type
REMARK                         _______ _______ _______ _____ _____    ______ ____
ROOT
ATOM      1  C   UNL     1       1.100  11.093  19.110  0.00  0.00    +0.000 A 
ATOM      2  N   UNL     1       1.950  12.025  18.645  0.00  0.00    +0.000 NA
ATOM      3  C   UNL     1       1.654  13.301  18.996  0.00  0.00    +0.000 A 
ATOM      4  C   UNL     1       2.002  14.424  18.251  0.00  0.00    +0.000 A 
ATOM      5  C   UNL     1       1.743  15.716  18.728  0.00  0.00    +0.000 A 
ATOM      6  C   UNL     1       1.275  15.891  20.027  0.00  0.00    +0.000 A 
ATOM      7  C   UNL     1       0.805  14.788  20.725  0.00  0.00    +0.000 A 
ATOM      8  C   UNL     1       0.812  13.546  20.084  0.00  0.00    +0.000 A 
ATOM      9  C   UNL     1      -0.188  12.597  20.298  0.00  0.00    +0.000 A 
ATOM     10  C   UNL     1      -0.177  11.496  19.456  0.00  0.00    +0.000 A 
ENDROOT
BRANCH   1  14
ATOM     11  C   UNL     1       2.269   6.963  19.305  0.00  0.00    +0.000 A 
ATOM     12  C   UNL     1       2.492   7.693  18.146  0.00  0.00    +0.000 A 
ATOM     13  C   UNL     1       2.095   9.030  18.118  0.00  0.00    +0.000 A 
ATOM     14  C   UNL     1       1.471   9.665  19.224  0.00  0.00    +0.000 A 
ATOM     15  C   UNL     1       1.233   8.888  20.364  0.00  0.00    +0.000 A 
ATOM     16  C   UNL     1       1.626   7.543  20.404  0.00  0.00    +0.000 A 
BRANCH  11  18
ATOM     17  C   UNL     1       2.002   4.646  20.794  0.00  0.00    +0.000 C 
ATOM     18  S   UNL     1       2.805   5.265  19.339  0.00  0.00    +0.000 S 
ATOM     19  O   UNL     1       4.226   5.254  19.563  0.00  0.00    +0.000 OA
ATOM     20  O   UNL     1       2.214   4.608  18.182  0.00  0.00    +0.000 OA
ENDBRANCH  11  18
ENDBRANCH   1  14
BRANCH  10  21
ATOM     21  C   UNL     1      -1.296  11.098  18.551  0.00  0.00    +0.000 A 
ATOM     22  C   UNL     1      -2.576  11.692  18.730  0.00  0.00    +0.000 A 
ATOM     23  C   UNL     1      -3.685  11.369  17.944  0.00  0.00    +0.000 A 
ATOM     24  C   UNL     1      -3.551  10.390  16.972  0.00  0.00    +0.000 A 
ATOM     25  C   UNL     1      -2.324   9.743  16.810  0.00  0.00    +0.000 A 
ATOM     26  C   UNL     1      -1.209  10.084  17.593  0.00  0.00    +0.000 A 
ENDBRANCH  10  21
TORSDOF 3
ENDMDL
MODEL 7
REMARK VINA RESULT:      -7.4      3.979      8.489
REMARK  Name = 
REMARK  4 active torsions:
REMARK  status: ('A' for Active; 'I' for Inactive)
REMARK    1  A    between atoms: C_1  and  S_2
REMARK    2  A    between atoms: S_2  and  C_5
REMARK    3  A    between atoms: C_8  and  C_9
REMARK    4  A    between atoms: C_18  and  C_19
REMARK                            x       y       z     vdW  Elec       q    Type
REMARK                         _______ _______ _______ _____ _____    ______ ____
ROOT
ATOM      1  C   UNL     1       0.748  11.306  19.171  0.00  0.00    +0.000 A 
ATOM      2  N   UNL     1       1.498  12.383  18.881  0.00  0.00    +0.000 NA
ATOM      3  C   UNL     1       1.028  13.559  19.366  0.00  0.00    +0.000 A 
ATOM      4  C   UNL     1       1.271  14.802  18.790  0.00  0.00    +0.000 A 
ATOM      5  C   UNL     1       0.829  15.982  19.405  0.00  0.00    +0.000 A 
ATOM      6  C   UNL     1       0.279  15.931  20.681  0.00  0.00    +0.000 A 
ATOM      7  C   UNL     1      -0.084  14.699  21.206  0.00  0.00    +0.000 A 
ATOM      8  C   UNL     1       0.109  13.560  20.418  0.00  0.00    +0.000 A 
ATOM      9  C   UNL     1      -0.775  12.481  20.448  0.00  0.00    +0.000 A 
ATOM     10  C   UNL     1      -0.585  11.508  19.480  0.00  0.00    +0.000 A 
ENDROOT
BRANCH   1  14
ATOM     11  C   UNL     1       2.227   7.272  19.198  0.00  0.00    +0.000 A 
ATOM     12  C   UNL     1       1.625   7.797  20.332  0.00  0.00    +0.000 A 
ATOM     13  C   UNL     1       1.160   9.111  20.288  0.00  0.00    +0.000 A 
ATOM     14  C   UNL     1       1.287   9.927  19.132  0.00  0.00    +0.000 A 
ATOM     15  C   UNL     1       1.930   9.374  18.019  0.00  0.00    +0.000 A 
ATOM     16  C   UNL     1       2.401   8.055  18.052  0.00  0.00    +0.000 A 
BRANCH  11  18
ATOM     17  C   UNL     1       1.888   4.933  20.640  0.00  0.00    +0.000 C 
ATOM     18  S   UNL     1       2.791   5.583  19.258  0.00  0.00    +0.000 S 
ATOM     19  O   UNL     1       4.191   5.596  19.594  0.00  0.00    +0.000 OA
ATOM     20  O   UNL     1       2.306   4.929  18.053  0.00  0.00    +0.000 OA
ENDBRANCH  11  18
ENDBRANCH   1  14
BRANCH  10  21
ATOM     21  C   UNL     1      -1.600  11.103  18.461  0.00  0.00    +0.000 A 
ATOM     22  C   UNL     1      -2.891  11.698  18.495  0.00  0.00    +0.000 A 
ATOM     23  C   UNL     1      -3.908  11.370  17.596  0.00  0.00    +0.000 A 
ATOM     24  C   UNL     1      -3.670  10.383  16.652  0.00  0.00    +0.000 A 
ATOM     25  C   UNL     1      -2.433   9.735  16.628  0.00  0.00    +0.000 A 
ATOM     26  C   UNL     1      -1.409  10.082  17.526  0.00  0.00    +0.000 A 
ENDBRANCH  10  21
TORSDOF 3
ENDMDL
MODEL 8
REMARK VINA RESULT:      -7.4      3.752      9.085
REMARK  Name = 
REMARK  4 active torsions:
REMARK  status: ('A' for Active; 'I' for Inactive)
REMARK    1  A    between atoms: C_1  and  S_2
REMARK    2  A    between atoms: S_2  and  C_5
REMARK    3  A    between atoms: C_8  and  C_9
REMARK    4  A    between atoms: C_18  and  C_19
REMARK                            x       y       z     vdW  Elec       q    Type
REMARK                         _______ _______ _______ _____ _____    ______ ____
ROOT
ATOM      1  C   UNL     1       0.170  10.743  20.150  0.00  0.00    +0.000 A 
ATOM      2  N   UNL     1      -0.500  10.697  21.314  0.00  0.00    +0.000 NA
ATOM      3  C   UNL     1      -1.507  11.598  21.434  0.00  0.00    +0.000 A 
ATOM      4  C   UNL     1      -1.961  12.117  22.643  0.00  0.00    +0.000 A 
ATOM      5  C   UNL     1      -3.070  12.971  22.692  0.00  0.00    +0.000 A 
ATOM      6  C   UNL     1      -3.827  13.186  21.545  0.00  0.00    +0.000 A 
ATOM      7  C   UNL     1      -3.316  12.785  20.319  0.00  0.00    +0.000 A 
ATOM      8  C   UNL     1      -2.050  12.191  20.291  0.00  0.00    +0.000 A 
ATOM      9  C   UNL     1      -1.160  12.395  19.237  0.00  0.00    +0.000 A 
ATOM     10  C   UNL     1       0.128  11.919  19.423  0.00  0.00    +0.000 A 
ENDROOT
BRANCH   1  14
ATOM     11  C   UNL     1       2.454   7.351  18.832  0.00  0.00    +0.000 A 
ATOM     12  C   UNL     1       2.036   7.434  20.152  0.00  0.00    +0.000 A 
ATOM     13  C   UNL     1       1.300   8.552  20.545  0.00  0.00    +0.000 A 
ATOM     14  C   UNL     1       0.971   9.603  19.648  0.00  0.00    +0.000 A 
ATOM     15  C   UNL     1       1.439   9.500  18.334  0.00  0.00    +0.000 A 
ATOM     16  C   UNL     1       2.179   8.382  17.927  0.00  0.00    +0.000 A 
BRANCH  11  18
ATOM     17  C   UNL     1       4.465   6.559  17.103  0.00  0.00    +0.000 C 
ATOM     18  S   UNL     1       3.370   5.905  18.336  0.00  0.00    +0.000 S 
ATOM     19  O   UNL     1       2.453   4.999  17.698  0.00  0.00    +0.000 OA
ATOM     20  O   UNL     1       4.171   5.495  19.480  0.00  0.00    +0.000 OA
ENDBRANCH  11  18
ENDBRANCH   1  14
BRANCH  10  21
ATOM     21  C   UNL     1       1.364  12.757  19.393  0.00  0.00    +0.000 A 
ATOM     22  C   UNL     1       1.896  13.251  20.616  0.00  0.00    +0.000 A 
ATOM     23  C   UNL     1       3.035  14.056  20.685  0.00  0.00    +0.000 A 
ATOM     24  C   UNL     1       3.655  14.435  19.504  0.00  0.00    +0.000 A 
ATOM     25  C   UNL     1       3.125  14.018  18.282  0.00  0.00    +0.000 A 
ATOM     26  C   UNL     1       1.988  13.195  18.221  0.00  0.00    +0.000 A 
ENDBRANCH  10  21
TORSDOF 3
ENDMDL
MODEL 9
REMARK VINA RESULT:      -7.3      3.624      8.368
REMARK  Name = 
REMARK  4 active torsions:
REMARK  status: ('A' for Active; 'I' for Inactive)
REMARK    1  A    between atoms: C_1  and  S_2
REMARK    2  A    between atoms: S_2  and  C_5
REMARK    3  A    between atoms: C_8  and  C_9
REMARK    4  A    between atoms: C_18  and  C_19
REMARK                            x       y       z     vdW  Elec       q    Type
REMARK                         _______ _______ _______ _____ _____    ______ ____
ROOT
ATOM      1  C   UNL     1       0.974  11.225  19.209  0.00  0.00    +0.000 A 
ATOM      2  N   UNL     1       1.743  12.277  18.878  0.00  0.00    +0.000 NA
ATOM      3  C   UNL     1       1.354  13.463  19.408  0.00  0.00    +0.000 A 
ATOM      4  C   UNL     1       1.604  14.704  18.830  0.00  0.00    +0.000 A 
ATOM      5  C   UNL     1       1.253  15.891  19.488  0.00  0.00    +0.000 A 
ATOM      6  C   UNL     1       0.793  15.844  20.800  0.00  0.00    +0.000 A 
ATOM      7  C   UNL     1       0.421  14.619  21.336  0.00  0.00    +0.000 A 
ATOM      8  C   UNL     1       0.513  13.485  20.524  0.00  0.00    +0.000 A 
ATOM      9  C   UNL     1      -0.407  12.440  20.605  0.00  0.00    +0.000 A 
ATOM     10  C   UNL     1      -0.325  11.473  19.615  0.00  0.00    +0.000 A 
ENDROOT
BRANCH   1  14
ATOM     11  C   UNL     1       2.456   7.212  18.804  0.00  0.00    +0.000 A 
ATOM     12  C   UNL     1       2.569   8.103  17.747  0.00  0.00    +0.000 A 
ATOM     13  C   UNL     1       2.073   9.396  17.913  0.00  0.00    +0.000 A 
ATOM     14  C   UNL     1       1.455   9.828  19.117  0.00  0.00    +0.000 A 
ATOM     15  C   UNL     1       1.329   8.892  20.149  0.00  0.00    +0.000 A 
ATOM     16  C   UNL     1       1.824   7.590  19.994  0.00  0.00    +0.000 A 
BRANCH  11  18
ATOM     17  C   UNL     1       4.377   5.832  17.367  0.00  0.00    +0.000 C 
ATOM     18  S   UNL     1       3.118   5.573  18.590  0.00  0.00    +0.000 S 
ATOM     19  O   UNL     1       2.087   4.751  18.016  0.00  0.00    +0.000 OA
ATOM     20  O   UNL     1       3.771   5.210  19.839  0.00  0.00    +0.000 OA
ENDBRANCH  11  18
ENDBRANCH   1  14
BRANCH  10  21
ATOM     21  C   UNL     1      -1.424  11.122  18.667  0.00  0.00    +0.000 A 
ATOM     22  C   UNL     1      -2.701  11.727  18.831  0.00  0.00    +0.000 A 
ATOM     23  C   UNL     1      -3.792  11.446  18.006  0.00  0.00    +0.000 A 
ATOM     24  C   UNL     1      -3.644  10.498  17.005  0.00  0.00    +0.000 A 
ATOM     25  C   UNL     1      -2.422   9.839  16.854  0.00  0.00    +0.000 A 
ATOM     26  C   UNL     1      -1.324  10.138  17.678  0.00  0.00    +0.000 A 
ENDBRANCH  10  21
TORSDOF 3
ENDMDL
