MODEL 1
REMARK VINA RESULT:      -8.1      0.000      0.000
REMARK  Name = 
REMARK  10 active torsions:
REMARK  status: ('A' for Active; 'I' for Inactive)
REMARK    1  A    between atoms: C_1  and  C_2
REMARK    2  A    between atoms: C_2  and  C_3
REMARK    3  A    between atoms: C_3  and  O_4
REMARK    4  A    between atoms: O_4  and  C_5
REMARK    5  A    between atoms: C_8  and  C_9
REMARK    6  A    between atoms: N_11  and  C_12
REMARK    7  A    between atoms: C_14  and  C_15
REMARK    8  A    between atoms: C_19  and  C_20
REMARK    9  A    between atoms: C_22  and  C_23
REMARK   10  A    between atoms: C_28  and  C_29
REMARK                            x       y       z     vdW  Elec       q    Type
REMARK                         _______ _______ _______ _____ _____    ______ ____
ROOT
ATOM      1  C   UNL     1       2.885   4.710  19.087  0.00  0.00    +0.000 A 
ATOM      2  C   UNL     1       3.967   4.740  18.187  0.00  0.00    +0.000 A 
ATOM      3  C   UNL     1       4.382   3.606  17.452  0.00  0.00    +0.000 A 
ATOM      4  C   UNL     1       3.761   2.389  17.718  0.00  0.00    +0.000 A 
ATOM      5  C   UNL     1       2.674   2.339  18.594  0.00  0.00    +0.000 A 
ATOM      6  C   UNL     1       2.184   3.499  19.232  0.00  0.00    +0.000 A 
ATOM      7  C   UNL     1       0.938   3.371  20.063  0.00  0.00    +0.000 C 
ENDROOT
BRANCH   3   8
ATOM      8  C   UNL     1       5.338   3.781  16.352  0.00  0.00    +0.000 A 
ATOM      9  N   UNL     1       6.395   4.570  16.351  0.00  0.00    +0.000 NA
ATOM     10  C   UNL     1       6.763   4.631  15.037  0.00  0.00    +0.000 A 
ATOM     11  C   UNL     1       7.749   5.419  14.433  0.00  0.00    +0.000 A 
ATOM     12  C   UNL     1       7.899   5.356  13.042  0.00  0.00    +0.000 A 
ATOM     13  C   UNL     1       8.902   6.235  12.355  0.00  0.00    +0.000 C 
ATOM     14  C   UNL     1       7.098   4.478  12.293  0.00  0.00    +0.000 A 
ATOM     15  C   UNL     1       6.105   3.654  12.878  0.00  0.00    +0.000 A 
ATOM     16  C   UNL     1       5.269   2.770  12.006  0.00  0.00    +0.000 C 
ATOM     17  C   UNL     1       5.964   3.799  14.266  0.00  0.00    +0.000 A 
ATOM     18  O   UNL     1       5.042   3.234  15.115  0.00  0.00    +0.000 OA
ENDBRANCH   3   8
BRANCH   1  21
ATOM     19  C   UNL     1       2.134   7.095  19.227  0.00  0.00    +0.000 C 
ATOM     20  O   UNL     1       2.285   7.353  18.034  0.00  0.00    +0.000 OA
ATOM     21  N   UNL     1       2.453   5.873  19.803  0.00  0.00    +0.000 N 
ATOM     22  H   UNL     1       2.486   5.821  20.808  0.00  0.00    +0.000 HD
BRANCH  19  26
ATOM     23  C   UNL     1       0.527  10.448  21.476  0.00  0.00    +0.000 A 
ATOM     24  C   UNL     1       0.679  10.467  20.093  0.00  0.00    +0.000 A 
ATOM     25  C   UNL     1       1.208   9.366  19.421  0.00  0.00    +0.000 A 
ATOM     26  C   UNL     1       1.607   8.205  20.100  0.00  0.00    +0.000 A 
ATOM     27  C   UNL     1       1.471   8.182  21.493  0.00  0.00    +0.000 A 
ATOM     28  C   UNL     1       0.935   9.303  22.171  0.00  0.00    +0.000 A 
BRANCH  23  29
ATOM     29  O   UNL     1      -0.007  11.481  22.214  0.00  0.00    +0.000 OA
BRANCH  29  30
ATOM     30  C   UNL     1      -1.113  11.105  23.048  0.00  0.00    +0.000 C 
BRANCH  30  32
ATOM     31  C   UNL     1      -1.946  13.183  21.941  0.00  0.00    +0.000 C 
ATOM     32  C   UNL     1      -2.242  12.128  23.002  0.00  0.00    +0.000 C 
ENDBRANCH  30  32
ENDBRANCH  29  30
ENDBRANCH  23  29
ENDBRANCH  19  26
ENDBRANCH   1  21
TORSDOF 6
ENDMDL
MODEL 2
REMARK VINA RESULT:      -7.9      3.748     11.876
REMARK  Name = 
REMARK  10 active torsions:
REMARK  status: ('A' for Active; 'I' for Inactive)
REMARK    1  A    between atoms: C_1  and  C_2
REMARK    2  A    between atoms: C_2  and  C_3
REMARK    3  A    between atoms: C_3  and  O_4
REMARK    4  A    between atoms: O_4  and  C_5
REMARK    5  A    between atoms: C_8  and  C_9
REMARK    6  A    between atoms: N_11  and  C_12
REMARK    7  A    between atoms: C_14  and  C_15
REMARK    8  A    between atoms: C_19  and  C_20
REMARK    9  A    between atoms: C_22  and  C_23
REMARK   10  A    between atoms: C_28  and  C_29
REMARK                            x       y       z     vdW  Elec       q    Type
REMARK                         _______ _______ _______ _____ _____    ______ ____
ROOT
ATOM      1  C   UNL     1       0.521  11.637  19.618  0.00  0.00    +0.000 A 
ATOM      2  C   UNL     1      -0.761  11.817  20.173  0.00  0.00    +0.000 A 
ATOM      3  C   UNL     1      -1.452  13.049  20.117  0.00  0.00    +0.000 A 
ATOM      4  C   UNL     1      -0.786  14.151  19.590  0.00  0.00    +0.000 A 
ATOM      5  C   UNL     1       0.480  13.993  19.020  0.00  0.00    +0.000 A 
ATOM      6  C   UNL     1       1.114  12.733  18.967  0.00  0.00    +0.000 A 
ATOM      7  C   UNL     1       2.420  12.634  18.228  0.00  0.00    +0.000 C 
ENDROOT
BRANCH   3   8
ATOM      8  C   UNL     1      -2.874  13.085  20.480  0.00  0.00    +0.000 A 
ATOM      9  N   UNL     1      -3.381  13.516  21.620  0.00  0.00    +0.000 NA
ATOM     10  C   UNL     1      -4.667  13.058  21.604  0.00  0.00    +0.000 A 
ATOM     11  C   UNL     1      -5.635  13.116  22.613  0.00  0.00    +0.000 A 
ATOM     12  C   UNL     1      -6.878  12.511  22.386  0.00  0.00    +0.000 A 
ATOM     13  C   UNL     1      -7.917  12.499  23.469  0.00  0.00    +0.000 C 
ATOM     14  C   UNL     1      -7.142  11.905  21.146  0.00  0.00    +0.000 A 
ATOM     15  C   UNL     1      -6.191  11.848  20.099  0.00  0.00    +0.000 A 
ATOM     16  C   UNL     1      -6.539  11.154  18.819  0.00  0.00    +0.000 C 
ATOM     17  C   UNL     1      -4.947  12.422  20.403  0.00  0.00    +0.000 A 
ATOM     18  O   UNL     1      -3.790  12.445  19.662  0.00  0.00    +0.000 OA
ENDBRANCH   3   8
BRANCH   1  21
ATOM     19  C   UNL     1       1.109   9.392  18.678  0.00  0.00    +0.000 C 
ATOM     20  O   UNL     1       0.349   9.448  17.712  0.00  0.00    +0.000 OA
ATOM     21  N   UNL     1       1.198  10.376  19.653  0.00  0.00    +0.000 N 
ATOM     22  H   UNL     1       1.693  10.153  20.501  0.00  0.00    +0.000 HD
BRANCH  19  26
ATOM     23  C   UNL     1       3.720   5.921  18.805  0.00  0.00    +0.000 A 
ATOM     24  C   UNL     1       3.769   6.868  17.788  0.00  0.00    +0.000 A 
ATOM     25  C   UNL     1       2.902   7.960  17.790  0.00  0.00    +0.000 A 
ATOM     26  C   UNL     1       1.952   8.150  18.806  0.00  0.00    +0.000 A 
ATOM     27  C   UNL     1       1.886   7.194  19.827  0.00  0.00    +0.000 A 
ATOM     28  C   UNL     1       2.767   6.086  19.818  0.00  0.00    +0.000 A 
BRANCH  23  29
ATOM     29  O   UNL     1       4.553   4.827  18.891  0.00  0.00    +0.000 OA
BRANCH  29  30
ATOM     30  C   UNL     1       4.597   4.021  17.704  0.00  0.00    +0.000 C 
BRANCH  30  32
ATOM     31  C   UNL     1       3.238   2.024  18.339  0.00  0.00    +0.000 C 
ATOM     32  C   UNL     1       3.290   3.274  17.466  0.00  0.00    +0.000 C 
ENDBRANCH  30  32
ENDBRANCH  29  30
ENDBRANCH  23  29
ENDBRANCH  19  26
ENDBRANCH   1  21
TORSDOF 6
ENDMDL
MODEL 3
REMARK VINA RESULT:      -7.8      0.456      1.076
REMARK  Name = 
REMARK  10 active torsions:
REMARK  status: ('A' for Active; 'I' for Inactive)
REMARK    1  A    between atoms: C_1  and  C_2
REMARK    2  A    between atoms: C_2  and  C_3
REMARK    3  A    between atoms: C_3  and  O_4
REMARK    4  A    between atoms: O_4  and  C_5
REMARK    5  A    between atoms: C_8  and  C_9
REMARK    6  A    between atoms: N_11  and  C_12
REMARK    7  A    between atoms: C_14  and  C_15
REMARK    8  A    between atoms: C_19  and  C_20
REMARK    9  A    between atoms: C_22  and  C_23
REMARK   10  A    between atoms: C_28  and  C_29
REMARK                            x       y       z     vdW  Elec       q    Type
REMARK                         _______ _______ _______ _____ _____    ______ ____
ROOT
ATOM      1  C   UNL     1       2.931   5.113  19.187  0.00  0.00    +0.000 A 
ATOM      2  C   UNL     1       3.992   5.097  18.261  0.00  0.00    +0.000 A 
ATOM      3  C   UNL     1       4.457   3.909  17.651  0.00  0.00    +0.000 A 
ATOM      4  C   UNL     1       3.913   2.699  18.071  0.00  0.00    +0.000 A 
ATOM      5  C   UNL     1       2.848   2.692  18.976  0.00  0.00    +0.000 A 
ATOM      6  C   UNL     1       2.305   3.890  19.489  0.00  0.00    +0.000 A 
ATOM      7  C   UNL     1       1.085   3.791  20.362  0.00  0.00    +0.000 C 
ENDROOT
BRANCH   3   8
ATOM      8  C   UNL     1       5.379   4.007  16.513  0.00  0.00    +0.000 A 
ATOM      9  N   UNL     1       6.470   4.746  16.451  0.00  0.00    +0.000 NA
ATOM     10  C   UNL     1       6.793   4.751  15.123  0.00  0.00    +0.000 A 
ATOM     11  C   UNL     1       7.790   5.474  14.461  0.00  0.00    +0.000 A 
ATOM     12  C   UNL     1       7.886   5.364  13.068  0.00  0.00    +0.000 A 
ATOM     13  C   UNL     1       8.903   6.174  12.319  0.00  0.00    +0.000 C 
ATOM     14  C   UNL     1       7.019   4.503  12.375  0.00  0.00    +0.000 A 
ATOM     15  C   UNL     1       6.013   3.743  13.020  0.00  0.00    +0.000 A 
ATOM     16  C   UNL     1       5.106   2.873  12.205  0.00  0.00    +0.000 C 
ATOM     17  C   UNL     1       5.929   3.934  14.407  0.00  0.00    +0.000 A 
ATOM     18  O   UNL     1       5.013   3.438  15.304  0.00  0.00    +0.000 OA
ENDBRANCH   3   8
BRANCH   1  21
ATOM     19  C   UNL     1       2.054   7.455  19.072  0.00  0.00    +0.000 C 
ATOM     20  O   UNL     1       2.172   7.582  17.854  0.00  0.00    +0.000 OA
ATOM     21  N   UNL     1       2.448   6.325  19.775  0.00  0.00    +0.000 N 
ATOM     22  H   UNL     1       2.499   6.390  20.779  0.00  0.00    +0.000 HD
BRANCH  19  26
ATOM     23  C   UNL     1       0.435  10.666  21.511  0.00  0.00    +0.000 A 
ATOM     24  C   UNL     1       0.681   9.389  22.006  0.00  0.00    +0.000 A 
ATOM     25  C   UNL     1       1.194   8.392  21.177  0.00  0.00    +0.000 A 
ATOM     26  C   UNL     1       1.480   8.628  19.824  0.00  0.00    +0.000 A 
ATOM     27  C   UNL     1       1.223   9.905  19.313  0.00  0.00    +0.000 A 
ATOM     28  C   UNL     1       0.700  10.914  20.158  0.00  0.00    +0.000 A 
BRANCH  23  29
ATOM     29  O   UNL     1      -0.048  11.713  22.264  0.00  0.00    +0.000 OA
BRANCH  29  30
ATOM     30  C   UNL     1      -0.857  12.647  21.533  0.00  0.00    +0.000 C 
BRANCH  30  32
ATOM     31  C   UNL     1      -2.389  11.901  23.359  0.00  0.00    +0.000 C 
ATOM     32  C   UNL     1      -2.268  12.754  22.100  0.00  0.00    +0.000 C 
ENDBRANCH  30  32
ENDBRANCH  29  30
ENDBRANCH  23  29
ENDBRANCH  19  26
ENDBRANCH   1  21
TORSDOF 6
ENDMDL
MODEL 4
REMARK VINA RESULT:      -7.8      1.806     10.268
REMARK  Name = 
REMARK  10 active torsions:
REMARK  status: ('A' for Active; 'I' for Inactive)
REMARK    1  A    between atoms: C_1  and  C_2
REMARK    2  A    between atoms: C_2  and  C_3
REMARK    3  A    between atoms: C_3  and  O_4
REMARK    4  A    between atoms: O_4  and  C_5
REMARK    5  A    between atoms: C_8  and  C_9
REMARK    6  A    between atoms: N_11  and  C_12
REMARK    7  A    between atoms: C_14  and  C_15
REMARK    8  A    between atoms: C_19  and  C_20
REMARK    9  A    between atoms: C_22  and  C_23
REMARK   10  A    between atoms: C_28  and  C_29
REMARK                            x       y       z     vdW  Elec       q    Type
REMARK                         _______ _______ _______ _____ _____    ______ ____
ROOT
ATOM      1  C   UNL     1       3.142   4.896  18.548  0.00  0.00    +0.000 A 
ATOM      2  C   UNL     1       2.546   6.110  18.942  0.00  0.00    +0.000 A 
ATOM      3  C   UNL     1       1.914   6.281  20.195  0.00  0.00    +0.000 A 
ATOM      4  C   UNL     1       1.782   5.168  21.020  0.00  0.00    +0.000 A 
ATOM      5  C   UNL     1       2.379   3.958  20.657  0.00  0.00    +0.000 A 
ATOM      6  C   UNL     1       3.116   3.826  19.461  0.00  0.00    +0.000 A 
ATOM      7  C   UNL     1       3.823   2.523  19.211  0.00  0.00    +0.000 C 
ENDROOT
BRANCH   3   8
ATOM      8  C   UNL     1       1.554   7.635  20.632  0.00  0.00    +0.000 A 
ATOM      9  N   UNL     1       1.038   7.970  21.799  0.00  0.00    +0.000 NA
ATOM     10  C   UNL     1       0.593   9.248  21.610  0.00  0.00    +0.000 A 
ATOM     11  C   UNL     1      -0.149  10.060  22.475  0.00  0.00    +0.000 A 
ATOM     12  C   UNL     1      -0.552  11.324  22.028  0.00  0.00    +0.000 A 
ATOM     13  C   UNL     1      -1.401  12.195  22.906  0.00  0.00    +0.000 C 
ATOM     14  C   UNL     1      -0.168  11.768  20.752  0.00  0.00    +0.000 A 
ATOM     15  C   UNL     1       0.598  10.977  19.861  0.00  0.00    +0.000 A 
ATOM     16  C   UNL     1       0.938  11.509  18.503  0.00  0.00    +0.000 C 
ATOM     17  C   UNL     1       0.927   9.701  20.342  0.00  0.00    +0.000 A 
ATOM     18  O   UNL     1       1.562   8.662  19.702  0.00  0.00    +0.000 OA
ENDBRANCH   3   8
BRANCH   1  21
ATOM     19  C   UNL     1       5.110   5.138  17.019  0.00  0.00    +0.000 C 
ATOM     20  O   UNL     1       5.815   5.764  17.808  0.00  0.00    +0.000 OA
ATOM     21  N   UNL     1       3.806   4.744  17.290  0.00  0.00    +0.000 N 
ATOM     22  H   UNL     1       3.245   4.418  16.520  0.00  0.00    +0.000 HD
BRANCH  19  26
ATOM     23  C   UNL     1       6.540   4.165  13.033  0.00  0.00    +0.000 A 
ATOM     24  C   UNL     1       5.258   3.854  13.475  0.00  0.00    +0.000 A 
ATOM     25  C   UNL     1       4.852   4.181  14.768  0.00  0.00    +0.000 A 
ATOM     26  C   UNL     1       5.707   4.831  15.671  0.00  0.00    +0.000 A 
ATOM     27  C   UNL     1       7.003   5.136  15.240  0.00  0.00    +0.000 A 
ATOM     28  C   UNL     1       7.412   4.799  13.927  0.00  0.00    +0.000 A 
BRANCH  23  29
ATOM     29  O   UNL     1       7.013   3.898  11.768  0.00  0.00    +0.000 OA
BRANCH  29  30
ATOM     30  C   UNL     1       7.760   2.677  11.658  0.00  0.00    +0.000 C 
BRANCH  30  32
ATOM     31  C   UNL     1       5.948   1.010  11.243  0.00  0.00    +0.000 C 
ATOM     32  C   UNL     1       7.153   1.721  10.638  0.00  0.00    +0.000 C 
ENDBRANCH  30  32
ENDBRANCH  29  30
ENDBRANCH  23  29
ENDBRANCH  19  26
ENDBRANCH   1  21
TORSDOF 6
ENDMDL
MODEL 5
REMARK VINA RESULT:      -7.8      3.814     11.879
REMARK  Name = 
REMARK  10 active torsions:
REMARK  status: ('A' for Active; 'I' for Inactive)
REMARK    1  A    between atoms: C_1  and  C_2
REMARK    2  A    between atoms: C_2  and  C_3
REMARK    3  A    between atoms: C_3  and  O_4
REMARK    4  A    between atoms: O_4  and  C_5
REMARK    5  A    between atoms: C_8  and  C_9
REMARK    6  A    between atoms: N_11  and  C_12
REMARK    7  A    between atoms: C_14  and  C_15
REMARK    8  A    between atoms: C_19  and  C_20
REMARK    9  A    between atoms: C_22  and  C_23
REMARK   10  A    between atoms: C_28  and  C_29
REMARK                            x       y       z     vdW  Elec       q    Type
REMARK                         _______ _______ _______ _____ _____    ______ ____
ROOT
ATOM      1  C   UNL     1       0.590  11.881  19.483  0.00  0.00    +0.000 A 
ATOM      2  C   UNL     1      -0.705  11.988  20.025  0.00  0.00    +0.000 A 
ATOM      3  C   UNL     1      -1.434  13.200  20.031  0.00  0.00    +0.000 A 
ATOM      4  C   UNL     1      -0.795  14.352  19.582  0.00  0.00    +0.000 A 
ATOM      5  C   UNL     1       0.483  14.267  19.025  0.00  0.00    +0.000 A 
ATOM      6  C   UNL     1       1.158  13.032  18.908  0.00  0.00    +0.000 A 
ATOM      7  C   UNL     1       2.477  13.019  18.187  0.00  0.00    +0.000 C 
ENDROOT
BRANCH   3   8
ATOM      8  C   UNL     1      -2.862  13.170  20.372  0.00  0.00    +0.000 A 
ATOM      9  N   UNL     1      -3.412  13.623  21.482  0.00  0.00    +0.000 NA
ATOM     10  C   UNL     1      -4.670  13.092  21.470  0.00  0.00    +0.000 A 
ATOM     11  C   UNL     1      -5.657  13.140  22.460  0.00  0.00    +0.000 A 
ATOM     12  C   UNL     1      -6.858  12.454  22.244  0.00  0.00    +0.000 A 
ATOM     13  C   UNL     1      -7.913  12.432  23.311  0.00  0.00    +0.000 C 
ATOM     14  C   UNL     1      -7.067  11.778  21.031  0.00  0.00    +0.000 A 
ATOM     15  C   UNL     1      -6.095  11.727  20.002  0.00  0.00    +0.000 A 
ATOM     16  C   UNL     1      -6.381  10.956  18.750  0.00  0.00    +0.000 C 
ATOM     17  C   UNL     1      -4.892  12.386  20.296  0.00  0.00    +0.000 A 
ATOM     18  O   UNL     1      -3.725  12.441  19.571  0.00  0.00    +0.000 OA
ENDBRANCH   3   8
BRANCH   1  21
ATOM     19  C   UNL     1       1.102   9.620  18.537  0.00  0.00    +0.000 C 
ATOM     20  O   UNL     1       0.202   9.619  17.699  0.00  0.00    +0.000 OA
ATOM     21  N   UNL     1       1.306  10.642  19.454  0.00  0.00    +0.000 N 
ATOM     22  H   UNL     1       1.933  10.466  20.223  0.00  0.00    +0.000 HD
BRANCH  19  26
ATOM     23  C   UNL     1       3.526   6.034  18.912  0.00  0.00    +0.000 A 
ATOM     24  C   UNL     1       2.655   6.467  19.907  0.00  0.00    +0.000 A 
ATOM     25  C   UNL     1       1.906   7.631  19.739  0.00  0.00    +0.000 A 
ATOM     26  C   UNL     1       1.996   8.408  18.574  0.00  0.00    +0.000 A 
ATOM     27  C   UNL     1       2.879   7.988  17.574  0.00  0.00    +0.000 A 
ATOM     28  C   UNL     1       3.640   6.807  17.749  0.00  0.00    +0.000 A 
BRANCH  23  29
ATOM     29  O   UNL     1       4.285   4.887  18.987  0.00  0.00    +0.000 OA
BRANCH  29  30
ATOM     30  C   UNL     1       5.351   4.816  18.028  0.00  0.00    +0.000 C 
BRANCH  30  32
ATOM     31  C   UNL     1       7.385   6.264  18.024  0.00  0.00    +0.000 C 
ATOM     32  C   UNL     1       6.715   5.054  18.665  0.00  0.00    +0.000 C 
ENDBRANCH  30  32
ENDBRANCH  29  30
ENDBRANCH  23  29
ENDBRANCH  19  26
ENDBRANCH   1  21
TORSDOF 6
ENDMDL
MODEL 6
REMARK VINA RESULT:      -7.7      4.397     12.141
REMARK  Name = 
REMARK  10 active torsions:
REMARK  status: ('A' for Active; 'I' for Inactive)
REMARK    1  A    between atoms: C_1  and  C_2
REMARK    2  A    between atoms: C_2  and  C_3
REMARK    3  A    between atoms: C_3  and  O_4
REMARK    4  A    between atoms: O_4  and  C_5
REMARK    5  A    between atoms: C_8  and  C_9
REMARK    6  A    between atoms: N_11  and  C_12
REMARK    7  A    between atoms: C_14  and  C_15
REMARK    8  A    between atoms: C_19  and  C_20
REMARK    9  A    between atoms: C_22  and  C_23
REMARK   10  A    between atoms: C_28  and  C_29
REMARK                            x       y       z     vdW  Elec       q    Type
REMARK                         _______ _______ _______ _____ _____    ______ ____
ROOT
ATOM      1  C   UNL     1       0.358  12.203  19.721  0.00  0.00    +0.000 A 
ATOM      2  C   UNL     1      -0.872  12.407  20.376  0.00  0.00    +0.000 A 
ATOM      3  C   UNL     1      -1.550  13.648  20.361  0.00  0.00    +0.000 A 
ATOM      4  C   UNL     1      -0.915  14.735  19.768  0.00  0.00    +0.000 A 
ATOM      5  C   UNL     1       0.298  14.552  19.099  0.00  0.00    +0.000 A 
ATOM      6  C   UNL     1       0.910  13.283  19.010  0.00  0.00    +0.000 A 
ATOM      7  C   UNL     1       2.150  13.159  18.168  0.00  0.00    +0.000 C 
ENDROOT
BRANCH   3   8
ATOM      8  C   UNL     1      -2.936  13.708  20.838  0.00  0.00    +0.000 A 
ATOM      9  N   UNL     1      -3.371  14.353  21.904  0.00  0.00    +0.000 NA
ATOM     10  C   UNL     1      -4.627  13.855  22.104  0.00  0.00    +0.000 A 
ATOM     11  C   UNL     1      -5.510  14.090  23.163  0.00  0.00    +0.000 A 
ATOM     12  C   UNL     1      -6.732  13.405  23.183  0.00  0.00    +0.000 A 
ATOM     13  C   UNL     1      -7.675  13.586  24.336  0.00  0.00    +0.000 C 
ATOM     14  C   UNL     1      -7.063  12.539  22.128  0.00  0.00    +0.000 A 
ATOM     15  C   UNL     1      -6.199  12.295  21.033  0.00  0.00    +0.000 A 
ATOM     16  C   UNL     1      -6.612  11.331  19.964  0.00  0.00    +0.000 C 
ATOM     17  C   UNL     1      -4.969  12.967  21.094  0.00  0.00    +0.000 A 
ATOM     18  O   UNL     1      -3.879  12.873  20.260  0.00  0.00    +0.000 OA
ENDBRANCH   3   8
BRANCH   1  21
ATOM     19  C   UNL     1       0.787   9.913  18.804  0.00  0.00    +0.000 C 
ATOM     20  O   UNL     1      -0.098   9.943  17.950  0.00  0.00    +0.000 OA
ATOM     21  N   UNL     1       1.020  10.934  19.716  0.00  0.00    +0.000 N 
ATOM     22  H   UNL     1       1.624  10.737  20.497  0.00  0.00    +0.000 HD
BRANCH  19  26
ATOM     23  C   UNL     1       3.067   6.244  19.272  0.00  0.00    +0.000 A 
ATOM     24  C   UNL     1       2.288   6.786  20.289  0.00  0.00    +0.000 A 
ATOM     25  C   UNL     1       1.582   7.971  20.089  0.00  0.00    +0.000 A 
ATOM     26  C   UNL     1       1.626   8.663  18.869  0.00  0.00    +0.000 A 
ATOM     27  C   UNL     1       2.418   8.133  17.844  0.00  0.00    +0.000 A 
ATOM     28  C   UNL     1       3.135   6.930  18.052  0.00  0.00    +0.000 A 
BRANCH  23  29
ATOM     29  O   UNL     1       3.777   5.068  19.377  0.00  0.00    +0.000 OA
BRANCH  29  30
ATOM     30  C   UNL     1       3.011   3.886  19.102  0.00  0.00    +0.000 C 
BRANCH  30  32
ATOM     31  C   UNL     1       1.011   3.316  20.484  0.00  0.00    +0.000 C 
ATOM     32  C   UNL     1       2.528   3.203  20.376  0.00  0.00    +0.000 C 
ENDBRANCH  30  32
ENDBRANCH  29  30
ENDBRANCH  23  29
ENDBRANCH  19  26
ENDBRANCH   1  21
TORSDOF 6
ENDMDL
MODEL 7
REMARK VINA RESULT:      -7.7      2.023     10.371
REMARK  Name = 
REMARK  10 active torsions:
REMARK  status: ('A' for Active; 'I' for Inactive)
REMARK    1  A    between atoms: C_1  and  C_2
REMARK    2  A    between atoms: C_2  and  C_3
REMARK    3  A    between atoms: C_3  and  O_4
REMARK    4  A    between atoms: O_4  and  C_5
REMARK    5  A    between atoms: C_8  and  C_9
REMARK    6  A    between atoms: N_11  and  C_12
REMARK    7  A    between atoms: C_14  and  C_15
REMARK    8  A    between atoms: C_19  and  C_20
REMARK    9  A    between atoms: C_22  and  C_23
REMARK   10  A    between atoms: C_28  and  C_29
REMARK                            x       y       z     vdW  Elec       q    Type
REMARK                         _______ _______ _______ _____ _____    ______ ____
ROOT
ATOM      1  C   UNL     1       3.416   5.351  18.057  0.00  0.00    +0.000 A 
ATOM      2  C   UNL     1       2.627   6.510  18.189  0.00  0.00    +0.000 A 
ATOM      3  C   UNL     1       2.022   6.888  19.410  0.00  0.00    +0.000 A 
ATOM      4  C   UNL     1       2.123   6.016  20.490  0.00  0.00    +0.000 A 
ATOM      5  C   UNL     1       2.913   4.868  20.386  0.00  0.00    +0.000 A 
ATOM      6  C   UNL     1       3.617   4.559  19.202  0.00  0.00    +0.000 A 
ATOM      7  C   UNL     1       4.537   3.370  19.222  0.00  0.00    +0.000 C 
ENDROOT
BRANCH   3   8
ATOM      8  C   UNL     1       1.442   8.231  19.531  0.00  0.00    +0.000 A 
ATOM      9  N   UNL     1       1.643   9.248  18.715  0.00  0.00    +0.000 NA
ATOM     10  C   UNL     1       1.168  10.326  19.405  0.00  0.00    +0.000 A 
ATOM     11  C   UNL     1       1.233  11.684  19.073  0.00  0.00    +0.000 A 
ATOM     12  C   UNL     1       0.730  12.622  19.983  0.00  0.00    +0.000 A 
ATOM     13  C   UNL     1       0.841  14.089  19.687  0.00  0.00    +0.000 C 
ATOM     14  C   UNL     1       0.133  12.185  21.177  0.00  0.00    +0.000 A 
ATOM     15  C   UNL     1       0.035  10.818  21.532  0.00  0.00    +0.000 A 
ATOM     16  C   UNL     1      -0.586  10.435  22.840  0.00  0.00    +0.000 C 
ATOM     17  C   UNL     1       0.603   9.928  20.609  0.00  0.00    +0.000 A 
ATOM     18  O   UNL     1       0.768   8.566  20.694  0.00  0.00    +0.000 OA
ENDBRANCH   3   8
BRANCH   1  21
ATOM     19  C   UNL     1       5.267   5.488  16.377  0.00  0.00    +0.000 C 
ATOM     20  O   UNL     1       5.899   6.376  16.947  0.00  0.00    +0.000 OA
ATOM     21  N   UNL     1       4.049   4.994  16.824  0.00  0.00    +0.000 N 
ATOM     22  H   UNL     1       3.515   4.419  16.193  0.00  0.00    +0.000 HD
BRANCH  19  26
ATOM     23  C   UNL     1       6.670   3.826  12.615  0.00  0.00    +0.000 A 
ATOM     24  C   UNL     1       5.410   3.556  13.140  0.00  0.00    +0.000 A 
ATOM     25  C   UNL     1       5.012   4.109  14.356  0.00  0.00    +0.000 A 
ATOM     26  C   UNL     1       5.855   4.951  15.098  0.00  0.00    +0.000 A 
ATOM     27  C   UNL     1       7.129   5.218  14.585  0.00  0.00    +0.000 A 
ATOM     28  C   UNL     1       7.530   4.652  13.351  0.00  0.00    +0.000 A 
BRANCH  23  29
ATOM     29  O   UNL     1       7.133   3.341  11.413  0.00  0.00    +0.000 OA
BRANCH  29  30
ATOM     30  C   UNL     1       7.315   1.917  11.378  0.00  0.00    +0.000 C 
BRANCH  30  32
ATOM     31  C   UNL     1       6.184  -0.308  11.291  0.00  0.00    +0.000 C 
ATOM     32  C   UNL     1       6.035   1.182  10.999  0.00  0.00    +0.000 C 
ENDBRANCH  30  32
ENDBRANCH  29  30
ENDBRANCH  23  29
ENDBRANCH  19  26
ENDBRANCH   1  21
TORSDOF 6
ENDMDL
MODEL 8
REMARK VINA RESULT:      -7.7      4.008     11.730
REMARK  Name = 
REMARK  10 active torsions:
REMARK  status: ('A' for Active; 'I' for Inactive)
REMARK    1  A    between atoms: C_1  and  C_2
REMARK    2  A    between atoms: C_2  and  C_3
REMARK    3  A    between atoms: C_3  and  O_4
REMARK    4  A    between atoms: O_4  and  C_5
REMARK    5  A    between atoms: C_8  and  C_9
REMARK    6  A    between atoms: N_11  and  C_12
REMARK    7  A    between atoms: C_14  and  C_15
REMARK    8  A    between atoms: C_19  and  C_20
REMARK    9  A    between atoms: C_22  and  C_23
REMARK   10  A    between atoms: C_28  and  C_29
REMARK                            x       y       z     vdW  Elec       q    Type
REMARK                         _______ _______ _______ _____ _____    ______ ____
ROOT
ATOM      1  C   UNL     1       0.590  11.776  19.193  0.00  0.00    +0.000 A 
ATOM      2  C   UNL     1      -0.706  11.853  19.738  0.00  0.00    +0.000 A 
ATOM      3  C   UNL     1      -1.389  13.077  19.919  0.00  0.00    +0.000 A 
ATOM      4  C   UNL     1      -0.702  14.257  19.649  0.00  0.00    +0.000 A 
ATOM      5  C   UNL     1       0.579  14.206  19.092  0.00  0.00    +0.000 A 
ATOM      6  C   UNL     1       1.208  12.977  18.797  0.00  0.00    +0.000 A 
ATOM      7  C   UNL     1       2.534  13.018  18.089  0.00  0.00    +0.000 C 
ENDROOT
BRANCH   3   8
ATOM      8  C   UNL     1      -2.820  13.054  20.244  0.00  0.00    +0.000 A 
ATOM      9  N   UNL     1      -3.371  13.432  21.382  0.00  0.00    +0.000 NA
ATOM     10  C   UNL     1      -4.641  12.931  21.317  0.00  0.00    +0.000 A 
ATOM     11  C   UNL     1      -5.636  12.925  22.300  0.00  0.00    +0.000 A 
ATOM     12  C   UNL     1      -6.850  12.285  22.021  0.00  0.00    +0.000 A 
ATOM     13  C   UNL     1      -7.916  12.204  23.074  0.00  0.00    +0.000 C 
ATOM     14  C   UNL     1      -7.061  11.709  20.757  0.00  0.00    +0.000 A 
ATOM     15  C   UNL     1      -6.080  11.716  19.735  0.00  0.00    +0.000 A 
ATOM     16  C   UNL     1      -6.370  11.051  18.425  0.00  0.00    +0.000 C 
ATOM     17  C   UNL     1      -4.866  12.323  20.090  0.00  0.00    +0.000 A 
ATOM     18  O   UNL     1      -3.691  12.408  19.382  0.00  0.00    +0.000 OA
ENDBRANCH   3   8
BRANCH   1  21
ATOM     19  C   UNL     1       1.109   9.397  19.775  0.00  0.00    +0.000 C 
ATOM     20  O   UNL     1       0.455   9.369  20.816  0.00  0.00    +0.000 OA
ATOM     21  N   UNL     1       1.260  10.528  18.985  0.00  0.00    +0.000 N 
ATOM     22  H   UNL     1       1.968  10.511  18.269  0.00  0.00    +0.000 HD
BRANCH  19  26
ATOM     23  C   UNL     1       3.027   5.595  18.909  0.00  0.00    +0.000 A 
ATOM     24  C   UNL     1       2.444   5.887  20.138  0.00  0.00    +0.000 A 
ATOM     25  C   UNL     1       1.849   7.127  20.367  0.00  0.00    +0.000 A 
ATOM     26  C   UNL     1       1.812   8.124  19.380  0.00  0.00    +0.000 A 
ATOM     27  C   UNL     1       2.407   7.845  18.145  0.00  0.00    +0.000 A 
ATOM     28  C   UNL     1       3.013   6.586  17.918  0.00  0.00    +0.000 A 
BRANCH  23  29
ATOM     29  O   UNL     1       3.615   4.391  18.593  0.00  0.00    +0.000 OA
BRANCH  29  30
ATOM     30  C   UNL     1       2.899   3.619  17.617  0.00  0.00    +0.000 C 
BRANCH  30  32
ATOM     31  C   UNL     1       1.539   2.178  19.137  0.00  0.00    +0.000 C 
ATOM     32  C   UNL     1       1.487   3.274  18.078  0.00  0.00    +0.000 C 
ENDBRANCH  30  32
ENDBRANCH  29  30
ENDBRANCH  23  29
ENDBRANCH  19  26
ENDBRANCH   1  21
TORSDOF 6
ENDMDL
MODEL 9
REMARK VINA RESULT:      -7.5      2.886      6.755
REMARK  Name = 
REMARK  10 active torsions:
REMARK  status: ('A' for Active; 'I' for Inactive)
REMARK    1  A    between atoms: C_1  and  C_2
REMARK    2  A    between atoms: C_2  and  C_3
REMARK    3  A    between atoms: C_3  and  O_4
REMARK    4  A    between atoms: O_4  and  C_5
REMARK    5  A    between atoms: C_8  and  C_9
REMARK    6  A    between atoms: N_11  and  C_12
REMARK    7  A    between atoms: C_14  and  C_15
REMARK    8  A    between atoms: C_19  and  C_20
REMARK    9  A    between atoms: C_22  and  C_23
REMARK   10  A    between atoms: C_28  and  C_29
REMARK                            x       y       z     vdW  Elec       q    Type
REMARK                         _______ _______ _______ _____ _____    ______ ____
ROOT
ATOM      1  C   UNL     1       0.321  11.379  19.404  0.00  0.00    +0.000 A 
ATOM      2  C   UNL     1       0.648  10.043  19.100  0.00  0.00    +0.000 A 
ATOM      3  C   UNL     1       1.806   9.686  18.372  0.00  0.00    +0.000 A 
ATOM      4  C   UNL     1       2.588  10.708  17.841  0.00  0.00    +0.000 A 
ATOM      5  C   UNL     1       2.291  12.040  18.144  0.00  0.00    +0.000 A 
ATOM      6  C   UNL     1       1.205  12.385  18.976  0.00  0.00    +0.000 A 
ATOM      7  C   UNL     1       1.034  13.833  19.344  0.00  0.00    +0.000 C 
ENDROOT
BRANCH   3   8
ATOM      8  C   UNL     1       2.210   8.276  18.323  0.00  0.00    +0.000 A 
ATOM      9  N   UNL     1       1.923   7.348  19.215  0.00  0.00    +0.000 NA
ATOM     10  C   UNL     1       2.766   6.319  18.906  0.00  0.00    +0.000 A 
ATOM     11  C   UNL     1       2.983   5.120  19.594  0.00  0.00    +0.000 A 
ATOM     12  C   UNL     1       3.959   4.238  19.115  0.00  0.00    +0.000 A 
ATOM     13  C   UNL     1       4.262   2.974  19.864  0.00  0.00    +0.000 C 
ATOM     14  C   UNL     1       4.662   4.548  17.939  0.00  0.00    +0.000 A 
ATOM     15  C   UNL     1       4.452   5.744  17.210  0.00  0.00    +0.000 A 
ATOM     16  C   UNL     1       5.266   6.016  15.983  0.00  0.00    +0.000 C 
ATOM     17  C   UNL     1       3.501   6.612  17.766  0.00  0.00    +0.000 A 
ATOM     18  O   UNL     1       3.138   7.879  17.374  0.00  0.00    +0.000 OA
ENDBRANCH   3   8
BRANCH   1  21
ATOM     19  C   UNL     1      -0.864  11.905  21.547  0.00  0.00    +0.000 C 
ATOM     20  O   UNL     1       0.093  11.682  22.287  0.00  0.00    +0.000 OA
ATOM     21  N   UNL     1      -0.838  11.726  20.170  0.00  0.00    +0.000 N 
ATOM     22  H   UNL     1      -1.716  11.740  19.678  0.00  0.00    +0.000 HD
BRANCH  19  26
ATOM     23  C   UNL     1      -4.608  13.383  23.184  0.00  0.00    +0.000 A 
ATOM     24  C   UNL     1      -4.053  13.869  22.003  0.00  0.00    +0.000 A 
ATOM     25  C   UNL     1      -2.843  13.365  21.526  0.00  0.00    +0.000 A 
ATOM     26  C   UNL     1      -2.140  12.359  22.206  0.00  0.00    +0.000 A 
ATOM     27  C   UNL     1      -2.684  11.874  23.402  0.00  0.00    +0.000 A 
ATOM     28  C   UNL     1      -3.910  12.391  23.884  0.00  0.00    +0.000 A 
BRANCH  23  29
ATOM     29  O   UNL     1      -5.806  13.809  23.712  0.00  0.00    +0.000 OA
BRANCH  29  30
ATOM     30  C   UNL     1      -6.631  12.757  24.236  0.00  0.00    +0.000 C 
BRANCH  30  32
ATOM     31  C   UNL     1      -7.916  13.183  22.138  0.00  0.00    +0.000 C 
ATOM     32  C   UNL     1      -7.513  12.129  23.164  0.00  0.00    +0.000 C 
ENDBRANCH  30  32
ENDBRANCH  29  30
ENDBRANCH  23  29
ENDBRANCH  19  26
ENDBRANCH   1  21
TORSDOF 6
ENDMDL
