MODEL 1
REMARK VINA RESULT:      -7.6      0.000      0.000
REMARK  Name = 
REMARK  6 active torsions:
REMARK  status: ('A' for Active; 'I' for Inactive)
REMARK    1  A    between atoms: C_2  and  C_13
REMARK    2  A    between atoms: N_3  and  C_4
REMARK    3  A    between atoms: C_4  and  C_5
REMARK    4  A    between atoms: C_5  and  C_6
REMARK    5  A    between atoms: C_6  and  N_7
REMARK    6  A    between atoms: C_17  and  C_18
REMARK                            x       y       z     vdW  Elec       q    Type
REMARK                         _______ _______ _______ _____ _____    ______ ____
ROOT
ATOM      1  O   UNL     1       5.169   6.924  15.659  0.00  0.00    +0.000 OA
ATOM      2  C   UNL     1       5.319   6.426  16.764  0.00  0.00    +0.000 C 
ATOM      3  N   UNL     1       4.444   6.593  17.825  0.00  0.00    +0.000 N 
ATOM      4  H   UNL     1       4.761   6.298  18.739  0.00  0.00    +0.000 HD
ENDROOT
BRANCH   2   5
ATOM      5  C   UNL     1       6.489   5.636  17.040  0.00  0.00    +0.000 A 
ATOM      6  C   UNL     1       7.170   5.401  18.249  0.00  0.00    +0.000 A 
ATOM      7  N   UNL     1       8.169   4.528  18.107  0.00  0.00    +0.000 NA
ATOM      8  O   UNL     1       8.148   4.166  16.767  0.00  0.00    +0.000 OA
ATOM      9  C   UNL     1       7.151   4.839  16.121  0.00  0.00    +0.000 A 
BRANCH   9  10
ATOM     10  C   UNL     1       7.033   4.595  14.683  0.00  0.00    +0.000 A 
ATOM     11  C   UNL     1       6.113   3.667  14.176  0.00  0.00    +0.000 A 
ATOM     12  C   UNL     1       5.982   3.468  12.797  0.00  0.00    +0.000 A 
ATOM     13  C   UNL     1       6.765   4.195  11.903  0.00  0.00    +0.000 A 
ATOM     14  C   UNL     1       7.690   5.115  12.387  0.00  0.00    +0.000 A 
ATOM     15  C   UNL     1       7.829   5.303  13.764  0.00  0.00    +0.000 A 
ENDBRANCH   9  10
ENDBRANCH   2   5
BRANCH   3  16
ATOM     16  C   UNL     1       3.332   7.543  17.801  0.00  0.00    +0.000 C 
BRANCH  16  17
ATOM     17  C   UNL     1       2.039   7.008  18.404  0.00  0.00    +0.000 C 
BRANCH  17  18
ATOM     18  C   UNL     1       2.218   5.850  19.374  0.00  0.00    +0.000 C 
BRANCH  18  19
ATOM     19  N   UNL     1       2.514   4.589  18.661  0.00  0.00    +0.000 NA
ATOM     20  C   UNL     1       1.329   3.728  18.410  0.00  0.00    +0.000 C 
ATOM     21  C   UNL     1       0.743   3.104  19.686  0.00  0.00    +0.000 C 
ATOM     22  O   UNL     1       1.733   2.336  20.385  0.00  0.00    +0.000 OA
ATOM     23  C   UNL     1       2.890   3.128  20.681  0.00  0.00    +0.000 C 
ATOM     24  C   UNL     1       3.487   3.773  19.417  0.00  0.00    +0.000 C 
ENDBRANCH  18  19
ENDBRANCH  17  18
ENDBRANCH  16  17
ENDBRANCH   3  16
TORSDOF 6
ENDMDL
MODEL 2
REMARK VINA RESULT:      -7.4      4.524      7.623
REMARK  Name = 
REMARK  6 active torsions:
REMARK  status: ('A' for Active; 'I' for Inactive)
REMARK    1  A    between atoms: C_2  and  C_13
REMARK    2  A    between atoms: N_3  and  C_4
REMARK    3  A    between atoms: C_4  and  C_5
REMARK    4  A    between atoms: C_5  and  C_6
REMARK    5  A    between atoms: C_6  and  N_7
REMARK    6  A    between atoms: C_17  and  C_18
REMARK                            x       y       z     vdW  Elec       q    Type
REMARK                         _______ _______ _______ _____ _____    ______ ____
ROOT
ATOM      1  O   UNL     1       7.561   4.883  18.200  0.00  0.00    +0.000 OA
ATOM      2  C   UNL     1       7.310   5.581  17.229  0.00  0.00    +0.000 C 
ATOM      3  N   UNL     1       7.615   6.929  17.133  0.00  0.00    +0.000 N 
ATOM      4  H   UNL     1       7.196   7.447  16.373  0.00  0.00    +0.000 HD
ENDROOT
BRANCH   2   5
ATOM      5  C   UNL     1       6.619   5.017  16.101  0.00  0.00    +0.000 A 
ATOM      6  C   UNL     1       7.086   4.677  14.818  0.00  0.00    +0.000 A 
ATOM      7  N   UNL     1       6.147   4.089  14.076  0.00  0.00    +0.000 NA
ATOM      8  O   UNL     1       5.024   4.027  14.890  0.00  0.00    +0.000 OA
ATOM      9  C   UNL     1       5.299   4.596  16.100  0.00  0.00    +0.000 A 
BRANCH   9  10
ATOM     10  C   UNL     1       4.192   4.649  17.057  0.00  0.00    +0.000 A 
ATOM     11  C   UNL     1       3.647   3.478  17.602  0.00  0.00    +0.000 A 
ATOM     12  C   UNL     1       2.613   3.541  18.544  0.00  0.00    +0.000 A 
ATOM     13  C   UNL     1       2.111   4.773  18.957  0.00  0.00    +0.000 A 
ATOM     14  C   UNL     1       2.633   5.945  18.421  0.00  0.00    +0.000 A 
ATOM     15  C   UNL     1       3.656   5.881  17.471  0.00  0.00    +0.000 A 
ENDBRANCH   9  10
ENDBRANCH   2   5
BRANCH   3  16
ATOM     16  C   UNL     1       8.105   7.719  18.262  0.00  0.00    +0.000 C 
BRANCH  16  17
ATOM     17  C   UNL     1       8.316   9.195  17.949  0.00  0.00    +0.000 C 
BRANCH  17  18
ATOM     18  C   UNL     1       9.104   9.964  18.999  0.00  0.00    +0.000 C 
BRANCH  18  19
ATOM     19  N   UNL     1       9.313  11.370  18.596  0.00  0.00    +0.000 NA
ATOM     20  C   UNL     1      10.619  11.639  17.938  0.00  0.00    +0.000 C 
ATOM     21  C   UNL     1      11.819  11.523  18.890  0.00  0.00    +0.000 C 
ATOM     22  O   UNL     1      11.675  12.408  20.010  0.00  0.00    +0.000 OA
ATOM     23  C   UNL     1      10.442  12.172  20.702  0.00  0.00    +0.000 C 
ATOM     24  C   UNL     1       9.225  12.271  19.764  0.00  0.00    +0.000 C 
ENDBRANCH  18  19
ENDBRANCH  17  18
ENDBRANCH  16  17
ENDBRANCH   3  16
TORSDOF 6
ENDMDL
MODEL 3
REMARK VINA RESULT:      -7.4      4.583      7.661
REMARK  Name = 
REMARK  6 active torsions:
REMARK  status: ('A' for Active; 'I' for Inactive)
REMARK    1  A    between atoms: C_2  and  C_13
REMARK    2  A    between atoms: N_3  and  C_4
REMARK    3  A    between atoms: C_4  and  C_5
REMARK    4  A    between atoms: C_5  and  C_6
REMARK    5  A    between atoms: C_6  and  N_7
REMARK    6  A    between atoms: C_17  and  C_18
REMARK                            x       y       z     vdW  Elec       q    Type
REMARK                         _______ _______ _______ _____ _____    ______ ____
ROOT
ATOM      1  O   UNL     1       7.297   5.091  18.224  0.00  0.00    +0.000 OA
ATOM      2  C   UNL     1       7.241   5.737  17.188  0.00  0.00    +0.000 C 
ATOM      3  N   UNL     1       7.687   7.040  17.052  0.00  0.00    +0.000 N 
ATOM      4  H   UNL     1       7.420   7.537  16.213  0.00  0.00    +0.000 HD
ENDROOT
BRANCH   2   5
ATOM      5  C   UNL     1       6.644   5.156  16.015  0.00  0.00    +0.000 A 
ATOM      6  C   UNL     1       7.203   4.850  14.760  0.00  0.00    +0.000 A 
ATOM      7  N   UNL     1       6.337   4.231  13.957  0.00  0.00    +0.000 NA
ATOM      8  O   UNL     1       5.170   4.114  14.699  0.00  0.00    +0.000 OA
ATOM      9  C   UNL     1       5.346   4.681  15.929  0.00  0.00    +0.000 A 
BRANCH   9  10
ATOM     10  C   UNL     1       4.181   4.678  16.816  0.00  0.00    +0.000 A 
ATOM     11  C   UNL     1       3.761   5.845  17.468  0.00  0.00    +0.000 A 
ATOM     12  C   UNL     1       2.623   5.840  18.284  0.00  0.00    +0.000 A 
ATOM     13  C   UNL     1       1.888   4.670  18.459  0.00  0.00    +0.000 A 
ATOM     14  C   UNL     1       2.294   3.499  17.827  0.00  0.00    +0.000 A 
ATOM     15  C   UNL     1       3.437   3.503  17.023  0.00  0.00    +0.000 A 
ENDBRANCH   9  10
ENDBRANCH   2   5
BRANCH   3  16
ATOM     16  C   UNL     1       8.106   7.863  18.186  0.00  0.00    +0.000 C 
BRANCH  16  17
ATOM     17  C   UNL     1       8.201   9.353  17.877  0.00  0.00    +0.000 C 
BRANCH  17  18
ATOM     18  C   UNL     1       9.057  10.152  18.848  0.00  0.00    +0.000 C 
BRANCH  18  19
ATOM     19  N   UNL     1       9.909  11.129  18.139  0.00  0.00    +0.000 NA
ATOM     20  C   UNL     1      11.221  11.392  18.788  0.00  0.00    +0.000 C 
ATOM     21  C   UNL     1      11.106  12.154  20.117  0.00  0.00    +0.000 C 
ATOM     22  O   UNL     1      10.421  13.401  19.938  0.00  0.00    +0.000 OA
ATOM     23  C   UNL     1       9.133  13.205  19.342  0.00  0.00    +0.000 C 
ATOM     24  C   UNL     1       9.223  12.433  18.013  0.00  0.00    +0.000 C 
ENDBRANCH  18  19
ENDBRANCH  17  18
ENDBRANCH  16  17
ENDBRANCH   3  16
TORSDOF 6
ENDMDL
MODEL 4
REMARK VINA RESULT:      -7.1      0.940      1.611
REMARK  Name = 
REMARK  6 active torsions:
REMARK  status: ('A' for Active; 'I' for Inactive)
REMARK    1  A    between atoms: C_2  and  C_13
REMARK    2  A    between atoms: N_3  and  C_4
REMARK    3  A    between atoms: C_4  and  C_5
REMARK    4  A    between atoms: C_5  and  C_6
REMARK    5  A    between atoms: C_6  and  N_7
REMARK    6  A    between atoms: C_17  and  C_18
REMARK                            x       y       z     vdW  Elec       q    Type
REMARK                         _______ _______ _______ _____ _____    ______ ____
ROOT
ATOM      1  O   UNL     1       5.215   7.298  16.353  0.00  0.00    +0.000 OA
ATOM      2  C   UNL     1       5.203   6.373  17.150  0.00  0.00    +0.000 C 
ATOM      3  N   UNL     1       4.105   6.006  17.911  0.00  0.00    +0.000 N 
ATOM      4  H   UNL     1       4.261   5.356  18.669  0.00  0.00    +0.000 HD
ENDROOT
BRANCH   2   5
ATOM      5  C   UNL     1       6.399   5.607  17.374  0.00  0.00    +0.000 A 
ATOM      6  C   UNL     1       7.113   5.351  18.560  0.00  0.00    +0.000 A 
ATOM      7  N   UNL     1       8.132   4.511  18.368  0.00  0.00    +0.000 NA
ATOM      8  O   UNL     1       8.091   4.192  17.018  0.00  0.00    +0.000 OA
ATOM      9  C   UNL     1       7.062   4.859  16.416  0.00  0.00    +0.000 A 
BRANCH   9  10
ATOM     10  C   UNL     1       6.918   4.659  14.973  0.00  0.00    +0.000 A 
ATOM     11  C   UNL     1       7.727   5.349  14.059  0.00  0.00    +0.000 A 
ATOM     12  C   UNL     1       7.607   5.124  12.683  0.00  0.00    +0.000 A 
ATOM     13  C   UNL     1       6.680   4.204  12.199  0.00  0.00    +0.000 A 
ATOM     14  C   UNL     1       5.862   3.515  13.089  0.00  0.00    +0.000 A 
ATOM     15  C   UNL     1       5.974   3.751  14.461  0.00  0.00    +0.000 A 
ENDBRANCH   9  10
ENDBRANCH   2   5
BRANCH   3  16
ATOM     16  C   UNL     1       2.884   6.808  17.986  0.00  0.00    +0.000 C 
BRANCH  16  17
ATOM     17  C   UNL     1       1.597   5.990  17.990  0.00  0.00    +0.000 C 
BRANCH  17  18
ATOM     18  C   UNL     1       1.782   4.510  17.693  0.00  0.00    +0.000 C 
BRANCH  18  19
ATOM     19  N   UNL     1       1.270   3.670  18.796  0.00  0.00    +0.000 NA
ATOM     20  C   UNL     1       1.737   4.072  20.149  0.00  0.00    +0.000 C 
ATOM     21  C   UNL     1       3.234   3.816  20.381  0.00  0.00    +0.000 C 
ATOM     22  O   UNL     1       3.560   2.435  20.171  0.00  0.00    +0.000 OA
ATOM     23  C   UNL     1       3.158   2.000  18.866  0.00  0.00    +0.000 C 
ATOM     24  C   UNL     1       1.661   2.257  18.607  0.00  0.00    +0.000 C 
ENDBRANCH  18  19
ENDBRANCH  17  18
ENDBRANCH  16  17
ENDBRANCH   3  16
TORSDOF 6
ENDMDL
MODEL 5
REMARK VINA RESULT:      -7.0      3.482      5.799
REMARK  Name = 
REMARK  6 active torsions:
REMARK  status: ('A' for Active; 'I' for Inactive)
REMARK    1  A    between atoms: C_2  and  C_13
REMARK    2  A    between atoms: N_3  and  C_4
REMARK    3  A    between atoms: C_4  and  C_5
REMARK    4  A    between atoms: C_5  and  C_6
REMARK    5  A    between atoms: C_6  and  N_7
REMARK    6  A    between atoms: C_17  and  C_18
REMARK                            x       y       z     vdW  Elec       q    Type
REMARK                         _______ _______ _______ _____ _____    ______ ____
ROOT
ATOM      1  O   UNL     1       1.817   5.304  18.321  0.00  0.00    +0.000 OA
ATOM      2  C   UNL     1       2.593   5.418  19.258  0.00  0.00    +0.000 C 
ATOM      3  N   UNL     1       2.665   6.525  20.087  0.00  0.00    +0.000 N 
ATOM      4  H   UNL     1       3.463   6.593  20.703  0.00  0.00    +0.000 HD
ENDROOT
BRANCH   2   5
ATOM      5  C   UNL     1       3.541   4.371  19.533  0.00  0.00    +0.000 A 
ATOM      6  C   UNL     1       3.355   3.091  20.087  0.00  0.00    +0.000 A 
ATOM      7  N   UNL     1       4.480   2.375  20.097  0.00  0.00    +0.000 NA
ATOM      8  O   UNL     1       5.441   3.197  19.527  0.00  0.00    +0.000 OA
ATOM      9  C   UNL     1       4.885   4.401  19.201  0.00  0.00    +0.000 A 
BRANCH   9  10
ATOM     10  C   UNL     1       5.791   5.399  18.629  0.00  0.00    +0.000 A 
ATOM     11  C   UNL     1       5.400   6.200  17.547  0.00  0.00    +0.000 A 
ATOM     12  C   UNL     1       6.260   7.176  17.031  0.00  0.00    +0.000 A 
ATOM     13  C   UNL     1       7.522   7.368  17.589  0.00  0.00    +0.000 A 
ATOM     14  C   UNL     1       7.932   6.577  18.657  0.00  0.00    +0.000 A 
ATOM     15  C   UNL     1       7.077   5.594  19.163  0.00  0.00    +0.000 A 
ENDBRANCH   9  10
ENDBRANCH   2   5
BRANCH   3  16
ATOM     16  C   UNL     1       1.946   7.770  19.818  0.00  0.00    +0.000 C 
BRANCH  16  17
ATOM     17  C   UNL     1       2.194   8.350  18.431  0.00  0.00    +0.000 C 
BRANCH  17  18
ATOM     18  C   UNL     1       1.410   9.615  18.118  0.00  0.00    +0.000 C 
BRANCH  18  19
ATOM     19  N   UNL     1       0.731  10.141  19.321  0.00  0.00    +0.000 NA
ATOM     20  C   UNL     1      -0.752  10.177  19.229  0.00  0.00    +0.000 C 
ATOM     21  C   UNL     1      -1.279  11.219  18.231  0.00  0.00    +0.000 C 
ATOM     22  O   UNL     1      -0.804  12.532  18.558  0.00  0.00    +0.000 OA
ATOM     23  C   UNL     1       0.627  12.564  18.630  0.00  0.00    +0.000 C 
ATOM     24  C   UNL     1       1.178  11.519  19.618  0.00  0.00    +0.000 C 
ENDBRANCH  18  19
ENDBRANCH  17  18
ENDBRANCH  16  17
ENDBRANCH   3  16
TORSDOF 6
ENDMDL
MODEL 6
REMARK VINA RESULT:      -6.9      3.564      5.465
REMARK  Name = 
REMARK  6 active torsions:
REMARK  status: ('A' for Active; 'I' for Inactive)
REMARK    1  A    between atoms: C_2  and  C_13
REMARK    2  A    between atoms: N_3  and  C_4
REMARK    3  A    between atoms: C_4  and  C_5
REMARK    4  A    between atoms: C_5  and  C_6
REMARK    5  A    between atoms: C_6  and  N_7
REMARK    6  A    between atoms: C_17  and  C_18
REMARK                            x       y       z     vdW  Elec       q    Type
REMARK                         _______ _______ _______ _____ _____    ______ ____
ROOT
ATOM      1  O   UNL     1       2.490   6.460  20.018  0.00  0.00    +0.000 OA
ATOM      2  C   UNL     1       2.536   6.154  18.836  0.00  0.00    +0.000 C 
ATOM      3  N   UNL     1       2.696   7.057  17.798  0.00  0.00    +0.000 N 
ATOM      4  H   UNL     1       2.529   6.720  16.860  0.00  0.00    +0.000 HD
ENDROOT
BRANCH   2   5
ATOM      5  C   UNL     1       2.381   4.779  18.447  0.00  0.00    +0.000 A 
ATOM      6  C   UNL     1       1.273   3.917  18.550  0.00  0.00    +0.000 A 
ATOM      7  N   UNL     1       1.499   2.730  17.987  0.00  0.00    +0.000 NA
ATOM      8  O   UNL     1       2.792   2.803  17.487  0.00  0.00    +0.000 OA
ATOM      9  C   UNL     1       3.329   4.026  17.773  0.00  0.00    +0.000 A 
BRANCH   9  10
ATOM     10  C   UNL     1       4.714   4.240  17.348  0.00  0.00    +0.000 A 
ATOM     11  C   UNL     1       5.066   4.234  15.991  0.00  0.00    +0.000 A 
ATOM     12  C   UNL     1       6.386   4.476  15.593  0.00  0.00    +0.000 A 
ATOM     13  C   UNL     1       7.373   4.731  16.543  0.00  0.00    +0.000 A 
ATOM     14  C   UNL     1       7.044   4.733  17.895  0.00  0.00    +0.000 A 
ATOM     15  C   UNL     1       5.729   4.478  18.291  0.00  0.00    +0.000 A 
ENDBRANCH   9  10
ENDBRANCH   2   5
BRANCH   3  16
ATOM     16  C   UNL     1       2.637   8.507  17.986  0.00  0.00    +0.000 C 
BRANCH  16  17
ATOM     17  C   UNL     1       1.239   9.100  17.848  0.00  0.00    +0.000 C 
BRANCH  17  18
ATOM     18  C   UNL     1       0.976  10.319  18.718  0.00  0.00    +0.000 C 
BRANCH  18  19
ATOM     19  N   UNL     1      -0.240  10.144  19.540  0.00  0.00    +0.000 NA
ATOM     20  C   UNL     1      -0.749  11.393  20.166  0.00  0.00    +0.000 C 
ATOM     21  C   UNL     1       0.164  11.940  21.274  0.00  0.00    +0.000 C 
ATOM     22  O   UNL     1       0.373  10.960  22.301  0.00  0.00    +0.000 OA
ATOM     23  C   UNL     1       0.894   9.741  21.756  0.00  0.00    +0.000 C 
ATOM     24  C   UNL     1      -0.001   9.180  20.635  0.00  0.00    +0.000 C 
ENDBRANCH  18  19
ENDBRANCH  17  18
ENDBRANCH  16  17
ENDBRANCH   3  16
TORSDOF 6
ENDMDL
MODEL 7
REMARK VINA RESULT:      -6.9      4.625      8.148
REMARK  Name = 
REMARK  6 active torsions:
REMARK  status: ('A' for Active; 'I' for Inactive)
REMARK    1  A    between atoms: C_2  and  C_13
REMARK    2  A    between atoms: N_3  and  C_4
REMARK    3  A    between atoms: C_4  and  C_5
REMARK    4  A    between atoms: C_5  and  C_6
REMARK    5  A    between atoms: C_6  and  N_7
REMARK    6  A    between atoms: C_17  and  C_18
REMARK                            x       y       z     vdW  Elec       q    Type
REMARK                         _______ _______ _______ _____ _____    ______ ____
ROOT
ATOM      1  O   UNL     1       7.151   5.472  19.658  0.00  0.00    +0.000 OA
ATOM      2  C   UNL     1       7.107   5.792  18.479  0.00  0.00    +0.000 C 
ATOM      3  N   UNL     1       7.747   6.896  17.942  0.00  0.00    +0.000 N 
ATOM      4  H   UNL     1       7.489   7.172  17.004  0.00  0.00    +0.000 HD
ENDROOT
BRANCH   2   5
ATOM      5  C   UNL     1       6.318   5.020  17.558  0.00  0.00    +0.000 A 
ATOM      6  C   UNL     1       6.682   4.364  16.366  0.00  0.00    +0.000 A 
ATOM      7  N   UNL     1       5.672   3.672  15.839  0.00  0.00    +0.000 NA
ATOM      8  O   UNL     1       4.606   3.865  16.706  0.00  0.00    +0.000 OA
ATOM      9  C   UNL     1       4.985   4.684  17.731  0.00  0.00    +0.000 A 
BRANCH   9  10
ATOM     10  C   UNL     1       3.949   5.020  18.709  0.00  0.00    +0.000 A 
ATOM     11  C   UNL     1       3.349   6.286  18.725  0.00  0.00    +0.000 A 
ATOM     12  C   UNL     1       2.332   6.585  19.640  0.00  0.00    +0.000 A 
ATOM     13  C   UNL     1       1.899   5.624  20.550  0.00  0.00    +0.000 A 
ATOM     14  C   UNL     1       2.489   4.364  20.555  0.00  0.00    +0.000 A 
ATOM     15  C   UNL     1       3.512   4.071  19.650  0.00  0.00    +0.000 A 
ENDBRANCH   9  10
ENDBRANCH   2   5
BRANCH   3  16
ATOM     16  C   UNL     1       8.398   7.918  18.761  0.00  0.00    +0.000 C 
BRANCH  16  17
ATOM     17  C   UNL     1       8.407   9.309  18.137  0.00  0.00    +0.000 C 
BRANCH  17  18
ATOM     18  C   UNL     1       9.189  10.353  18.919  0.00  0.00    +0.000 C 
BRANCH  18  19
ATOM     19  N   UNL     1       9.922  11.266  18.016  0.00  0.00    +0.000 NA
ATOM     20  C   UNL     1      11.253  11.696  18.519  0.00  0.00    +0.000 C 
ATOM     21  C   UNL     1      11.176  12.635  19.733  0.00  0.00    +0.000 C 
ATOM     22  O   UNL     1      10.395  13.801  19.434  0.00  0.00    +0.000 OA
ATOM     23  C   UNL     1       9.086  13.444  18.973  0.00  0.00    +0.000 C 
ATOM     24  C   UNL     1       9.140  12.495  17.761  0.00  0.00    +0.000 C 
ENDBRANCH  18  19
ENDBRANCH  17  18
ENDBRANCH  16  17
ENDBRANCH   3  16
TORSDOF 6
ENDMDL
MODEL 8
REMARK VINA RESULT:      -6.9      3.357      5.782
REMARK  Name = 
REMARK  6 active torsions:
REMARK  status: ('A' for Active; 'I' for Inactive)
REMARK    1  A    between atoms: C_2  and  C_13
REMARK    2  A    between atoms: N_3  and  C_4
REMARK    3  A    between atoms: C_4  and  C_5
REMARK    4  A    between atoms: C_5  and  C_6
REMARK    5  A    between atoms: C_6  and  N_7
REMARK    6  A    between atoms: C_17  and  C_18
REMARK                            x       y       z     vdW  Elec       q    Type
REMARK                         _______ _______ _______ _____ _____    ______ ____
ROOT
ATOM      1  O   UNL     1       1.411   4.851  19.050  0.00  0.00    +0.000 OA
ATOM      2  C   UNL     1       2.472   5.130  19.587  0.00  0.00    +0.000 C 
ATOM      3  N   UNL     1       2.814   6.393  20.042  0.00  0.00    +0.000 N 
ATOM      4  H   UNL     1       3.780   6.551  20.294  0.00  0.00    +0.000 HD
ENDROOT
BRANCH   2   5
ATOM      5  C   UNL     1       3.482   4.117  19.746  0.00  0.00    +0.000 A 
ATOM      6  C   UNL     1       3.401   2.823  20.293  0.00  0.00    +0.000 A 
ATOM      7  N   UNL     1       4.547   2.151  20.176  0.00  0.00    +0.000 NA
ATOM      8  O   UNL     1       5.414   3.018  19.525  0.00  0.00    +0.000 OA
ATOM      9  C   UNL     1       4.782   4.204  19.278  0.00  0.00    +0.000 A 
BRANCH   9  10
ATOM     10  C   UNL     1       5.587   5.243  18.634  0.00  0.00    +0.000 A 
ATOM     11  C   UNL     1       6.874   5.555  19.094  0.00  0.00    +0.000 A 
ATOM     12  C   UNL     1       7.650   6.525  18.448  0.00  0.00    +0.000 A 
ATOM     13  C   UNL     1       7.153   7.196  17.333  0.00  0.00    +0.000 A 
ATOM     14  C   UNL     1       5.875   6.906  16.867  0.00  0.00    +0.000 A 
ATOM     15  C   UNL     1       5.097   5.948  17.520  0.00  0.00    +0.000 A 
ENDBRANCH   9  10
ENDBRANCH   2   5
BRANCH   3  16
ATOM     16  C   UNL     1       2.015   7.585  19.760  0.00  0.00    +0.000 C 
BRANCH  16  17
ATOM     17  C   UNL     1       2.267   8.197  18.387  0.00  0.00    +0.000 C 
BRANCH  17  18
ATOM     18  C   UNL     1       1.449   9.443  18.083  0.00  0.00    +0.000 C 
BRANCH  18  19
ATOM     19  N   UNL     1       0.746   9.934  19.287  0.00  0.00    +0.000 NA
ATOM     20  C   UNL     1      -0.726  10.071  19.132  0.00  0.00    +0.000 C 
ATOM     21  C   UNL     1      -1.139  11.206  18.182  0.00  0.00    +0.000 C 
ATOM     22  O   UNL     1      -0.601  12.463  18.617  0.00  0.00    +0.000 OA
ATOM     23  C   UNL     1       0.824  12.397  18.755  0.00  0.00    +0.000 C 
ATOM     24  C   UNL     1       1.261  11.258  19.695  0.00  0.00    +0.000 C 
ENDBRANCH  18  19
ENDBRANCH  17  18
ENDBRANCH  16  17
ENDBRANCH   3  16
TORSDOF 6
ENDMDL
MODEL 9
REMARK VINA RESULT:      -6.9      3.618      6.403
REMARK  Name = 
REMARK  6 active torsions:
REMARK  status: ('A' for Active; 'I' for Inactive)
REMARK    1  A    between atoms: C_2  and  C_13
REMARK    2  A    between atoms: N_3  and  C_4
REMARK    3  A    between atoms: C_4  and  C_5
REMARK    4  A    between atoms: C_5  and  C_6
REMARK    5  A    between atoms: C_6  and  N_7
REMARK    6  A    between atoms: C_17  and  C_18
REMARK                            x       y       z     vdW  Elec       q    Type
REMARK                         _______ _______ _______ _____ _____    ______ ____
ROOT
ATOM      1  O   UNL     1       4.576   7.013  16.213  0.00  0.00    +0.000 OA
ATOM      2  C   UNL     1       4.292   6.706  17.361  0.00  0.00    +0.000 C 
ATOM      3  N   UNL     1       3.244   7.253  18.083  0.00  0.00    +0.000 N 
ATOM      4  H   UNL     1       3.218   7.068  19.077  0.00  0.00    +0.000 HD
ENDROOT
BRANCH   2   5
ATOM      5  C   UNL     1       5.095   5.742  18.063  0.00  0.00    +0.000 A 
ATOM      6  C   UNL     1       6.492   5.653  18.218  0.00  0.00    +0.000 A 
ATOM      7  N   UNL     1       6.850   4.654  19.025  0.00  0.00    +0.000 NA
ATOM      8  O   UNL     1       5.659   4.064  19.426  0.00  0.00    +0.000 OA
ATOM      9  C   UNL     1       4.605   4.705  18.840  0.00  0.00    +0.000 A 
BRANCH   9  10
ATOM     10  C   UNL     1       3.276   4.165  19.131  0.00  0.00    +0.000 A 
ATOM     11  C   UNL     1       2.613   3.334  18.218  0.00  0.00    +0.000 A 
ATOM     12  C   UNL     1       1.358   2.793  18.522  0.00  0.00    +0.000 A 
ATOM     13  C   UNL     1       0.749   3.072  19.744  0.00  0.00    +0.000 A 
ATOM     14  C   UNL     1       1.388   3.901  20.660  0.00  0.00    +0.000 A 
ATOM     15  C   UNL     1       2.634   4.451  20.349  0.00  0.00    +0.000 A 
ENDBRANCH   9  10
ENDBRANCH   2   5
BRANCH   3  16
ATOM     16  C   UNL     1       2.470   8.404  17.618  0.00  0.00    +0.000 C 
BRANCH  16  17
ATOM     17  C   UNL     1       1.603   9.050  18.693  0.00  0.00    +0.000 C 
BRANCH  17  18
ATOM     18  C   UNL     1       1.416  10.552  18.542  0.00  0.00    +0.000 C 
BRANCH  18  19
ATOM     19  N   UNL     1       0.584  11.105  19.631  0.00  0.00    +0.000 NA
ATOM     20  C   UNL     1      -0.755  10.471  19.770  0.00  0.00    +0.000 C 
ATOM     21  C   UNL     1      -1.707  10.792  18.608  0.00  0.00    +0.000 C 
ATOM     22  O   UNL     1      -1.879  12.208  18.458  0.00  0.00    +0.000 OA
ATOM     23  C   UNL     1      -0.619  12.869  18.290  0.00  0.00    +0.000 C 
ATOM     24  C   UNL     1       0.357  12.553  19.439  0.00  0.00    +0.000 C 
ENDBRANCH  18  19
ENDBRANCH  17  18
ENDBRANCH  16  17
ENDBRANCH   3  16
TORSDOF 6
ENDMDL
