MODEL 1
REMARK VINA RESULT:      -8.8      0.000      0.000
REMARK  Name = 
REMARK  5 active torsions:
REMARK  status: ('A' for Active; 'I' for Inactive)
REMARK    1  A    between atoms: C_1  and  O_2
REMARK    2  A    between atoms: O_2  and  C_3
REMARK    3  A    between atoms: C_7  and  C_8
REMARK    4  A    between atoms: N_10  and  C_11
REMARK    5  A    between atoms: C_18  and  O_19
REMARK                            x       y       z     vdW  Elec       q    Type
REMARK                         _______ _______ _______ _____ _____    ______ ____
ROOT
ATOM      1  C   UNL     1       2.482   7.443  18.824  0.00  0.00    +0.000 C 
ATOM      2  O   UNL     1       3.239   7.432  17.857  0.00  0.00    +0.000 OA
ATOM      3  N   UNL     1       2.309   6.340  19.636  0.00  0.00    +0.000 N 
ATOM      4  H   UNL     1       1.634   6.419  20.392  0.00  0.00    +0.000 HD
ENDROOT
BRANCH   3   5
ATOM      5  C   UNL     1       2.989   5.079  19.355  0.00  0.00    +0.000 C 
ATOM      6  C   UNL     1       2.698   3.999  20.419  0.00  0.00    +0.000 C 
ATOM      7  C   UNL     1       1.243   3.501  20.311  0.00  0.00    +0.000 C 
ATOM      8  C   UNL     1       0.983   2.909  18.917  0.00  0.00    +0.000 C 
ATOM      9  C   UNL     1       1.230   3.997  17.857  0.00  0.00    +0.000 C 
ATOM     10  C   UNL     1       2.684   4.509  17.944  0.00  0.00    +0.000 C 
ATOM     11  C   UNL     1       3.625   3.309  17.691  0.00  0.00    +0.000 C 
ATOM     12  C   UNL     1       3.398   2.223  18.761  0.00  0.00    +0.000 C 
ATOM     13  C   UNL     1       1.944   1.730  18.683  0.00  0.00    +0.000 C 
ATOM     14  C   UNL     1       3.650   2.814  20.161  0.00  0.00    +0.000 C 
BRANCH  12  15
ATOM     15  O   UNL     1       4.289   1.137  18.553  0.00  0.00    +0.000 OA
ATOM     16  H   UNL     1       5.133   1.348  18.986  0.00  0.00    +0.000 HD
ENDBRANCH  12  15
ENDBRANCH   3   5
BRANCH   1  21
ATOM     17  C   UNL     1      -0.456  10.340  22.212  0.00  0.00    +0.000 A 
ATOM     18  C   UNL     1       0.610   9.324  22.507  0.00  0.00    +0.000 A 
ATOM     19  N   UNL     1       1.377   8.723  21.637  0.00  0.00    +0.000 NA
ATOM     20  C   UNL     1       1.209   9.111  20.330  0.00  0.00    +0.000 A 
ATOM     21  C   UNL     1       1.690   8.620  19.129  0.00  0.00    +0.000 A 
ATOM     22  C   UNL     1       1.214   9.541  18.165  0.00  0.00    +0.000 A 
ATOM     23  N   UNL     1       0.423  10.480  18.675  0.00  0.00    +0.000 NA
ATOM     24  N   UNL     1       0.350  10.170  19.987  0.00  0.00    +0.000 N 
ATOM     25  C   UNL     1      -0.490  10.737  20.931  0.00  0.00    +0.000 A 
BRANCH  17  27
ATOM     26  C   UNL     1      -1.690  12.196  23.055  0.00  0.00    +0.000 C 
ATOM     27  O   UNL     1      -1.383  10.811  23.111  0.00  0.00    +0.000 OA
ENDBRANCH  17  27
ENDBRANCH   1  21
TORSDOF 4
ENDMDL
MODEL 2
REMARK VINA RESULT:      -8.2      4.550      7.616
REMARK  Name = 
REMARK  5 active torsions:
REMARK  status: ('A' for Active; 'I' for Inactive)
REMARK    1  A    between atoms: C_1  and  O_2
REMARK    2  A    between atoms: O_2  and  C_3
REMARK    3  A    between atoms: C_7  and  C_8
REMARK    4  A    between atoms: N_10  and  C_11
REMARK    5  A    between atoms: C_18  and  O_19
REMARK                            x       y       z     vdW  Elec       q    Type
REMARK                         _______ _______ _______ _____ _____    ______ ____
ROOT
ATOM      1  C   UNL     1       5.544   5.122  18.579  0.00  0.00    +0.000 C 
ATOM      2  O   UNL     1       6.145   5.050  19.648  0.00  0.00    +0.000 OA
ATOM      3  N   UNL     1       4.204   4.807  18.465  0.00  0.00    +0.000 N 
ATOM      4  H   UNL     1       3.791   4.855  17.538  0.00  0.00    +0.000 HD
ENDROOT
BRANCH   3   5
ATOM      5  C   UNL     1       3.440   4.323  19.611  0.00  0.00    +0.000 C 
ATOM      6  C   UNL     1       1.933   4.637  19.495  0.00  0.00    +0.000 C 
ATOM      7  C   UNL     1       1.276   3.773  18.401  0.00  0.00    +0.000 C 
ATOM      8  C   UNL     1       1.448   2.280  18.724  0.00  0.00    +0.000 C 
ATOM      9  C   UNL     1       2.951   1.954  18.798  0.00  0.00    +0.000 C 
ATOM     10  C   UNL     1       3.631   2.807  19.890  0.00  0.00    +0.000 C 
ATOM     11  C   UNL     1       2.956   2.474  21.241  0.00  0.00    +0.000 C 
ATOM     12  C   UNL     1       1.455   2.816  21.182  0.00  0.00    +0.000 C 
ATOM     13  C   UNL     1       0.786   1.979  20.080  0.00  0.00    +0.000 C 
ATOM     14  C   UNL     1       1.277   4.310  20.850  0.00  0.00    +0.000 C 
BRANCH  12  15
ATOM     15  O   UNL     1       0.842   2.547  22.434  0.00  0.00    +0.000 OA
ATOM     16  H   UNL     1       1.504   2.133  23.015  0.00  0.00    +0.000 HD
ENDBRANCH  12  15
ENDBRANCH   3   5
BRANCH   1  21
ATOM     17  C   UNL     1       6.650   4.381  13.410  0.00  0.00    +0.000 A 
ATOM     18  C   UNL     1       5.433   3.973  14.189  0.00  0.00    +0.000 A 
ATOM     19  N   UNL     1       5.163   4.277  15.431  0.00  0.00    +0.000 NA
ATOM     20  C   UNL     1       6.076   5.096  16.052  0.00  0.00    +0.000 A 
ATOM     21  C   UNL     1       6.240   5.502  17.365  0.00  0.00    +0.000 A 
ATOM     22  C   UNL     1       7.315   6.422  17.308  0.00  0.00    +0.000 A 
ATOM     23  N   UNL     1       7.858   6.528  16.099  0.00  0.00    +0.000 NA
ATOM     24  N   UNL     1       7.155   5.654  15.347  0.00  0.00    +0.000 N 
ATOM     25  C   UNL     1       7.439   5.256  14.050  0.00  0.00    +0.000 A 
BRANCH  17  27
ATOM     26  C   UNL     1       6.367   2.705  11.740  0.00  0.00    +0.000 C 
ATOM     27  O   UNL     1       7.011   3.891  12.177  0.00  0.00    +0.000 OA
ENDBRANCH  17  27
ENDBRANCH   1  21
TORSDOF 4
ENDMDL
MODEL 3
REMARK VINA RESULT:      -7.9      1.503      2.205
REMARK  Name = 
REMARK  5 active torsions:
REMARK  status: ('A' for Active; 'I' for Inactive)
REMARK    1  A    between atoms: C_1  and  O_2
REMARK    2  A    between atoms: O_2  and  C_3
REMARK    3  A    between atoms: C_7  and  C_8
REMARK    4  A    between atoms: N_10  and  C_11
REMARK    5  A    between atoms: C_18  and  O_19
REMARK                            x       y       z     vdW  Elec       q    Type
REMARK                         _______ _______ _______ _____ _____    ______ ____
ROOT
ATOM      1  C   UNL     1       2.216   7.416  19.861  0.00  0.00    +0.000 C 
ATOM      2  O   UNL     1       2.813   7.596  18.803  0.00  0.00    +0.000 OA
ATOM      3  N   UNL     1       2.220   6.197  20.510  0.00  0.00    +0.000 N 
ATOM      4  H   UNL     1       1.669   6.120  21.360  0.00  0.00    +0.000 HD
ENDROOT
BRANCH   3   5
ATOM      5  C   UNL     1       2.903   5.039  19.941  0.00  0.00    +0.000 C 
ATOM      6  C   UNL     1       2.640   3.745  20.741  0.00  0.00    +0.000 C 
ATOM      7  C   UNL     1       1.187   3.268  20.551  0.00  0.00    +0.000 C 
ATOM      8  C   UNL     1       0.901   3.001  19.065  0.00  0.00    +0.000 C 
ATOM      9  C   UNL     1       1.121   4.301  18.271  0.00  0.00    +0.000 C 
ATOM     10  C   UNL     1       2.572   4.796  18.444  0.00  0.00    +0.000 C 
ATOM     11  C   UNL     1       3.516   3.693  17.911  0.00  0.00    +0.000 C 
ATOM     12  C   UNL     1       3.317   2.393  18.714  0.00  0.00    +0.000 C 
ATOM     13  C   UNL     1       1.865   1.914  18.555  0.00  0.00    +0.000 C 
ATOM     14  C   UNL     1       3.594   2.658  20.206  0.00  0.00    +0.000 C 
BRANCH  12  15
ATOM     15  O   UNL     1       4.211   1.391  18.252  0.00  0.00    +0.000 OA
ATOM     16  H   UNL     1       4.887   1.247  18.935  0.00  0.00    +0.000 HD
ENDBRANCH  12  15
ENDBRANCH   3   5
BRANCH   1  21
ATOM     17  C   UNL     1      -0.605  11.928  19.438  0.00  0.00    +0.000 A 
ATOM     18  C   UNL     1      -0.337  10.874  18.402  0.00  0.00    +0.000 A 
ATOM     19  N   UNL     1       0.269   9.732  18.590  0.00  0.00    +0.000 NA
ATOM     20  C   UNL     1       0.647   9.467  19.884  0.00  0.00    +0.000 A 
ATOM     21  C   UNL     1       1.431   8.481  20.457  0.00  0.00    +0.000 A 
ATOM     22  C   UNL     1       1.337   8.730  21.847  0.00  0.00    +0.000 A 
ATOM     23  N   UNL     1       0.643   9.825  22.143  0.00  0.00    +0.000 NA
ATOM     24  N   UNL     1       0.291  10.325  20.939  0.00  0.00    +0.000 N 
ATOM     25  C   UNL     1      -0.297  11.554  20.689  0.00  0.00    +0.000 A 
BRANCH  17  27
ATOM     26  C   UNL     1      -0.087  14.223  19.058  0.00  0.00    +0.000 C 
ATOM     27  O   UNL     1      -1.063  13.200  19.185  0.00  0.00    +0.000 OA
ENDBRANCH  17  27
ENDBRANCH   1  21
TORSDOF 4
ENDMDL
MODEL 4
REMARK VINA RESULT:      -7.9      1.458      2.171
REMARK  Name = 
REMARK  5 active torsions:
REMARK  status: ('A' for Active; 'I' for Inactive)
REMARK    1  A    between atoms: C_1  and  O_2
REMARK    2  A    between atoms: O_2  and  C_3
REMARK    3  A    between atoms: C_7  and  C_8
REMARK    4  A    between atoms: N_10  and  C_11
REMARK    5  A    between atoms: C_18  and  O_19
REMARK                            x       y       z     vdW  Elec       q    Type
REMARK                         _______ _______ _______ _____ _____    ______ ____
ROOT
ATOM      1  C   UNL     1       1.887   7.749  19.951  0.00  0.00    +0.000 C 
ATOM      2  O   UNL     1       2.307   8.086  18.847  0.00  0.00    +0.000 OA
ATOM      3  N   UNL     1       2.024   6.461  20.429  0.00  0.00    +0.000 N 
ATOM      4  H   UNL     1       1.613   6.254  21.335  0.00  0.00    +0.000 HD
ENDROOT
BRANCH   3   5
ATOM      5  C   UNL     1       2.641   5.415  19.619  0.00  0.00    +0.000 C 
ATOM      6  C   UNL     1       3.416   4.386  20.470  0.00  0.00    +0.000 C 
ATOM      7  C   UNL     1       2.447   3.504  21.281  0.00  0.00    +0.000 C 
ATOM      8  C   UNL     1       1.493   2.752  20.340  0.00  0.00    +0.000 C 
ATOM      9  C   UNL     1       0.687   3.777  19.521  0.00  0.00    +0.000 C 
ATOM     10  C   UNL     1       1.638   4.670  18.697  0.00  0.00    +0.000 C 
ATOM     11  C   UNL     1       2.443   3.756  17.745  0.00  0.00    +0.000 C 
ATOM     12  C   UNL     1       3.268   2.739  18.558  0.00  0.00    +0.000 C 
ATOM     13  C   UNL     1       2.318   1.864  19.392  0.00  0.00    +0.000 C 
ATOM     14  C   UNL     1       4.220   3.488  19.509  0.00  0.00    +0.000 C 
BRANCH  12  15
ATOM     15  O   UNL     1       4.037   1.924  17.686  0.00  0.00    +0.000 OA
ATOM     16  H   UNL     1       3.854   0.993  17.899  0.00  0.00    +0.000 HD
ENDBRANCH  12  15
ENDBRANCH   3   5
BRANCH   1  21
ATOM     17  C   UNL     1      -1.330  11.970  20.531  0.00  0.00    +0.000 A 
ATOM     18  C   UNL     1      -1.223  11.007  19.384  0.00  0.00    +0.000 A 
ATOM     19  N   UNL     1      -0.494   9.924  19.340  0.00  0.00    +0.000 NA
ATOM     20  C   UNL     1       0.197   9.627  20.489  0.00  0.00    +0.000 A 
ATOM     21  C   UNL     1       1.175   8.695  20.790  0.00  0.00    +0.000 A 
ATOM     22  C   UNL     1       1.388   8.856  22.180  0.00  0.00    +0.000 A 
ATOM     23  N   UNL     1       0.692   9.857  22.710  0.00  0.00    +0.000 NA
ATOM     24  N   UNL     1       0.026  10.384  21.661  0.00  0.00    +0.000 N 
ATOM     25  C   UNL     1      -0.707  11.560  21.646  0.00  0.00    +0.000 A 
BRANCH  17  27
ATOM     26  C   UNL     1      -3.359  13.218  20.530  0.00  0.00    +0.000 C 
ATOM     27  O   UNL     1      -1.941  13.201  20.489  0.00  0.00    +0.000 OA
ENDBRANCH  17  27
ENDBRANCH   1  21
TORSDOF 4
ENDMDL
MODEL 5
REMARK VINA RESULT:      -7.7      1.569      1.986
REMARK  Name = 
REMARK  5 active torsions:
REMARK  status: ('A' for Active; 'I' for Inactive)
REMARK    1  A    between atoms: C_1  and  O_2
REMARK    2  A    between atoms: O_2  and  C_3
REMARK    3  A    between atoms: C_7  and  C_8
REMARK    4  A    between atoms: N_10  and  C_11
REMARK    5  A    between atoms: C_18  and  O_19
REMARK                            x       y       z     vdW  Elec       q    Type
REMARK                         _______ _______ _______ _____ _____    ______ ____
ROOT
ATOM      1  C   UNL     1       1.673   7.805  20.384  0.00  0.00    +0.000 C 
ATOM      2  O   UNL     1       1.611   7.362  21.528  0.00  0.00    +0.000 OA
ATOM      3  N   UNL     1       2.363   7.157  19.379  0.00  0.00    +0.000 N 
ATOM      4  H   UNL     1       2.398   7.610  18.471  0.00  0.00    +0.000 HD
ENDROOT
BRANCH   3   5
ATOM      5  C   UNL     1       3.100   5.924  19.641  0.00  0.00    +0.000 C 
ATOM      6  C   UNL     1       2.213   4.666  19.522  0.00  0.00    +0.000 C 
ATOM      7  C   UNL     1       1.836   4.398  18.052  0.00  0.00    +0.000 C 
ATOM      8  C   UNL     1       3.101   4.196  17.204  0.00  0.00    +0.000 C 
ATOM      9  C   UNL     1       3.967   5.465  17.286  0.00  0.00    +0.000 C 
ATOM     10  C   UNL     1       4.360   5.752  18.750  0.00  0.00    +0.000 C 
ATOM     11  C   UNL     1       5.162   4.538  19.273  0.00  0.00    +0.000 C 
ATOM     12  C   UNL     1       4.295   3.265  19.213  0.00  0.00    +0.000 C 
ATOM     13  C   UNL     1       3.890   2.994  17.755  0.00  0.00    +0.000 C 
ATOM     14  C   UNL     1       3.021   3.466  20.055  0.00  0.00    +0.000 C 
BRANCH  12  15
ATOM     15  O   UNL     1       5.017   2.157  19.729  0.00  0.00    +0.000 OA
ATOM     16  H   UNL     1       5.967   2.353  19.662  0.00  0.00    +0.000 HD
ENDBRANCH  12  15
ENDBRANCH   3   5
BRANCH   1  21
ATOM     17  C   UNL     1      -1.530  11.897  21.606  0.00  0.00    +0.000 A 
ATOM     18  C   UNL     1      -0.790  10.963  22.521  0.00  0.00    +0.000 A 
ATOM     19  N   UNL     1       0.070  10.045  22.168  0.00  0.00    +0.000 NA
ATOM     20  C   UNL     1       0.349   9.978  20.824  0.00  0.00    +0.000 A 
ATOM     21  C   UNL     1       1.052   9.073  20.049  0.00  0.00    +0.000 A 
ATOM     22  C   UNL     1       1.039   9.645  18.754  0.00  0.00    +0.000 A 
ATOM     23  N   UNL     1       0.318  10.759  18.675  0.00  0.00    +0.000 NA
ATOM     24  N   UNL     1      -0.175  10.920  19.922  0.00  0.00    +0.000 N 
ATOM     25  C   UNL     1      -1.131  11.837  20.327  0.00  0.00    +0.000 A 
BRANCH  17  27
ATOM     26  C   UNL     1      -3.159  12.484  23.243  0.00  0.00    +0.000 C 
ATOM     27  O   UNL     1      -2.572  12.716  21.972  0.00  0.00    +0.000 OA
ENDBRANCH  17  27
ENDBRANCH   1  21
TORSDOF 4
ENDMDL
MODEL 6
REMARK VINA RESULT:      -7.7      2.355      3.350
REMARK  Name = 
REMARK  5 active torsions:
REMARK  status: ('A' for Active; 'I' for Inactive)
REMARK    1  A    between atoms: C_1  and  O_2
REMARK    2  A    between atoms: O_2  and  C_3
REMARK    3  A    between atoms: C_7  and  C_8
REMARK    4  A    between atoms: N_10  and  C_11
REMARK    5  A    between atoms: C_18  and  O_19
REMARK                            x       y       z     vdW  Elec       q    Type
REMARK                         _______ _______ _______ _____ _____    ______ ____
ROOT
ATOM      1  C   UNL     1       2.230   7.788  17.962  0.00  0.00    +0.000 C 
ATOM      2  O   UNL     1       1.402   6.988  17.535  0.00  0.00    +0.000 OA
ATOM      3  N   UNL     1       3.589   7.593  17.809  0.00  0.00    +0.000 N 
ATOM      4  H   UNL     1       4.208   8.282  18.225  0.00  0.00    +0.000 HD
ENDROOT
BRANCH   3   5
ATOM      5  C   UNL     1       4.114   6.391  17.167  0.00  0.00    +0.000 C 
ATOM      6  C   UNL     1       5.369   6.674  16.316  0.00  0.00    +0.000 C 
ATOM      7  C   UNL     1       6.579   6.999  17.213  0.00  0.00    +0.000 C 
ATOM      8  C   UNL     1       6.874   5.825  18.159  0.00  0.00    +0.000 C 
ATOM      9  C   UNL     1       5.638   5.568  19.040  0.00  0.00    +0.000 C 
ATOM     10  C   UNL     1       4.414   5.237  18.162  0.00  0.00    +0.000 C 
ATOM     11  C   UNL     1       4.746   3.967  17.344  0.00  0.00    +0.000 C 
ATOM     12  C   UNL     1       5.970   4.222  16.444  0.00  0.00    +0.000 C 
ATOM     13  C   UNL     1       7.183   4.570  17.322  0.00  0.00    +0.000 C 
ATOM     14  C   UNL     1       5.682   5.404  15.500  0.00  0.00    +0.000 C 
BRANCH  12  15
ATOM     15  O   UNL     1       6.253   3.069  15.664  0.00  0.00    +0.000 OA
ATOM     16  H   UNL     1       6.329   2.307  16.264  0.00  0.00    +0.000 HD
ENDBRANCH  12  15
ENDBRANCH   3   5
BRANCH   1  21
ATOM     17  C   UNL     1       0.074  10.068  22.280  0.00  0.00    +0.000 A 
ATOM     18  C   UNL     1       0.764   8.741  22.151  0.00  0.00    +0.000 A 
ATOM     19  N   UNL     1       1.373   8.278  21.091  0.00  0.00    +0.000 NA
ATOM     20  C   UNL     1       1.418   9.129  20.014  0.00  0.00    +0.000 A 
ATOM     21  C   UNL     1       1.809   8.966  18.697  0.00  0.00    +0.000 A 
ATOM     22  C   UNL     1       1.697  10.263  18.141  0.00  0.00    +0.000 A 
ATOM     23  N   UNL     1       1.191  11.159  18.984  0.00  0.00    +0.000 NA
ATOM     24  N   UNL     1       0.941  10.448  20.105  0.00  0.00    +0.000 N 
ATOM     25  C   UNL     1       0.248  10.878  21.225  0.00  0.00    +0.000 A 
BRANCH  17  27
ATOM     26  C   UNL     1      -1.603  11.548  23.102  0.00  0.00    +0.000 C 
ATOM     27  O   UNL     1      -0.727  10.454  23.329  0.00  0.00    +0.000 OA
ENDBRANCH  17  27
ENDBRANCH   1  21
TORSDOF 4
ENDMDL
MODEL 7
REMARK VINA RESULT:      -7.4      1.753      2.359
REMARK  Name = 
REMARK  5 active torsions:
REMARK  status: ('A' for Active; 'I' for Inactive)
REMARK    1  A    between atoms: C_1  and  O_2
REMARK    2  A    between atoms: O_2  and  C_3
REMARK    3  A    between atoms: C_7  and  C_8
REMARK    4  A    between atoms: N_10  and  C_11
REMARK    5  A    between atoms: C_18  and  O_19
REMARK                            x       y       z     vdW  Elec       q    Type
REMARK                         _______ _______ _______ _____ _____    ______ ____
ROOT
ATOM      1  C   UNL     1       2.064   7.696  19.446  0.00  0.00    +0.000 C 
ATOM      2  O   UNL     1       2.458   7.924  18.305  0.00  0.00    +0.000 OA
ATOM      3  N   UNL     1       2.237   6.467  20.052  0.00  0.00    +0.000 N 
ATOM      4  H   UNL     1       1.846   6.347  20.983  0.00  0.00    +0.000 HD
ENDROOT
BRANCH   3   5
ATOM      5  C   UNL     1       2.862   5.354  19.343  0.00  0.00    +0.000 C 
ATOM      6  C   UNL     1       3.560   4.362  20.296  0.00  0.00    +0.000 C 
ATOM      7  C   UNL     1       2.524   3.560  21.109  0.00  0.00    +0.000 C 
ATOM      8  C   UNL     1       1.597   2.776  20.168  0.00  0.00    +0.000 C 
ATOM      9  C   UNL     1       0.866   3.768  19.244  0.00  0.00    +0.000 C 
ATOM     10  C   UNL     1       1.884   4.580  18.417  0.00  0.00    +0.000 C 
ATOM     11  C   UNL     1       2.708   3.584  17.568  0.00  0.00    +0.000 C 
ATOM     12  C   UNL     1       3.459   2.600  18.486  0.00  0.00    +0.000 C 
ATOM     13  C   UNL     1       2.441   1.807  19.322  0.00  0.00    +0.000 C 
ATOM     14  C   UNL     1       4.384   3.382  19.437  0.00  0.00    +0.000 C 
BRANCH  12  15
ATOM     15  O   UNL     1       4.246   1.710  17.708  0.00  0.00    +0.000 OA
ATOM     16  H   UNL     1       4.341   0.877  18.202  0.00  0.00    +0.000 HD
ENDBRANCH  12  15
ENDBRANCH   3   5
BRANCH   1  21
ATOM     17  C   UNL     1       0.565  12.766  20.183  0.00  0.00    +0.000 A 
ATOM     18  C   UNL     1       0.975  12.070  18.917  0.00  0.00    +0.000 A 
ATOM     19  N   UNL     1       1.227  10.797  18.772  0.00  0.00    +0.000 NA
ATOM     20  C   UNL     1       1.043  10.025  19.894  0.00  0.00    +0.000 A 
ATOM     21  C   UNL     1       1.347   8.709  20.196  0.00  0.00    +0.000 A 
ATOM     22  C   UNL     1       0.802   8.518  21.489  0.00  0.00    +0.000 A 
ATOM     23  N   UNL     1       0.284   9.624  22.014  0.00  0.00    +0.000 NA
ATOM     24  N   UNL     1       0.505  10.568  21.074  0.00  0.00    +0.000 N 
ATOM     25  C   UNL     1       0.311  11.933  21.204  0.00  0.00    +0.000 A 
BRANCH  17  27
ATOM     26  C   UNL     1       0.907  14.942  19.275  0.00  0.00    +0.000 C 
ATOM     27  O   UNL     1       0.497  14.127  20.362  0.00  0.00    +0.000 OA
ENDBRANCH  17  27
ENDBRANCH   1  21
TORSDOF 4
ENDMDL
MODEL 8
REMARK VINA RESULT:      -7.4      2.467      3.665
REMARK  Name = 
REMARK  5 active torsions:
REMARK  status: ('A' for Active; 'I' for Inactive)
REMARK    1  A    between atoms: C_1  and  O_2
REMARK    2  A    between atoms: O_2  and  C_3
REMARK    3  A    between atoms: C_7  and  C_8
REMARK    4  A    between atoms: N_10  and  C_11
REMARK    5  A    between atoms: C_18  and  O_19
REMARK                            x       y       z     vdW  Elec       q    Type
REMARK                         _______ _______ _______ _____ _____    ______ ____
ROOT
ATOM      1  C   UNL     1       2.555   7.709  18.215  0.00  0.00    +0.000 C 
ATOM      2  O   UNL     1       2.509   8.207  17.093  0.00  0.00    +0.000 OA
ATOM      3  N   UNL     1       3.224   6.529  18.470  0.00  0.00    +0.000 N 
ATOM      4  H   UNL     1       3.180   6.163  19.417  0.00  0.00    +0.000 HD
ENDROOT
BRANCH   3   5
ATOM      5  C   UNL     1       3.878   5.783  17.399  0.00  0.00    +0.000 C 
ATOM      6  C   UNL     1       5.042   6.566  16.756  0.00  0.00    +0.000 C 
ATOM      7  C   UNL     1       6.236   6.666  17.725  0.00  0.00    +0.000 C 
ATOM      8  C   UNL     1       6.733   5.263  18.108  0.00  0.00    +0.000 C 
ATOM      9  C   UNL     1       5.586   4.495  18.789  0.00  0.00    +0.000 C 
ATOM     10  C   UNL     1       4.378   4.379  17.835  0.00  0.00    +0.000 C 
ATOM     11  C   UNL     1       4.842   3.616  16.573  0.00  0.00    +0.000 C 
ATOM     12  C   UNL     1       5.977   4.389  15.874  0.00  0.00    +0.000 C 
ATOM     13  C   UNL     1       7.171   4.518  16.834  0.00  0.00    +0.000 C 
ATOM     14  C   UNL     1       5.487   5.799  15.495  0.00  0.00    +0.000 C 
BRANCH  12  15
ATOM     15  O   UNL     1       6.378   3.708  14.694  0.00  0.00    +0.000 OA
ATOM     16  H   UNL     1       5.608   3.641  14.104  0.00  0.00    +0.000 HD
ENDBRANCH  12  15
ENDBRANCH   3   5
BRANCH   1  21
ATOM     17  C   UNL     1       0.225  11.942  20.486  0.00  0.00    +0.000 A 
ATOM     18  C   UNL     1       0.430  11.637  19.030  0.00  0.00    +0.000 A 
ATOM     19  N   UNL     1       0.909  10.532  18.524  0.00  0.00    +0.000 NA
ATOM     20  C   UNL     1       1.201   9.542  19.431  0.00  0.00    +0.000 A 
ATOM     21  C   UNL     1       1.856   8.327  19.326  0.00  0.00    +0.000 A 
ATOM     22  C   UNL     1       1.726   7.754  20.614  0.00  0.00    +0.000 A 
ATOM     23  N   UNL     1       1.134   8.556  21.494  0.00  0.00    +0.000 NA
ATOM     24  N   UNL     1       0.887   9.685  20.793  0.00  0.00    +0.000 N 
ATOM     25  C   UNL     1       0.438  10.894  21.297  0.00  0.00    +0.000 A 
BRANCH  17  27
ATOM     26  C   UNL     1      -0.614  13.199  22.328  0.00  0.00    +0.000 C 
ATOM     27  O   UNL     1      -0.090  13.174  21.009  0.00  0.00    +0.000 OA
ENDBRANCH  17  27
ENDBRANCH   1  21
TORSDOF 4
ENDMDL
MODEL 9
REMARK VINA RESULT:      -7.4      7.370     10.536
REMARK  Name = 
REMARK  5 active torsions:
REMARK  status: ('A' for Active; 'I' for Inactive)
REMARK    1  A    between atoms: C_1  and  O_2
REMARK    2  A    between atoms: O_2  and  C_3
REMARK    3  A    between atoms: C_7  and  C_8
REMARK    4  A    between atoms: N_10  and  C_11
REMARK    5  A    between atoms: C_18  and  O_19
REMARK                            x       y       z     vdW  Elec       q    Type
REMARK                         _______ _______ _______ _____ _____    ______ ____
ROOT
ATOM      1  C   UNL     1       7.980   9.204  17.871  0.00  0.00    +0.000 C 
ATOM      2  O   UNL     1       7.270   9.803  17.067  0.00  0.00    +0.000 OA
ATOM      3  N   UNL     1       8.977   9.836  18.586  0.00  0.00    +0.000 N 
ATOM      4  H   UNL     1       9.546   9.261  19.201  0.00  0.00    +0.000 HD
ENDROOT
BRANCH   3   5
ATOM      5  C   UNL     1       9.271  11.252  18.386  0.00  0.00    +0.000 C 
ATOM      6  C   UNL     1       9.156  12.071  19.690  0.00  0.00    +0.000 C 
ATOM      7  C   UNL     1      10.311  11.733  20.653  0.00  0.00    +0.000 C 
ATOM      8  C   UNL     1      11.665  12.037  19.993  0.00  0.00    +0.000 C 
ATOM      9  C   UNL     1      11.801  11.189  18.715  0.00  0.00    +0.000 C 
ATOM     10  C   UNL     1      10.655  11.513  17.733  0.00  0.00    +0.000 C 
ATOM     11  C   UNL     1      10.747  13.015  17.376  0.00  0.00    +0.000 C 
ATOM     12  C   UNL     1      10.592  13.872  18.648  0.00  0.00    +0.000 C 
ATOM     13  C   UNL     1      11.723  13.532  19.631  0.00  0.00    +0.000 C 
ATOM     14  C   UNL     1       9.240  13.564  19.318  0.00  0.00    +0.000 C 
BRANCH  12  15
ATOM     15  O   UNL     1      10.638  15.252  18.316  0.00  0.00    +0.000 OA
ATOM     16  H   UNL     1      10.947  15.335  17.398  0.00  0.00    +0.000 HD
ENDBRANCH  12  15
ENDBRANCH   3   5
BRANCH   1  21
ATOM     17  C   UNL     1       5.474   4.598  16.869  0.00  0.00    +0.000 A 
ATOM     18  C   UNL     1       5.563   5.835  16.022  0.00  0.00    +0.000 A 
ATOM     19  N   UNL     1       6.283   6.898  16.267  0.00  0.00    +0.000 NA
ATOM     20  C   UNL     1       7.070   6.835  17.391  0.00  0.00    +0.000 A 
ATOM     21  C   UNL     1       7.827   7.775  18.068  0.00  0.00    +0.000 A 
ATOM     22  C   UNL     1       8.467   7.031  19.090  0.00  0.00    +0.000 A 
ATOM     23  N   UNL     1       8.088   5.757  19.133  0.00  0.00    +0.000 NA
ATOM     24  N   UNL     1       7.170   5.654  18.148  0.00  0.00    +0.000 N 
ATOM     25  C   UNL     1       6.344   4.573  17.890  0.00  0.00    +0.000 A 
BRANCH  17  27
ATOM     26  C   UNL     1       3.889   3.124  17.863  0.00  0.00    +0.000 C 
ATOM     27  O   UNL     1       4.567   3.578  16.703  0.00  0.00    +0.000 OA
ENDBRANCH  17  27
ENDBRANCH   1  21
TORSDOF 4
ENDMDL
