MODEL 1
REMARK VINA RESULT:      -8.0      0.000      0.000
REMARK  Name = 
REMARK  8 active torsions:
REMARK  status: ('A' for Active; 'I' for Inactive)
REMARK    1  A    between atoms: C_1  and  C_2
REMARK    2  A    between atoms: C_2  and  N_3
REMARK    3  A    between atoms: C_7  and  C_8
REMARK    4  A    between atoms: C_8  and  O_9
REMARK    5  A    between atoms: O_9  and  C_10
REMARK    6  A    between atoms: C_16  and  O_17
REMARK    7  A    between atoms: C_19  and  C_20
REMARK    8  A    between atoms: C_19  and  C_21
REMARK                            x       y       z     vdW  Elec       q    Type
REMARK                         _______ _______ _______ _____ _____    ______ ____
ROOT
ATOM      1  C   UNL     1       4.143   5.471  17.578  0.00  0.00    +0.000 A 
ATOM      2  C   UNL     1       3.849   6.833  17.443  0.00  0.00    +0.000 A 
ATOM      3  C   UNL     1       2.924   7.436  18.293  0.00  0.00    +0.000 A 
ATOM      4  C   UNL     1       2.286   6.680  19.273  0.00  0.00    +0.000 A 
ATOM      5  C   UNL     1       2.587   5.325  19.418  0.00  0.00    +0.000 A 
ATOM      6  C   UNL     1       3.563   4.717  18.615  0.00  0.00    +0.000 A 
ATOM      7  C   UNL     1       3.905   3.260  18.818  0.00  0.00    +0.000 C 
ATOM      8  C   UNL     1       3.310   2.733  20.115  0.00  0.00    +0.000 C 
ATOM      9  C   UNL     1       1.876   3.228  20.300  0.00  0.00    +0.000 C 
ATOM     10  C   UNL     1       0.917   2.748  19.197  0.00  0.00    +0.000 C 
ATOM     11  C   UNL     1       1.349   2.721  21.650  0.00  0.00    +0.000 C 
ATOM     12  O   UNL     1       1.857   4.665  20.371  0.00  0.00    +0.000 OA
ENDROOT
BRANCH   7  13
ATOM     13  O   UNL     1       5.315   3.031  18.901  0.00  0.00    +0.000 OA
ATOM     14  H   UNL     1       5.597   3.314  19.788  0.00  0.00    +0.000 HD
ENDBRANCH   7  13
BRANCH   1  15
ATOM     15  O   UNL     1       5.013   4.814  16.746  0.00  0.00    +0.000 OA
BRANCH  15  16
ATOM     16  C   UNL     1       6.174   5.562  16.373  0.00  0.00    +0.000 C 
BRANCH  16  21
ATOM     17  N   UNL     1       7.531   6.947  18.025  0.00  0.00    +0.000 N 
ATOM     18  N   UNL     1       8.336   6.758  19.093  0.00  0.00    +0.000 NA
ATOM     19  C   UNL     1       8.218   5.446  19.294  0.00  0.00    +0.000 A 
ATOM     20  N   UNL     1       7.431   4.793  18.394  0.00  0.00    +0.000 NA
ATOM     21  C   UNL     1       7.014   5.751  17.590  0.00  0.00    +0.000 A 
BRANCH  17  23
ATOM     22  C   UNL     1       8.366   9.276  18.078  0.00  0.00    +0.000 C 
ATOM     23  C   UNL     1       7.398   8.275  17.466  0.00  0.00    +0.000 C 
ENDBRANCH  17  23
ENDBRANCH  16  21
ENDBRANCH  15  16
ENDBRANCH   1  15
TORSDOF 5
ENDMDL
MODEL 2
REMARK VINA RESULT:      -7.9      2.731      3.758
REMARK  Name = 
REMARK  8 active torsions:
REMARK  status: ('A' for Active; 'I' for Inactive)
REMARK    1  A    between atoms: C_1  and  C_2
REMARK    2  A    between atoms: C_2  and  N_3
REMARK    3  A    between atoms: C_7  and  C_8
REMARK    4  A    between atoms: C_8  and  O_9
REMARK    5  A    between atoms: O_9  and  C_10
REMARK    6  A    between atoms: C_16  and  O_17
REMARK    7  A    between atoms: C_19  and  C_20
REMARK    8  A    between atoms: C_19  and  C_21
REMARK                            x       y       z     vdW  Elec       q    Type
REMARK                         _______ _______ _______ _____ _____    ______ ____
ROOT
ATOM      1  C   UNL     1       4.824   5.432  17.154  0.00  0.00    +0.000 A 
ATOM      2  C   UNL     1       4.593   6.759  16.773  0.00  0.00    +0.000 A 
ATOM      3  C   UNL     1       3.535   7.472  17.333  0.00  0.00    +0.000 A 
ATOM      4  C   UNL     1       2.702   6.861  18.266  0.00  0.00    +0.000 A 
ATOM      5  C   UNL     1       2.939   5.542  18.657  0.00  0.00    +0.000 A 
ATOM      6  C   UNL     1       4.038   4.830  18.154  0.00  0.00    +0.000 A 
ATOM      7  C   UNL     1       4.302   3.420  18.624  0.00  0.00    +0.000 C 
ATOM      8  C   UNL     1       3.455   3.081  19.842  0.00  0.00    +0.000 C 
ATOM      9  C   UNL     1       2.024   3.589  19.672  0.00  0.00    +0.000 C 
ATOM     10  C   UNL     1       1.286   2.950  18.483  0.00  0.00    +0.000 C 
ATOM     11  C   UNL     1       1.235   3.278  20.952  0.00  0.00    +0.000 C 
ATOM     12  O   UNL     1       2.024   5.021  19.534  0.00  0.00    +0.000 OA
ENDROOT
BRANCH   7  13
ATOM     13  O   UNL     1       5.663   3.213  19.012  0.00  0.00    +0.000 OA
ATOM     14  H   UNL     1       5.938   2.358  18.640  0.00  0.00    +0.000 HD
ENDBRANCH   7  13
BRANCH   1  15
ATOM     15  O   UNL     1       5.824   4.667  16.610  0.00  0.00    +0.000 OA
BRANCH  15  16
ATOM     16  C   UNL     1       5.479   3.996  15.394  0.00  0.00    +0.000 C 
BRANCH  16  21
ATOM     17  N   UNL     1       6.464   3.977  13.045  0.00  0.00    +0.000 N 
ATOM     18  N   UNL     1       7.486   4.538  12.364  0.00  0.00    +0.000 NA
ATOM     19  C   UNL     1       7.971   5.396  13.261  0.00  0.00    +0.000 A 
ATOM     20  N   UNL     1       7.352   5.376  14.473  0.00  0.00    +0.000 NA
ATOM     21  C   UNL     1       6.409   4.466  14.327  0.00  0.00    +0.000 A 
BRANCH  17  23
ATOM     22  C   UNL     1       4.466   3.501  11.664  0.00  0.00    +0.000 C 
ATOM     23  C   UNL     1       5.672   2.947  12.409  0.00  0.00    +0.000 C 
ENDBRANCH  17  23
ENDBRANCH  16  21
ENDBRANCH  15  16
ENDBRANCH   1  15
TORSDOF 5
ENDMDL
MODEL 3
REMARK VINA RESULT:      -7.6      1.353      2.061
REMARK  Name = 
REMARK  8 active torsions:
REMARK  status: ('A' for Active; 'I' for Inactive)
REMARK    1  A    between atoms: C_1  and  C_2
REMARK    2  A    between atoms: C_2  and  N_3
REMARK    3  A    between atoms: C_7  and  C_8
REMARK    4  A    between atoms: C_8  and  O_9
REMARK    5  A    between atoms: O_9  and  C_10
REMARK    6  A    between atoms: C_16  and  O_17
REMARK    7  A    between atoms: C_19  and  C_20
REMARK    8  A    between atoms: C_19  and  C_21
REMARK                            x       y       z     vdW  Elec       q    Type
REMARK                         _______ _______ _______ _____ _____    ______ ____
ROOT
ATOM      1  C   UNL     1       3.337   6.121  17.988  0.00  0.00    +0.000 A 
ATOM      2  C   UNL     1       2.951   7.453  18.179  0.00  0.00    +0.000 A 
ATOM      3  C   UNL     1       2.201   7.810  19.298  0.00  0.00    +0.000 A 
ATOM      4  C   UNL     1       1.829   6.838  20.223  0.00  0.00    +0.000 A 
ATOM      5  C   UNL     1       2.224   5.511  20.041  0.00  0.00    +0.000 A 
ATOM      6  C   UNL     1       3.034   5.146  18.956  0.00  0.00    +0.000 A 
ATOM      7  C   UNL     1       3.487   3.713  18.802  0.00  0.00    +0.000 C 
ATOM      8  C   UNL     1       3.212   2.914  20.067  0.00  0.00    +0.000 C 
ATOM      9  C   UNL     1       1.828   3.235  20.629  0.00  0.00    +0.000 C 
ATOM     10  C   UNL     1       0.681   2.872  19.672  0.00  0.00    +0.000 C 
ATOM     11  C   UNL     1       1.632   2.452  21.935  0.00  0.00    +0.000 C 
ATOM     12  O   UNL     1       1.752   4.629  20.977  0.00  0.00    +0.000 OA
ENDROOT
BRANCH   7  13
ATOM     13  O   UNL     1       4.891   3.602  18.554  0.00  0.00    +0.000 OA
ATOM     14  H   UNL     1       5.347   3.982  19.324  0.00  0.00    +0.000 HD
ENDBRANCH   7  13
BRANCH   1  15
ATOM     15  O   UNL     1       4.041   5.703  16.887  0.00  0.00    +0.000 OA
BRANCH  15  16
ATOM     16  C   UNL     1       5.187   6.496  16.566  0.00  0.00    +0.000 C 
BRANCH  16  21
ATOM     17  N   UNL     1       7.024   4.730  16.556  0.00  0.00    +0.000 N 
ATOM     18  N   UNL     1       8.013   4.284  17.360  0.00  0.00    +0.000 NA
ATOM     19  C   UNL     1       7.971   5.166  18.357  0.00  0.00    +0.000 A 
ATOM     20  N   UNL     1       6.991   6.107  18.256  0.00  0.00    +0.000 NA
ATOM     21  C   UNL     1       6.392   5.812  17.118  0.00  0.00    +0.000 A 
BRANCH  17  23
ATOM     22  C   UNL     1       6.951   4.846  14.085  0.00  0.00    +0.000 C 
ATOM     23  C   UNL     1       6.724   4.011  15.337  0.00  0.00    +0.000 C 
ENDBRANCH  17  23
ENDBRANCH  16  21
ENDBRANCH  15  16
ENDBRANCH   1  15
TORSDOF 5
ENDMDL
MODEL 4
REMARK VINA RESULT:      -7.3      3.194      4.622
REMARK  Name = 
REMARK  8 active torsions:
REMARK  status: ('A' for Active; 'I' for Inactive)
REMARK    1  A    between atoms: C_1  and  C_2
REMARK    2  A    between atoms: C_2  and  N_3
REMARK    3  A    between atoms: C_7  and  C_8
REMARK    4  A    between atoms: C_8  and  O_9
REMARK    5  A    between atoms: O_9  and  C_10
REMARK    6  A    between atoms: C_16  and  O_17
REMARK    7  A    between atoms: C_19  and  C_20
REMARK    8  A    between atoms: C_19  and  C_21
REMARK                            x       y       z     vdW  Elec       q    Type
REMARK                         _______ _______ _______ _____ _____    ______ ____
ROOT
ATOM      1  C   UNL     1       6.240   4.158  17.023  0.00  0.00    +0.000 A 
ATOM      2  C   UNL     1       7.464   4.780  17.298  0.00  0.00    +0.000 A 
ATOM      3  C   UNL     1       7.630   5.509  18.474  0.00  0.00    +0.000 A 
ATOM      4  C   UNL     1       6.573   5.625  19.373  0.00  0.00    +0.000 A 
ATOM      5  C   UNL     1       5.356   4.995  19.107  0.00  0.00    +0.000 A 
ATOM      6  C   UNL     1       5.193   4.203  17.962  0.00  0.00    +0.000 A 
ATOM      7  C   UNL     1       3.882   3.494  17.716  0.00  0.00    +0.000 C 
ATOM      8  C   UNL     1       3.002   3.525  18.957  0.00  0.00    +0.000 C 
ATOM      9  C   UNL     1       3.028   4.904  19.612  0.00  0.00    +0.000 C 
ATOM     10  C   UNL     1       2.481   6.021  18.708  0.00  0.00    +0.000 C 
ATOM     11  C   UNL     1       2.178   4.859  20.890  0.00  0.00    +0.000 C 
ATOM     12  O   UNL     1       4.368   5.225  20.029  0.00  0.00    +0.000 OA
ENDROOT
BRANCH   7  13
ATOM     13  O   UNL     1       4.056   2.114  17.381  0.00  0.00    +0.000 OA
ATOM     14  H   UNL     1       3.593   1.965  16.540  0.00  0.00    +0.000 HD
ENDBRANCH   7  13
BRANCH   1  15
ATOM     15  O   UNL     1       6.005   3.461  15.866  0.00  0.00    +0.000 OA
BRANCH  15  16
ATOM     16  C   UNL     1       5.338   4.201  14.839  0.00  0.00    +0.000 C 
BRANCH  16  21
ATOM     17  N   UNL     1       6.410   3.842  12.556  0.00  0.00    +0.000 N 
ATOM     18  N   UNL     1       7.482   4.271  11.855  0.00  0.00    +0.000 NA
ATOM     19  C   UNL     1       7.969   5.217  12.656  0.00  0.00    +0.000 A 
ATOM     20  N   UNL     1       7.303   5.378  13.833  0.00  0.00    +0.000 NA
ATOM     21  C   UNL     1       6.327   4.493  13.762  0.00  0.00    +0.000 A 
BRANCH  17  23
ATOM     22  C   UNL     1       4.296   3.261  11.410  0.00  0.00    +0.000 C 
ATOM     23  C   UNL     1       5.599   2.769  12.023  0.00  0.00    +0.000 C 
ENDBRANCH  17  23
ENDBRANCH  16  21
ENDBRANCH  15  16
ENDBRANCH   1  15
TORSDOF 5
ENDMDL
MODEL 5
REMARK VINA RESULT:      -7.2      1.399      2.087
REMARK  Name = 
REMARK  8 active torsions:
REMARK  status: ('A' for Active; 'I' for Inactive)
REMARK    1  A    between atoms: C_1  and  C_2
REMARK    2  A    between atoms: C_2  and  N_3
REMARK    3  A    between atoms: C_7  and  C_8
REMARK    4  A    between atoms: C_8  and  O_9
REMARK    5  A    between atoms: O_9  and  C_10
REMARK    6  A    between atoms: C_16  and  O_17
REMARK    7  A    between atoms: C_19  and  C_20
REMARK    8  A    between atoms: C_19  and  C_21
REMARK                            x       y       z     vdW  Elec       q    Type
REMARK                         _______ _______ _______ _____ _____    ______ ____
ROOT
ATOM      1  C   UNL     1       2.934   6.475  18.197  0.00  0.00    +0.000 A 
ATOM      2  C   UNL     1       2.543   7.774  18.542  0.00  0.00    +0.000 A 
ATOM      3  C   UNL     1       1.904   8.012  19.757  0.00  0.00    +0.000 A 
ATOM      4  C   UNL     1       1.646   6.954  20.625  0.00  0.00    +0.000 A 
ATOM      5  C   UNL     1       2.046   5.660  20.288  0.00  0.00    +0.000 A 
ATOM      6  C   UNL     1       2.749   5.412  19.100  0.00  0.00    +0.000 A 
ATOM      7  C   UNL     1       3.212   4.012  18.776  0.00  0.00    +0.000 C 
ATOM      8  C   UNL     1       3.083   3.099  19.986  0.00  0.00    +0.000 C 
ATOM      9  C   UNL     1       1.757   3.332  20.709  0.00  0.00    +0.000 C 
ATOM     10  C   UNL     1       0.526   3.020  19.842  0.00  0.00    +0.000 C 
ATOM     11  C   UNL     1       1.709   2.434  21.954  0.00  0.00    +0.000 C 
ATOM     12  O   UNL     1       1.689   4.688  21.185  0.00  0.00    +0.000 OA
ENDROOT
BRANCH   7  13
ATOM     13  O   UNL     1       4.586   3.963  18.381  0.00  0.00    +0.000 OA
ATOM     14  H   UNL     1       5.118   4.025  19.193  0.00  0.00    +0.000 HD
ENDBRANCH   7  13
BRANCH   1  15
ATOM     15  O   UNL     1       3.531   6.174  16.999  0.00  0.00    +0.000 OA
BRANCH  15  16
ATOM     16  C   UNL     1       4.764   6.854  16.751  0.00  0.00    +0.000 C 
BRANCH  16  21
ATOM     17  N   UNL     1       7.040   5.714  16.856  0.00  0.00    +0.000 N 
ATOM     18  N   UNL     1       7.740   4.772  16.187  0.00  0.00    +0.000 NA
ATOM     19  C   UNL     1       6.833   4.325  15.320  0.00  0.00    +0.000 A 
ATOM     20  N   UNL     1       5.627   4.956  15.368  0.00  0.00    +0.000 NA
ATOM     21  C   UNL     1       5.776   5.840  16.335  0.00  0.00    +0.000 A 
BRANCH  17  23
ATOM     22  C   UNL     1       7.687   5.758  19.244  0.00  0.00    +0.000 C 
ATOM     23  C   UNL     1       7.694   6.472  17.901  0.00  0.00    +0.000 C 
ENDBRANCH  17  23
ENDBRANCH  16  21
ENDBRANCH  15  16
ENDBRANCH   1  15
TORSDOF 5
ENDMDL
MODEL 6
REMARK VINA RESULT:      -6.9      1.767      2.347
REMARK  Name = 
REMARK  8 active torsions:
REMARK  status: ('A' for Active; 'I' for Inactive)
REMARK    1  A    between atoms: C_1  and  C_2
REMARK    2  A    between atoms: C_2  and  N_3
REMARK    3  A    between atoms: C_7  and  C_8
REMARK    4  A    between atoms: C_8  and  O_9
REMARK    5  A    between atoms: O_9  and  C_10
REMARK    6  A    between atoms: C_16  and  O_17
REMARK    7  A    between atoms: C_19  and  C_20
REMARK    8  A    between atoms: C_19  and  C_21
REMARK                            x       y       z     vdW  Elec       q    Type
REMARK                         _______ _______ _______ _____ _____    ______ ____
ROOT
ATOM      1  C   UNL     1       4.135   5.141  18.223  0.00  0.00    +0.000 A 
ATOM      2  C   UNL     1       3.821   6.486  17.996  0.00  0.00    +0.000 A 
ATOM      3  C   UNL     1       2.825   7.108  18.747  0.00  0.00    +0.000 A 
ATOM      4  C   UNL     1       2.135   6.386  19.718  0.00  0.00    +0.000 A 
ATOM      5  C   UNL     1       2.456   5.049  19.955  0.00  0.00    +0.000 A 
ATOM      6  C   UNL     1       3.500   4.426  19.256  0.00  0.00    +0.000 A 
ATOM      7  C   UNL     1       3.860   2.991  19.559  0.00  0.00    +0.000 C 
ATOM      8  C   UNL     1       3.186   2.516  20.837  0.00  0.00    +0.000 C 
ATOM      9  C   UNL     1       1.732   2.981  20.895  0.00  0.00    +0.000 C 
ATOM     10  C   UNL     1       0.865   2.420  19.756  0.00  0.00    +0.000 C 
ATOM     11  C   UNL     1       1.122   2.531  22.231  0.00  0.00    +0.000 C 
ATOM     12  O   UNL     1       1.676   4.419  20.889  0.00  0.00    +0.000 OA
ENDROOT
BRANCH   7  13
ATOM     13  O   UNL     1       5.265   2.804  19.753  0.00  0.00    +0.000 OA
ATOM     14  H   UNL     1       5.384   1.914  20.127  0.00  0.00    +0.000 HD
ENDBRANCH   7  13
BRANCH   1  15
ATOM     15  O   UNL     1       5.077   4.465  17.491  0.00  0.00    +0.000 OA
BRANCH  15  16
ATOM     16  C   UNL     1       4.701   4.178  16.140  0.00  0.00    +0.000 C 
BRANCH  16  21
ATOM     17  N   UNL     1       7.015   5.131  15.661  0.00  0.00    +0.000 N 
ATOM     18  N   UNL     1       7.809   5.392  14.600  0.00  0.00    +0.000 NA
ATOM     19  C   UNL     1       7.109   4.862  13.599  0.00  0.00    +0.000 A 
ATOM     20  N   UNL     1       5.907   4.327  13.953  0.00  0.00    +0.000 NA
ATOM     21  C   UNL     1       5.855   4.516  15.258  0.00  0.00    +0.000 A 
BRANCH  17  23
ATOM     22  C   UNL     1       7.350   7.088  17.137  0.00  0.00    +0.000 C 
ATOM     23  C   UNL     1       7.420   5.577  16.976  0.00  0.00    +0.000 C 
ENDBRANCH  17  23
ENDBRANCH  16  21
ENDBRANCH  15  16
ENDBRANCH   1  15
TORSDOF 5
ENDMDL
MODEL 7
REMARK VINA RESULT:      -6.8      2.611      5.378
REMARK  Name = 
REMARK  8 active torsions:
REMARK  status: ('A' for Active; 'I' for Inactive)
REMARK    1  A    between atoms: C_1  and  C_2
REMARK    2  A    between atoms: C_2  and  N_3
REMARK    3  A    between atoms: C_7  and  C_8
REMARK    4  A    between atoms: C_8  and  O_9
REMARK    5  A    between atoms: O_9  and  C_10
REMARK    6  A    between atoms: C_16  and  O_17
REMARK    7  A    between atoms: C_19  and  C_20
REMARK    8  A    between atoms: C_19  and  C_21
REMARK                            x       y       z     vdW  Elec       q    Type
REMARK                         _______ _______ _______ _____ _____    ______ ____
ROOT
ATOM      1  C   UNL     1       3.177   4.422  17.314  0.00  0.00    +0.000 A 
ATOM      2  C   UNL     1       2.005   5.084  17.697  0.00  0.00    +0.000 A 
ATOM      3  C   UNL     1       2.047   6.429  18.058  0.00  0.00    +0.000 A 
ATOM      4  C   UNL     1       3.261   7.113  18.045  0.00  0.00    +0.000 A 
ATOM      5  C   UNL     1       4.428   6.458  17.651  0.00  0.00    +0.000 A 
ATOM      6  C   UNL     1       4.393   5.123  17.221  0.00  0.00    +0.000 A 
ATOM      7  C   UNL     1       5.661   4.447  16.757  0.00  0.00    +0.000 C 
ATOM      8  C   UNL     1       6.778   5.460  16.551  0.00  0.00    +0.000 C 
ATOM      9  C   UNL     1       6.812   6.477  17.690  0.00  0.00    +0.000 C 
ATOM     10  C   UNL     1       7.095   5.846  19.064  0.00  0.00    +0.000 C 
ATOM     11  C   UNL     1       7.911   7.508  17.398  0.00  0.00    +0.000 C 
ATOM     12  O   UNL     1       5.573   7.207  17.734  0.00  0.00    +0.000 OA
ENDROOT
BRANCH   7  13
ATOM     13  O   UNL     1       5.499   3.769  15.508  0.00  0.00    +0.000 OA
ATOM     14  H   UNL     1       4.572   3.481  15.459  0.00  0.00    +0.000 HD
ENDBRANCH   7  13
BRANCH   1  15
ATOM     15  O   UNL     1       3.204   3.090  16.986  0.00  0.00    +0.000 OA
BRANCH  15  16
ATOM     16  C   UNL     1       2.437   2.241  17.845  0.00  0.00    +0.000 C 
BRANCH  16  21
ATOM     17  N   UNL     1       2.701   2.473  20.368  0.00  0.00    +0.000 N 
ATOM     18  N   UNL     1       3.654   2.315  21.311  0.00  0.00    +0.000 NA
ATOM     19  C   UNL     1       4.653   1.790  20.603  0.00  0.00    +0.000 A 
ATOM     20  N   UNL     1       4.407   1.653  19.270  0.00  0.00    +0.000 NA
ATOM     21  C   UNL     1       3.174   2.100  19.134  0.00  0.00    +0.000 A 
BRANCH  17  23
ATOM     22  C   UNL     1       1.525   4.534  21.070  0.00  0.00    +0.000 C 
ATOM     23  C   UNL     1       1.428   3.052  20.739  0.00  0.00    +0.000 C 
ENDBRANCH  17  23
ENDBRANCH  16  21
ENDBRANCH  15  16
ENDBRANCH   1  15
TORSDOF 5
ENDMDL
MODEL 8
REMARK VINA RESULT:      -6.8      3.335      4.802
REMARK  Name = 
REMARK  8 active torsions:
REMARK  status: ('A' for Active; 'I' for Inactive)
REMARK    1  A    between atoms: C_1  and  C_2
REMARK    2  A    between atoms: C_2  and  N_3
REMARK    3  A    between atoms: C_7  and  C_8
REMARK    4  A    between atoms: C_8  and  O_9
REMARK    5  A    between atoms: O_9  and  C_10
REMARK    6  A    between atoms: C_16  and  O_17
REMARK    7  A    between atoms: C_19  and  C_20
REMARK    8  A    between atoms: C_19  and  C_21
REMARK                            x       y       z     vdW  Elec       q    Type
REMARK                         _______ _______ _______ _____ _____    ______ ____
ROOT
ATOM      1  C   UNL     1       5.550   4.761  16.806  0.00  0.00    +0.000 A 
ATOM      2  C   UNL     1       6.886   4.924  17.190  0.00  0.00    +0.000 A 
ATOM      3  C   UNL     1       7.200   5.254  18.507  0.00  0.00    +0.000 A 
ATOM      4  C   UNL     1       6.181   5.430  19.439  0.00  0.00    +0.000 A 
ATOM      5  C   UNL     1       4.849   5.255  19.061  0.00  0.00    +0.000 A 
ATOM      6  C   UNL     1       4.518   4.858  17.758  0.00  0.00    +0.000 A 
ATOM      7  C   UNL     1       3.074   4.631  17.381  0.00  0.00    +0.000 C 
ATOM      8  C   UNL     1       2.186   4.593  18.616  0.00  0.00    +0.000 C 
ATOM      9  C   UNL     1       2.569   5.696  19.601  0.00  0.00    +0.000 C 
ATOM     10  C   UNL     1       2.393   7.113  19.029  0.00  0.00    +0.000 C 
ATOM     11  C   UNL     1       1.687   5.569  20.852  0.00  0.00    +0.000 C 
ATOM     12  O   UNL     1       3.926   5.512  20.042  0.00  0.00    +0.000 OA
ENDROOT
BRANCH   7  13
ATOM     13  O   UNL     1       2.869   3.390  16.700  0.00  0.00    +0.000 OA
ATOM     14  H   UNL     1       3.723   3.136  16.311  0.00  0.00    +0.000 HD
ENDBRANCH   7  13
BRANCH   1  15
ATOM     15  O   UNL     1       5.179   4.475  15.517  0.00  0.00    +0.000 OA
BRANCH  15  16
ATOM     16  C   UNL     1       5.983   3.490  14.860  0.00  0.00    +0.000 C 
BRANCH  16  21
ATOM     17  N   UNL     1       6.549   3.684  12.384  0.00  0.00    +0.000 N 
ATOM     18  N   UNL     1       7.334   4.427  11.574  0.00  0.00    +0.000 NA
ATOM     19  C   UNL     1       7.811   5.339  12.419  0.00  0.00    +0.000 A 
ATOM     20  N   UNL     1       7.416   5.191  13.714  0.00  0.00    +0.000 NA
ATOM     21  C   UNL     1       6.628   4.133  13.680  0.00  0.00    +0.000 A 
BRANCH  17  23
ATOM     22  C   UNL     1       6.763   1.580  11.100  0.00  0.00    +0.000 C 
ATOM     23  C   UNL     1       5.846   2.544  11.837  0.00  0.00    +0.000 C 
ENDBRANCH  17  23
ENDBRANCH  16  21
ENDBRANCH  15  16
ENDBRANCH   1  15
TORSDOF 5
ENDMDL
MODEL 9
REMARK VINA RESULT:      -6.7      2.686      3.403
REMARK  Name = 
REMARK  8 active torsions:
REMARK  status: ('A' for Active; 'I' for Inactive)
REMARK    1  A    between atoms: C_1  and  C_2
REMARK    2  A    between atoms: C_2  and  N_3
REMARK    3  A    between atoms: C_7  and  C_8
REMARK    4  A    between atoms: C_8  and  O_9
REMARK    5  A    between atoms: O_9  and  C_10
REMARK    6  A    between atoms: C_16  and  O_17
REMARK    7  A    between atoms: C_19  and  C_20
REMARK    8  A    between atoms: C_19  and  C_21
REMARK                            x       y       z     vdW  Elec       q    Type
REMARK                         _______ _______ _______ _____ _____    ______ ____
ROOT
ATOM      1  C   UNL     1       4.641   5.506  17.273  0.00  0.00    +0.000 A 
ATOM      2  C   UNL     1       4.401   6.856  16.990  0.00  0.00    +0.000 A 
ATOM      3  C   UNL     1       3.383   7.539  17.652  0.00  0.00    +0.000 A 
ATOM      4  C   UNL     1       2.598   6.874  18.591  0.00  0.00    +0.000 A 
ATOM      5  C   UNL     1       2.844   5.532  18.884  0.00  0.00    +0.000 A 
ATOM      6  C   UNL     1       3.906   4.847  18.276  0.00  0.00    +0.000 A 
ATOM      7  C   UNL     1       4.183   3.408  18.640  0.00  0.00    +0.000 C 
ATOM      8  C   UNL     1       3.401   2.998  19.880  0.00  0.00    +0.000 C 
ATOM      9  C   UNL     1       1.968   3.523  19.823  0.00  0.00    +0.000 C 
ATOM     10  C   UNL     1       1.159   2.966  18.640  0.00  0.00    +0.000 C 
ATOM     11  C   UNL     1       1.248   3.136  21.123  0.00  0.00    +0.000 C 
ATOM     12  O   UNL     1       1.974   4.962  19.776  0.00  0.00    +0.000 OA
ENDROOT
BRANCH   7  13
ATOM     13  O   UNL     1       5.561   3.169  18.938  0.00  0.00    +0.000 OA
ATOM     14  H   UNL     1       5.603   2.856  19.857  0.00  0.00    +0.000 HD
ENDBRANCH   7  13
BRANCH   1  15
ATOM     15  O   UNL     1       5.602   4.772  16.626  0.00  0.00    +0.000 OA
BRANCH  15  16
ATOM     16  C   UNL     1       6.317   5.477  15.607  0.00  0.00    +0.000 C 
BRANCH  16  21
ATOM     17  N   UNL     1       7.120   4.772  13.294  0.00  0.00    +0.000 N 
ATOM     18  N   UNL     1       6.722   3.980  12.276  0.00  0.00    +0.000 NA
ATOM     19  C   UNL     1       5.652   3.382  12.798  0.00  0.00    +0.000 A 
ATOM     20  N   UNL     1       5.325   3.781  14.058  0.00  0.00    +0.000 NA
ATOM     21  C   UNL     1       6.254   4.669  14.355  0.00  0.00    +0.000 A 
BRANCH  17  23
ATOM     22  C   UNL     1       8.304   6.306  11.756  0.00  0.00    +0.000 C 
ATOM     23  C   UNL     1       8.273   5.627  13.117  0.00  0.00    +0.000 C 
ENDBRANCH  17  23
ENDBRANCH  16  21
ENDBRANCH  15  16
ENDBRANCH   1  15
TORSDOF 5
ENDMDL
