MODEL 1
REMARK VINA RESULT:      -9.7      0.000      0.000
REMARK  Name = 
REMARK  3 active torsions:
REMARK  status: ('A' for Active; 'I' for Inactive)
REMARK    1  A    between atoms: C_4  and  C_5
REMARK    2  A    between atoms: C_8  and  C_9
REMARK    3  A    between atoms: C_20  and  C_21
REMARK                            x       y       z     vdW  Elec       q    Type
REMARK                         _______ _______ _______ _____ _____    ______ ____
ROOT
ATOM      1  C   UNL     1       5.145   6.151  17.436  0.00  0.00    +0.000 C 
ATOM      2  C   UNL     1       3.939   7.051  17.044  0.00  0.00    +0.000 C 
ATOM      3  C   UNL     1       3.130   7.341  18.253  0.00  0.00    +0.000 A 
ATOM      4  C   UNL     1       3.162   6.480  19.330  0.00  0.00    +0.000 A 
ATOM      5  N   UNL     1       2.403   7.042  20.320  0.00  0.00    +0.000 N 
ATOM      6  C   UNL     1       1.730   8.140  19.838  0.00  0.00    +0.000 A 
ATOM      7  C   UNL     1       0.746   8.925  20.449  0.00  0.00    +0.000 A 
ATOM      8  C   UNL     1       0.265  10.022  19.734  0.00  0.00    +0.000 A 
ATOM      9  C   UNL     1       0.762  10.327  18.467  0.00  0.00    +0.000 A 
ATOM     10  C   UNL     1       1.735   9.517  17.864  0.00  0.00    +0.000 A 
ATOM     11  C   UNL     1       2.219   8.389  18.554  0.00  0.00    +0.000 A 
ATOM     12  C   UNL     1       3.927   5.200  19.442  0.00  0.00    +0.000 C 
ATOM     13  N   UNL     1       4.798   4.970  18.268  0.00  0.00    +0.000 NA
ATOM     14  H   UNL     1       2.285   6.681  21.255  0.00  0.00    +0.000 HD
ATOM     15  H   UNL     1       4.358   4.312  17.625  0.00  0.00    +0.000 HD
ENDROOT
BRANCH   1  19
ATOM     16  C   UNL     1       6.202   4.576  14.342  0.00  0.00    +0.000 A 
ATOM     17  C   UNL     1       7.419   5.046  14.784  0.00  0.00    +0.000 A 
ATOM     18  N   UNL     1       7.151   5.718  15.943  0.00  0.00    +0.000 N 
ATOM     19  C   UNL     1       5.801   5.626  16.181  0.00  0.00    +0.000 A 
ATOM     20  N   UNL     1       5.202   4.960  15.212  0.00  0.00    +0.000 NA
ATOM     21  H   UNL     1       7.830   6.164  16.544  0.00  0.00    +0.000 HD
BRANCH  16  25
ATOM     22  C   UNL     1       5.605   2.223  10.921  0.00  0.00    +0.000 A 
ATOM     23  C   UNL     1       4.511   2.863  11.489  0.00  0.00    +0.000 A 
ATOM     24  C   UNL     1       4.698   3.643  12.628  0.00  0.00    +0.000 A 
ATOM     25  C   UNL     1       5.981   3.769  13.151  0.00  0.00    +0.000 A 
ATOM     26  N   UNL     1       7.064   3.157  12.603  0.00  0.00    +0.000 NA
ATOM     27  C   UNL     1       6.847   2.395  11.509  0.00  0.00    +0.000 A 
ENDBRANCH  16  25
ENDBRANCH   1  19
BRANCH  12  28
ATOM     28  C   UNL     1       3.009   3.945  19.641  0.00  0.00    +0.000 C 
ATOM     29  C   UNL     1       1.914   3.794  18.562  0.00  0.00    +0.000 C 
ATOM     30  C   UNL     1       1.026   2.588  18.843  0.00  0.00    +0.000 C 
ATOM     31  O   UNL     1       0.463   2.653  20.151  0.00  0.00    +0.000 OA
ATOM     32  C   UNL     1       1.466   2.640  21.164  0.00  0.00    +0.000 C 
ATOM     33  C   UNL     1       2.355   3.870  21.034  0.00  0.00    +0.000 C 
ENDBRANCH  12  28
TORSDOF 3
ENDMDL
MODEL 2
REMARK VINA RESULT:      -9.6      1.231      1.801
REMARK  Name = 
REMARK  3 active torsions:
REMARK  status: ('A' for Active; 'I' for Inactive)
REMARK    1  A    between atoms: C_4  and  C_5
REMARK    2  A    between atoms: C_8  and  C_9
REMARK    3  A    between atoms: C_20  and  C_21
REMARK                            x       y       z     vdW  Elec       q    Type
REMARK                         _______ _______ _______ _____ _____    ______ ____
ROOT
ATOM      1  C   UNL     1       4.682   6.537  18.647  0.00  0.00    +0.000 C 
ATOM      2  C   UNL     1       3.667   7.418  17.864  0.00  0.00    +0.000 C 
ATOM      3  C   UNL     1       2.591   7.862  18.784  0.00  0.00    +0.000 A 
ATOM      4  C   UNL     1       2.299   7.126  19.913  0.00  0.00    +0.000 A 
ATOM      5  N   UNL     1       1.342   7.813  20.608  0.00  0.00    +0.000 N 
ATOM      6  C   UNL     1       0.875   8.867  19.858  0.00  0.00    +0.000 A 
ATOM      7  C   UNL     1      -0.189   9.740  20.107  0.00  0.00    +0.000 A 
ATOM      8  C   UNL     1      -0.411  10.763  19.184  0.00  0.00    +0.000 A 
ATOM      9  C   UNL     1       0.411  10.912  18.068  0.00  0.00    +0.000 A 
ATOM     10  C   UNL     1       1.462  10.016  17.826  0.00  0.00    +0.000 A 
ATOM     11  C   UNL     1       1.691   8.959  18.728  0.00  0.00    +0.000 A 
ATOM     12  C   UNL     1       2.940   5.847  20.350  0.00  0.00    +0.000 C 
ATOM     13  N   UNL     1       4.070   5.466  19.474  0.00  0.00    +0.000 NA
ATOM     14  H   UNL     1       0.968   7.562  21.511  0.00  0.00    +0.000 HD
ATOM     15  H   UNL     1       3.776   4.752  18.808  0.00  0.00    +0.000 HD
ENDROOT
BRANCH   1  19
ATOM     16  C   UNL     1       6.489   5.052  15.871  0.00  0.00    +0.000 A 
ATOM     17  C   UNL     1       7.190   4.497  16.921  0.00  0.00    +0.000 A 
ATOM     18  N   UNL     1       6.631   5.025  18.050  0.00  0.00    +0.000 N 
ATOM     19  C   UNL     1       5.611   5.860  17.667  0.00  0.00    +0.000 A 
ATOM     20  N   UNL     1       5.522   5.912  16.351  0.00  0.00    +0.000 NA
ATOM     21  H   UNL     1       6.890   4.804  19.002  0.00  0.00    +0.000 HD
BRANCH  16  25
ATOM     22  C   UNL     1       7.149   4.250  11.807  0.00  0.00    +0.000 A 
ATOM     23  C   UNL     1       6.168   3.531  12.479  0.00  0.00    +0.000 A 
ATOM     24  C   UNL     1       5.945   3.787  13.829  0.00  0.00    +0.000 A 
ATOM     25  C   UNL     1       6.702   4.769  14.460  0.00  0.00    +0.000 A 
ATOM     26  N   UNL     1       7.659   5.488  13.817  0.00  0.00    +0.000 NA
ATOM     27  C   UNL     1       7.862   5.205  12.512  0.00  0.00    +0.000 A 
ENDBRANCH  16  25
ENDBRANCH   1  19
BRANCH  12  28
ATOM     28  C   UNL     1       1.935   4.646  20.427  0.00  0.00    +0.000 C 
ATOM     29  C   UNL     1       2.303   3.589  21.490  0.00  0.00    +0.000 C 
ATOM     30  C   UNL     1       1.318   2.426  21.476  0.00  0.00    +0.000 C 
ATOM     31  O   UNL     1       1.221   1.846  20.178  0.00  0.00    +0.000 OA
ATOM     32  C   UNL     1       0.735   2.778  19.213  0.00  0.00    +0.000 C 
ATOM     33  C   UNL     1       1.708   3.941  19.075  0.00  0.00    +0.000 C 
ENDBRANCH  12  28
TORSDOF 3
ENDMDL
MODEL 3
REMARK VINA RESULT:      -9.1      4.554      7.930
REMARK  Name = 
REMARK  3 active torsions:
REMARK  status: ('A' for Active; 'I' for Inactive)
REMARK    1  A    between atoms: C_4  and  C_5
REMARK    2  A    between atoms: C_8  and  C_9
REMARK    3  A    between atoms: C_20  and  C_21
REMARK                            x       y       z     vdW  Elec       q    Type
REMARK                         _______ _______ _______ _____ _____    ______ ____
ROOT
ATOM      1  C   UNL     1       7.085   6.532  17.747  0.00  0.00    +0.000 C 
ATOM      2  C   UNL     1       5.557   6.574  18.036  0.00  0.00    +0.000 C 
ATOM      3  C   UNL     1       4.960   5.258  17.703  0.00  0.00    +0.000 A 
ATOM      4  C   UNL     1       5.573   4.432  16.784  0.00  0.00    +0.000 A 
ATOM      5  N   UNL     1       4.859   3.266  16.748  0.00  0.00    +0.000 N 
ATOM      6  C   UNL     1       3.697   3.397  17.472  0.00  0.00    +0.000 A 
ATOM      7  C   UNL     1       2.613   2.521  17.590  0.00  0.00    +0.000 A 
ATOM      8  C   UNL     1       1.574   2.895  18.444  0.00  0.00    +0.000 A 
ATOM      9  C   UNL     1       1.630   4.091  19.159  0.00  0.00    +0.000 A 
ATOM     10  C   UNL     1       2.716   4.966  19.012  0.00  0.00    +0.000 A 
ATOM     11  C   UNL     1       3.766   4.623  18.138  0.00  0.00    +0.000 A 
ATOM     12  C   UNL     1       6.821   4.711  16.008  0.00  0.00    +0.000 C 
ATOM     13  N   UNL     1       7.454   5.985  16.417  0.00  0.00    +0.000 NA
ATOM     14  H   UNL     1       5.095   2.440  16.217  0.00  0.00    +0.000 HD
ATOM     15  H   UNL     1       7.223   6.723  15.752  0.00  0.00    +0.000 HD
ENDROOT
BRANCH   1  19
ATOM     16  C   UNL     1       8.694   9.715  18.424  0.00  0.00    +0.000 A 
ATOM     17  C   UNL     1       7.783  10.119  17.472  0.00  0.00    +0.000 A 
ATOM     18  N   UNL     1       7.130   8.983  17.087  0.00  0.00    +0.000 N 
ATOM     19  C   UNL     1       7.641   7.936  17.814  0.00  0.00    +0.000 A 
ATOM     20  N   UNL     1       8.606   8.351  18.613  0.00  0.00    +0.000 NA
ATOM     21  H   UNL     1       6.374   8.927  16.419  0.00  0.00    +0.000 HD
BRANCH  16  25
ATOM     22  C   UNL     1      11.305  12.199  20.571  0.00  0.00    +0.000 A 
ATOM     23  C   UNL     1      11.640  11.843  19.270  0.00  0.00    +0.000 A 
ATOM     24  C   UNL     1      10.782  11.015  18.551  0.00  0.00    +0.000 A 
ATOM     25  C   UNL     1       9.604  10.583  19.154  0.00  0.00    +0.000 A 
ATOM     26  N   UNL     1       9.257  10.929  20.422  0.00  0.00    +0.000 NA
ATOM     27  C   UNL     1      10.117  11.719  21.098  0.00  0.00    +0.000 A 
ENDBRANCH  16  25
ENDBRANCH   1  19
BRANCH  12  28
ATOM     28  C   UNL     1       6.593   4.737  14.457  0.00  0.00    +0.000 C 
ATOM     29  C   UNL     1       6.113   3.391  13.873  0.00  0.00    +0.000 C 
ATOM     30  C   UNL     1       5.962   3.470  12.358  0.00  0.00    +0.000 C 
ATOM     31  O   UNL     1       7.170   3.905  11.740  0.00  0.00    +0.000 OA
ATOM     32  C   UNL     1       7.542   5.215  12.161  0.00  0.00    +0.000 C 
ATOM     33  C   UNL     1       7.818   5.223  13.659  0.00  0.00    +0.000 C 
ENDBRANCH  12  28
TORSDOF 3
ENDMDL
MODEL 4
REMARK VINA RESULT:      -8.9      1.028      1.593
REMARK  Name = 
REMARK  3 active torsions:
REMARK  status: ('A' for Active; 'I' for Inactive)
REMARK    1  A    between atoms: C_4  and  C_5
REMARK    2  A    between atoms: C_8  and  C_9
REMARK    3  A    between atoms: C_20  and  C_21
REMARK                            x       y       z     vdW  Elec       q    Type
REMARK                         _______ _______ _______ _____ _____    ______ ____
ROOT
ATOM      1  C   UNL     1       4.699   6.443  18.296  0.00  0.00    +0.000 C 
ATOM      2  C   UNL     1       3.638   7.376  17.644  0.00  0.00    +0.000 C 
ATOM      3  C   UNL     1       2.658   7.800  18.674  0.00  0.00    +0.000 A 
ATOM      4  C   UNL     1       2.451   7.022  19.793  0.00  0.00    +0.000 A 
ATOM      5  N   UNL     1       1.576   7.697  20.599  0.00  0.00    +0.000 N 
ATOM      6  C   UNL     1       1.068   8.791  19.938  0.00  0.00    +0.000 A 
ATOM      7  C   UNL     1       0.050   9.672  20.318  0.00  0.00    +0.000 A 
ATOM      8  C   UNL     1      -0.230  10.738  19.461  0.00  0.00    +0.000 A 
ATOM      9  C   UNL     1       0.494  10.919  18.283  0.00  0.00    +0.000 A 
ATOM     10  C   UNL     1       1.498  10.014  17.910  0.00  0.00    +0.000 A 
ATOM     11  C   UNL     1       1.783   8.916  18.744  0.00  0.00    +0.000 A 
ATOM     12  C   UNL     1       3.100   5.713  20.119  0.00  0.00    +0.000 C 
ATOM     13  N   UNL     1       4.139   5.349  19.129  0.00  0.00    +0.000 NA
ATOM     14  H   UNL     1       1.278   7.414  21.521  0.00  0.00    +0.000 HD
ATOM     15  H   UNL     1       3.770   4.670  18.464  0.00  0.00    +0.000 HD
ENDROOT
BRANCH   1  19
ATOM     16  C   UNL     1       6.143   4.836  15.379  0.00  0.00    +0.000 A 
ATOM     17  C   UNL     1       7.184   4.671  16.268  0.00  0.00    +0.000 A 
ATOM     18  N   UNL     1       6.781   5.288  17.418  0.00  0.00    +0.000 N 
ATOM     19  C   UNL     1       5.521   5.791  17.209  0.00  0.00    +0.000 A 
ATOM     20  N   UNL     1       5.123   5.551  15.974  0.00  0.00    +0.000 NA
ATOM     21  H   UNL     1       7.299   5.329  18.285  0.00  0.00    +0.000 HD
BRANCH  16  25
ATOM     22  C   UNL     1       5.952   3.357  11.459  0.00  0.00    +0.000 A 
ATOM     23  C   UNL     1       7.142   3.920  11.903  0.00  0.00    +0.000 A 
ATOM     24  C   UNL     1       7.213   4.419  13.201  0.00  0.00    +0.000 A 
ATOM     25  C   UNL     1       6.093   4.320  14.020  0.00  0.00    +0.000 A 
ATOM     26  N   UNL     1       4.924   3.764  13.606  0.00  0.00    +0.000 NA
ATOM     27  C   UNL     1       4.882   3.304  12.337  0.00  0.00    +0.000 A 
ENDBRANCH  16  25
ENDBRANCH   1  19
BRANCH  12  28
ATOM     28  C   UNL     1       2.079   4.530  20.236  0.00  0.00    +0.000 C 
ATOM     29  C   UNL     1       2.426   3.510  21.342  0.00  0.00    +0.000 C 
ATOM     30  C   UNL     1       1.426   2.361  21.367  0.00  0.00    +0.000 C 
ATOM     31  O   UNL     1       1.329   1.732  20.092  0.00  0.00    +0.000 OA
ATOM     32  C   UNL     1       0.861   2.631  19.089  0.00  0.00    +0.000 C 
ATOM     33  C   UNL     1       1.850   3.776  18.912  0.00  0.00    +0.000 C 
ENDBRANCH  12  28
TORSDOF 3
ENDMDL
MODEL 5
REMARK VINA RESULT:      -8.8      4.593      7.882
REMARK  Name = 
REMARK  3 active torsions:
REMARK  status: ('A' for Active; 'I' for Inactive)
REMARK    1  A    between atoms: C_4  and  C_5
REMARK    2  A    between atoms: C_8  and  C_9
REMARK    3  A    between atoms: C_20  and  C_21
REMARK                            x       y       z     vdW  Elec       q    Type
REMARK                         _______ _______ _______ _____ _____    ______ ____
ROOT
ATOM      1  C   UNL     1       0.938  10.451  19.280  0.00  0.00    +0.000 C 
ATOM      2  C   UNL     1       1.770  11.599  18.642  0.00  0.00    +0.000 C 
ATOM      3  C   UNL     1       1.000  12.865  18.720  0.00  0.00    +0.000 A 
ATOM      4  C   UNL     1      -0.376  12.833  18.806  0.00  0.00    +0.000 A 
ATOM      5  N   UNL     1      -0.802  14.125  18.957  0.00  0.00    +0.000 N 
ATOM      6  C   UNL     1       0.246  14.995  18.774  0.00  0.00    +0.000 A 
ATOM      7  C   UNL     1       0.246  16.392  18.695  0.00  0.00    +0.000 A 
ATOM      8  C   UNL     1       1.479  17.028  18.551  0.00  0.00    +0.000 A 
ATOM      9  C   UNL     1       2.663  16.293  18.505  0.00  0.00    +0.000 A 
ATOM     10  C   UNL     1       2.643  14.892  18.567  0.00  0.00    +0.000 A 
ATOM     11  C   UNL     1       1.409  14.225  18.686  0.00  0.00    +0.000 A 
ATOM     12  C   UNL     1      -1.255  11.623  18.803  0.00  0.00    +0.000 C 
ATOM     13  N   UNL     1      -0.470  10.368  18.816  0.00  0.00    +0.000 NA
ATOM     14  H   UNL     1      -1.754  14.422  19.110  0.00  0.00    +0.000 HD
ATOM     15  H   UNL     1      -0.418   9.974  17.877  0.00  0.00    +0.000 HD
ENDROOT
BRANCH   1  19
ATOM     16  C   UNL     1       2.363   7.119  19.072  0.00  0.00    +0.000 A 
ATOM     17  C   UNL     1       2.908   7.670  17.932  0.00  0.00    +0.000 A 
ATOM     18  N   UNL     1       2.401   8.937  17.863  0.00  0.00    +0.000 N 
ATOM     19  C   UNL     1       1.587   9.127  18.953  0.00  0.00    +0.000 A 
ATOM     20  N   UNL     1       1.530   8.031  19.686  0.00  0.00    +0.000 NA
ATOM     21  H   UNL     1       2.621   9.629  17.160  0.00  0.00    +0.000 HD
BRANCH  16  25
ATOM     22  C   UNL     1       3.187   3.277  20.539  0.00  0.00    +0.000 A 
ATOM     23  C   UNL     1       2.155   4.005  21.117  0.00  0.00    +0.000 A 
ATOM     24  C   UNL     1       1.877   5.283  20.641  0.00  0.00    +0.000 A 
ATOM     25  C   UNL     1       2.633   5.785  19.586  0.00  0.00    +0.000 A 
ATOM     26  N   UNL     1       3.641   5.083  19.003  0.00  0.00    +0.000 NA
ATOM     27  C   UNL     1       3.895   3.853  19.499  0.00  0.00    +0.000 A 
ENDBRANCH  16  25
ENDBRANCH   1  19
BRANCH  12  28
ATOM     28  C   UNL     1      -2.248  11.583  17.591  0.00  0.00    +0.000 C 
ATOM     29  C   UNL     1      -3.736  11.671  17.997  0.00  0.00    +0.000 C 
ATOM     30  C   UNL     1      -4.646  11.574  16.779  0.00  0.00    +0.000 C 
ATOM     31  O   UNL     1      -4.381  10.392  16.028  0.00  0.00    +0.000 OA
ATOM     32  C   UNL     1      -3.049  10.372  15.518  0.00  0.00    +0.000 C 
ATOM     33  C   UNL     1      -2.051  10.365  16.668  0.00  0.00    +0.000 C 
ENDBRANCH  12  28
TORSDOF 3
ENDMDL
MODEL 6
REMARK VINA RESULT:      -8.7      0.796      1.057
REMARK  Name = 
REMARK  3 active torsions:
REMARK  status: ('A' for Active; 'I' for Inactive)
REMARK    1  A    between atoms: C_4  and  C_5
REMARK    2  A    between atoms: C_8  and  C_9
REMARK    3  A    between atoms: C_20  and  C_21
REMARK                            x       y       z     vdW  Elec       q    Type
REMARK                         _______ _______ _______ _____ _____    ______ ____
ROOT
ATOM      1  C   UNL     1       5.112   6.420  17.961  0.00  0.00    +0.000 C 
ATOM      2  C   UNL     1       3.926   7.261  17.407  0.00  0.00    +0.000 C 
ATOM      3  C   UNL     1       2.972   7.546  18.507  0.00  0.00    +0.000 A 
ATOM      4  C   UNL     1       2.912   6.712  19.604  0.00  0.00    +0.000 A 
ATOM      5  N   UNL     1       2.023   7.265  20.485  0.00  0.00    +0.000 N 
ATOM      6  C   UNL     1       1.369   8.323  19.899  0.00  0.00    +0.000 A 
ATOM      7  C   UNL     1       0.292   9.081  20.370  0.00  0.00    +0.000 A 
ATOM      8  C   UNL     1      -0.145  10.141  19.574  0.00  0.00    +0.000 A 
ATOM      9  C   UNL     1       0.484  10.437  18.365  0.00  0.00    +0.000 A 
ATOM     10  C   UNL     1       1.551   9.654  17.900  0.00  0.00    +0.000 A 
ATOM     11  C   UNL     1       1.994   8.562  18.672  0.00  0.00    +0.000 A 
ATOM     12  C   UNL     1       3.707   5.467  19.839  0.00  0.00    +0.000 C 
ATOM     13  N   UNL     1       4.716   5.246  18.779  0.00  0.00    +0.000 NA
ATOM     14  H   UNL     1       1.810   6.922  21.410  0.00  0.00    +0.000 HD
ATOM     15  H   UNL     1       4.379   4.556  18.109  0.00  0.00    +0.000 HD
ENDROOT
BRANCH   1  19
ATOM     16  C   UNL     1       6.536   4.971  14.953  0.00  0.00    +0.000 A 
ATOM     17  C   UNL     1       7.685   5.120  15.699  0.00  0.00    +0.000 A 
ATOM     18  N   UNL     1       7.289   5.714  16.863  0.00  0.00    +0.000 N 
ATOM     19  C   UNL     1       5.929   5.894  16.804  0.00  0.00    +0.000 A 
ATOM     20  N   UNL     1       5.454   5.474  15.646  0.00  0.00    +0.000 NA
ATOM     21  H   UNL     1       7.882   5.940  17.649  0.00  0.00    +0.000 HD
BRANCH  16  25
ATOM     22  C   UNL     1       6.233   3.193  11.166  0.00  0.00    +0.000 A 
ATOM     23  C   UNL     1       7.331   3.999  11.439  0.00  0.00    +0.000 A 
ATOM     24  C   UNL     1       7.438   4.598  12.691  0.00  0.00    +0.000 A 
ATOM     25  C   UNL     1       6.447   4.355  13.638  0.00  0.00    +0.000 A 
ATOM     26  N   UNL     1       5.371   3.562  13.391  0.00  0.00    +0.000 NA
ATOM     27  C   UNL     1       5.288   3.009  12.162  0.00  0.00    +0.000 A 
ENDBRANCH  16  25
ENDBRANCH   1  19
BRANCH  12  28
ATOM     28  C   UNL     1       2.820   4.181  19.966  0.00  0.00    +0.000 C 
ATOM     29  C   UNL     1       1.761   4.039  18.850  0.00  0.00    +0.000 C 
ATOM     30  C   UNL     1       0.901   2.799  19.062  0.00  0.00    +0.000 C 
ATOM     31  O   UNL     1       0.298   2.801  20.353  0.00  0.00    +0.000 OA
ATOM     32  C   UNL     1       1.272   2.779  21.395  0.00  0.00    +0.000 C 
ATOM     33  C   UNL     1       2.129   4.037  21.335  0.00  0.00    +0.000 C 
ENDBRANCH  12  28
TORSDOF 3
ENDMDL
MODEL 7
REMARK VINA RESULT:      -8.6      4.090      7.540
REMARK  Name = 
REMARK  3 active torsions:
REMARK  status: ('A' for Active; 'I' for Inactive)
REMARK    1  A    between atoms: C_4  and  C_5
REMARK    2  A    between atoms: C_8  and  C_9
REMARK    3  A    between atoms: C_20  and  C_21
REMARK                            x       y       z     vdW  Elec       q    Type
REMARK                         _______ _______ _______ _____ _____    ______ ____
ROOT
ATOM      1  C   UNL     1       0.571  10.456  19.933  0.00  0.00    +0.000 C 
ATOM      2  C   UNL     1       1.503  11.553  19.341  0.00  0.00    +0.000 C 
ATOM      3  C   UNL     1       0.728  12.804  19.152  0.00  0.00    +0.000 A 
ATOM      4  C   UNL     1      -0.641  12.752  18.992  0.00  0.00    +0.000 A 
ATOM      5  N   UNL     1      -1.090  14.043  18.932  0.00  0.00    +0.000 N 
ATOM      6  C   UNL     1      -0.028  14.913  18.853  0.00  0.00    +0.000 A 
ATOM      7  C   UNL     1      -0.017  16.295  18.634  0.00  0.00    +0.000 A 
ATOM      8  C   UNL     1       1.221  16.939  18.651  0.00  0.00    +0.000 A 
ATOM      9  C   UNL     1       2.395  16.227  18.893  0.00  0.00    +0.000 A 
ATOM     10  C   UNL     1       2.367  14.839  19.091  0.00  0.00    +0.000 A 
ATOM     11  C   UNL     1       1.133  14.162  19.054  0.00  0.00    +0.000 A 
ATOM     12  C   UNL     1      -1.502  11.530  18.954  0.00  0.00    +0.000 C 
ATOM     13  N   UNL     1      -0.730  10.299  19.235  0.00  0.00    +0.000 NA
ATOM     14  H   UNL     1      -2.055  14.335  18.881  0.00  0.00    +0.000 HD
ATOM     15  H   UNL     1      -0.507   9.815  18.365  0.00  0.00    +0.000 HD
ENDROOT
BRANCH   1  19
ATOM     16  C   UNL     1       2.324   7.371  19.168  0.00  0.00    +0.000 A 
ATOM     17  C   UNL     1       1.826   7.047  20.412  0.00  0.00    +0.000 A 
ATOM     18  N   UNL     1       1.171   8.165  20.845  0.00  0.00    +0.000 N 
ATOM     19  C   UNL     1       1.272   9.120  19.863  0.00  0.00    +0.000 A 
ATOM     20  N   UNL     1       1.987   8.670  18.848  0.00  0.00    +0.000 NA
ATOM     21  H   UNL     1       0.663   8.259  21.713  0.00  0.00    +0.000 HD
BRANCH  16  25
ATOM     22  C   UNL     1       4.449   4.783  16.642  0.00  0.00    +0.000 A 
ATOM     23  C   UNL     1       4.772   6.134  16.638  0.00  0.00    +0.000 A 
ATOM     24  C   UNL     1       4.069   7.002  17.470  0.00  0.00    +0.000 A 
ATOM     25  C   UNL     1       3.074   6.484  18.293  0.00  0.00    +0.000 A 
ATOM     26  N   UNL     1       2.750   5.164  18.316  0.00  0.00    +0.000 NA
ATOM     27  C   UNL     1       3.439   4.351  17.486  0.00  0.00    +0.000 A 
ENDBRANCH  16  25
ENDBRANCH   1  19
BRANCH  12  28
ATOM     28  C   UNL     1      -2.260  11.350  17.593  0.00  0.00    +0.000 C 
ATOM     29  C   UNL     1      -3.790  11.523  17.701  0.00  0.00    +0.000 C 
ATOM     30  C   UNL     1      -4.469  11.284  16.358  0.00  0.00    +0.000 C 
ATOM     31  O   UNL     1      -4.126  10.006  15.825  0.00  0.00    +0.000 OA
ATOM     32  C   UNL     1      -2.726   9.891  15.579  0.00  0.00    +0.000 C 
ATOM     33  C   UNL     1      -1.954  10.015  16.886  0.00  0.00    +0.000 C 
ENDBRANCH  12  28
TORSDOF 3
ENDMDL
MODEL 8
REMARK VINA RESULT:      -8.5      3.891      7.184
REMARK  Name = 
REMARK  3 active torsions:
REMARK  status: ('A' for Active; 'I' for Inactive)
REMARK    1  A    between atoms: C_4  and  C_5
REMARK    2  A    between atoms: C_8  and  C_9
REMARK    3  A    between atoms: C_20  and  C_21
REMARK                            x       y       z     vdW  Elec       q    Type
REMARK                         _______ _______ _______ _____ _____    ______ ____
ROOT
ATOM      1  C   UNL     1       0.760   9.901  20.028  0.00  0.00    +0.000 C 
ATOM      2  C   UNL     1       1.514  11.014  19.244  0.00  0.00    +0.000 C 
ATOM      3  C   UNL     1       0.655  12.220  19.157  0.00  0.00    +0.000 A 
ATOM      4  C   UNL     1      -0.716  12.101  19.247  0.00  0.00    +0.000 A 
ATOM      5  N   UNL     1      -1.235  13.367  19.228  0.00  0.00    +0.000 N 
ATOM      6  C   UNL     1      -0.250  14.279  18.932  0.00  0.00    +0.000 A 
ATOM      7  C   UNL     1      -0.350  15.650  18.671  0.00  0.00    +0.000 A 
ATOM      8  C   UNL     1       0.837  16.349  18.444  0.00  0.00    +0.000 A 
ATOM      9  C   UNL     1       2.071  15.701  18.493  0.00  0.00    +0.000 A 
ATOM     10  C   UNL     1       2.149  14.323  18.738  0.00  0.00    +0.000 A 
ATOM     11  C   UNL     1       0.965  13.590  18.945  0.00  0.00    +0.000 A 
ATOM     12  C   UNL     1      -1.507  10.840  19.403  0.00  0.00    +0.000 C 
ATOM     13  N   UNL     1      -0.634   9.658  19.580  0.00  0.00    +0.000 NA
ATOM     14  H   UNL     1      -2.207  13.612  19.342  0.00  0.00    +0.000 HD
ATOM     15  H   UNL     1      -0.546   9.150  18.700  0.00  0.00    +0.000 HD
ENDROOT
BRANCH   1  19
ATOM     16  C   UNL     1       2.574   6.908  19.066  0.00  0.00    +0.000 A 
ATOM     17  C   UNL     1       2.173   6.534  20.330  0.00  0.00    +0.000 A 
ATOM     18  N   UNL     1       1.507   7.614  20.835  0.00  0.00    +0.000 N 
ATOM     19  C   UNL     1       1.506   8.596  19.876  0.00  0.00    +0.000 A 
ATOM     20  N   UNL     1       2.167   8.200  18.804  0.00  0.00    +0.000 NA
ATOM     21  H   UNL     1       1.055   7.667  21.738  0.00  0.00    +0.000 HD
BRANCH  16  25
ATOM     22  C   UNL     1       4.697   4.530  16.339  0.00  0.00    +0.000 A 
ATOM     23  C   UNL     1       3.711   3.936  17.117  0.00  0.00    +0.000 A 
ATOM     24  C   UNL     1       3.004   4.716  18.028  0.00  0.00    +0.000 A 
ATOM     25  C   UNL     1       3.297   6.073  18.119  0.00  0.00    +0.000 A 
ATOM     26  N   UNL     1       4.252   6.673  17.360  0.00  0.00    +0.000 NA
ATOM     27  C   UNL     1       4.931   5.886  16.497  0.00  0.00    +0.000 A 
ENDBRANCH  16  25
ENDBRANCH   1  19
BRANCH  12  28
ATOM     28  C   UNL     1      -2.484  10.571  18.208  0.00  0.00    +0.000 C 
ATOM     29  C   UNL     1      -1.771  10.291  16.867  0.00  0.00    +0.000 C 
ATOM     30  C   UNL     1      -2.776  10.090  15.739  0.00  0.00    +0.000 C 
ATOM     31  O   UNL     1      -3.664  11.200  15.634  0.00  0.00    +0.000 OA
ATOM     32  C   UNL     1      -4.440  11.375  16.818  0.00  0.00    +0.000 C 
ATOM     33  C   UNL     1      -3.528  11.684  17.998  0.00  0.00    +0.000 C 
ENDBRANCH  12  28
TORSDOF 3
ENDMDL
MODEL 9
REMARK VINA RESULT:      -8.4      4.600      7.798
REMARK  Name = 
REMARK  3 active torsions:
REMARK  status: ('A' for Active; 'I' for Inactive)
REMARK    1  A    between atoms: C_4  and  C_5
REMARK    2  A    between atoms: C_8  and  C_9
REMARK    3  A    between atoms: C_20  and  C_21
REMARK                            x       y       z     vdW  Elec       q    Type
REMARK                         _______ _______ _______ _____ _____    ______ ____
ROOT
ATOM      1  C   UNL     1       0.904  10.163  19.517  0.00  0.00    +0.000 C 
ATOM      2  C   UNL     1       1.504  11.347  18.706  0.00  0.00    +0.000 C 
ATOM      3  C   UNL     1       0.650  12.547  18.887  0.00  0.00    +0.000 A 
ATOM      4  C   UNL     1      -0.681  12.405  19.220  0.00  0.00    +0.000 A 
ATOM      5  N   UNL     1      -1.188  13.662  19.408  0.00  0.00    +0.000 N 
ATOM      6  C   UNL     1      -0.271  14.608  19.015  0.00  0.00    +0.000 A 
ATOM      7  C   UNL     1      -0.410  15.995  18.897  0.00  0.00    +0.000 A 
ATOM      8  C   UNL     1       0.716  16.724  18.515  0.00  0.00    +0.000 A 
ATOM      9  C   UNL     1       1.934  16.089  18.277  0.00  0.00    +0.000 A 
ATOM     10  C   UNL     1       2.050  14.695  18.382  0.00  0.00    +0.000 A 
ATOM     11  C   UNL     1       0.922  13.933  18.740  0.00  0.00    +0.000 A 
ATOM     12  C   UNL     1      -1.435  11.127  19.410  0.00  0.00    +0.000 C 
ATOM     13  N   UNL     1      -0.551   9.943  19.317  0.00  0.00    +0.000 NA
ATOM     14  H   UNL     1      -2.120  13.886  19.723  0.00  0.00    +0.000 HD
ATOM     15  H   UNL     1      -0.631   9.514  18.396  0.00  0.00    +0.000 HD
ENDROOT
BRANCH   1  19
ATOM     16  C   UNL     1       2.462   6.908  19.126  0.00  0.00    +0.000 A 
ATOM     17  C   UNL     1       2.960   7.534  18.003  0.00  0.00    +0.000 A 
ATOM     18  N   UNL     1       2.399   8.780  18.003  0.00  0.00    +0.000 N 
ATOM     19  C   UNL     1       1.601   8.884  19.115  0.00  0.00    +0.000 A 
ATOM     20  N   UNL     1       1.605   7.755  19.798  0.00  0.00    +0.000 NA
ATOM     21  H   UNL     1       2.575   9.513  17.329  0.00  0.00    +0.000 HD
BRANCH  16  25
ATOM     22  C   UNL     1       3.477   3.042  20.399  0.00  0.00    +0.000 A 
ATOM     23  C   UNL     1       2.369   3.662  20.964  0.00  0.00    +0.000 A 
ATOM     24  C   UNL     1       2.028   4.948  20.552  0.00  0.00    +0.000 A 
ATOM     25  C   UNL     1       2.798   5.565  19.571  0.00  0.00    +0.000 A 
ATOM     26  N   UNL     1       3.879   4.969  19.001  0.00  0.00    +0.000 NA
ATOM     27  C   UNL     1       4.194   3.730  19.434  0.00  0.00    +0.000 A 
ENDBRANCH  16  25
ENDBRANCH   1  19
BRANCH  12  28
ATOM     28  C   UNL     1      -2.620  10.951  18.399  0.00  0.00    +0.000 C 
ATOM     29  C   UNL     1      -2.238  11.241  16.931  0.00  0.00    +0.000 C 
ATOM     30  C   UNL     1      -3.444  11.103  16.010  0.00  0.00    +0.000 C 
ATOM     31  O   UNL     1      -4.521  11.931  16.440  0.00  0.00    +0.000 OA
ATOM     32  C   UNL     1      -4.983  11.571  17.741  0.00  0.00    +0.000 C 
ATOM     33  C   UNL     1      -3.872  11.771  18.763  0.00  0.00    +0.000 C 
ENDBRANCH  12  28
TORSDOF 3
ENDMDL
