MODEL 1
REMARK VINA RESULT:      -7.3      0.000      0.000
REMARK  Name = 
REMARK  5 active torsions:
REMARK  status: ('A' for Active; 'I' for Inactive)
REMARK    1  A    between atoms: C_2  and  C_3
REMARK    2  A    between atoms: C_6  and  C_7
REMARK    3  A    between atoms: C_7  and  N_8
REMARK    4  A    between atoms: C_13  and  C_14
REMARK    5  A    between atoms: C_14  and  N_15
REMARK                            x       y       z     vdW  Elec       q    Type
REMARK                         _______ _______ _______ _____ _____    ______ ____
ROOT
ATOM      1  N   UNL     1       2.584   4.939  18.854  0.00  0.00    +0.000 NA
ATOM      2  C   UNL     1       1.595   4.228  18.028  0.00  0.00    +0.000 C 
ATOM      3  C   UNL     1       1.093   2.929  18.660  0.00  0.00    +0.000 C 
ATOM      4  C   UNL     1       2.240   2.035  19.105  0.00  0.00    +0.000 C 
ATOM      5  C   UNL     1       3.183   2.825  20.003  0.00  0.00    +0.000 C 
ATOM      6  C   UNL     1       3.732   4.089  19.305  0.00  0.00    +0.000 C 
ENDROOT
BRANCH   1   7
ATOM      7  C   UNL     1       3.037   6.178  18.192  0.00  0.00    +0.000 C 
BRANCH   7  11
ATOM      8  C   UNL     1       0.899   9.689  19.560  0.00  0.00    +0.000 A 
ATOM      9  C   UNL     1       1.356   9.612  18.240  0.00  0.00    +0.000 A 
ATOM     10  C   UNL     1       2.096   8.505  17.814  0.00  0.00    +0.000 A 
ATOM     11  C   UNL     1       2.392   7.457  18.698  0.00  0.00    +0.000 A 
ATOM     12  C   UNL     1       1.964   7.562  20.032  0.00  0.00    +0.000 A 
ATOM     13  C   UNL     1       1.222   8.668  20.459  0.00  0.00    +0.000 A 
BRANCH   8  15
ATOM     14  N   UNL     1      -0.591  11.668  20.332  0.00  0.00    +0.000 NA
ATOM     15  C   UNL     1       0.077  10.790  19.980  0.00  0.00    +0.000 C 
ENDBRANCH   8  15
ENDBRANCH   7  11
ENDBRANCH   1   7
BRANCH   6  16
ATOM     16  C   UNL     1       4.778   3.746  18.206  0.00  0.00    +0.000 C 
BRANCH  16  17
ATOM     17  N   UNL     1       6.048   4.446  18.288  0.00  0.00    +0.000 N 
ATOM     18  C   UNL     1       6.833   4.835  17.242  0.00  0.00    +0.000 A 
ATOM     19  N   UNL     1       7.753   5.670  17.664  0.00  0.00    +0.000 NA
ATOM     20  C   UNL     1       7.479   5.777  18.998  0.00  0.00    +0.000 A 
ATOM     21  N   UNL     1       6.444   5.049  19.427  0.00  0.00    +0.000 NA
ENDBRANCH  16  17
ENDBRANCH   6  16
TORSDOF 5
ENDMDL
MODEL 2
REMARK VINA RESULT:      -7.2      1.214      1.599
REMARK  Name = 
REMARK  5 active torsions:
REMARK  status: ('A' for Active; 'I' for Inactive)
REMARK    1  A    between atoms: C_2  and  C_3
REMARK    2  A    between atoms: C_6  and  C_7
REMARK    3  A    between atoms: C_7  and  N_8
REMARK    4  A    between atoms: C_13  and  C_14
REMARK    5  A    between atoms: C_14  and  N_15
REMARK                            x       y       z     vdW  Elec       q    Type
REMARK                         _______ _______ _______ _____ _____    ______ ____
ROOT
ATOM      1  N   UNL     1       2.967   4.897  18.589  0.00  0.00    +0.000 NA
ATOM      2  C   UNL     1       1.601   4.423  18.312  0.00  0.00    +0.000 C 
ATOM      3  C   UNL     1       1.286   3.067  18.945  0.00  0.00    +0.000 C 
ATOM      4  C   UNL     1       2.348   2.028  18.618  0.00  0.00    +0.000 C 
ATOM      5  C   UNL     1       3.722   2.570  18.989  0.00  0.00    +0.000 C 
ATOM      6  C   UNL     1       4.039   3.900  18.271  0.00  0.00    +0.000 C 
ENDROOT
BRANCH   1   7
ATOM      7  C   UNL     1       3.216   6.203  17.949  0.00  0.00    +0.000 C 
BRANCH   7  11
ATOM      8  C   UNL     1       0.900   9.412  19.711  0.00  0.00    +0.000 A 
ATOM      9  C   UNL     1       1.243   9.453  18.356  0.00  0.00    +0.000 A 
ATOM     10  C   UNL     1       2.040   8.447  17.800  0.00  0.00    +0.000 A 
ATOM     11  C   UNL     1       2.506   7.384  18.587  0.00  0.00    +0.000 A 
ATOM     12  C   UNL     1       2.190   7.373  19.956  0.00  0.00    +0.000 A 
ATOM     13  C   UNL     1       1.393   8.378  20.514  0.00  0.00    +0.000 A 
BRANCH   8  15
ATOM     14  N   UNL     1      -0.682  11.198  20.732  0.00  0.00    +0.000 NA
ATOM     15  C   UNL     1       0.022  10.405  20.268  0.00  0.00    +0.000 C 
ENDBRANCH   8  15
ENDBRANCH   7  11
ENDBRANCH   1   7
BRANCH   6  16
ATOM     16  C   UNL     1       4.331   3.697  16.758  0.00  0.00    +0.000 C 
BRANCH  16  17
ATOM     17  N   UNL     1       5.557   4.292  16.254  0.00  0.00    +0.000 N 
ATOM     18  C   UNL     1       6.727   4.447  16.935  0.00  0.00    +0.000 A 
ATOM     19  N   UNL     1       7.689   4.764  16.100  0.00  0.00    +0.000 NA
ATOM     20  C   UNL     1       7.052   4.777  14.892  0.00  0.00    +0.000 A 
ATOM     21  N   UNL     1       5.746   4.492  14.934  0.00  0.00    +0.000 NA
ENDBRANCH  16  17
ENDBRANCH   6  16
TORSDOF 5
ENDMDL
MODEL 3
REMARK VINA RESULT:      -7.2      0.878      1.393
REMARK  Name = 
REMARK  5 active torsions:
REMARK  status: ('A' for Active; 'I' for Inactive)
REMARK    1  A    between atoms: C_2  and  C_3
REMARK    2  A    between atoms: C_6  and  C_7
REMARK    3  A    between atoms: C_7  and  N_8
REMARK    4  A    between atoms: C_13  and  C_14
REMARK    5  A    between atoms: C_14  and  N_15
REMARK                            x       y       z     vdW  Elec       q    Type
REMARK                         _______ _______ _______ _____ _____    ______ ____
ROOT
ATOM      1  N   UNL     1       2.537   4.853  18.776  0.00  0.00    +0.000 NA
ATOM      2  C   UNL     1       1.337   4.226  18.199  0.00  0.00    +0.000 C 
ATOM      3  C   UNL     1       1.049   2.832  18.760  0.00  0.00    +0.000 C 
ATOM      4  C   UNL     1       2.273   1.931  18.697  0.00  0.00    +0.000 C 
ATOM      5  C   UNL     1       3.451   2.625  19.366  0.00  0.00    +0.000 C 
ATOM      6  C   UNL     1       3.764   3.994  18.723  0.00  0.00    +0.000 C 
ENDROOT
BRANCH   1   7
ATOM      7  C   UNL     1       2.769   6.189  18.194  0.00  0.00    +0.000 C 
BRANCH   7  11
ATOM      8  C   UNL     1       1.103   9.588  20.299  0.00  0.00    +0.000 A 
ATOM      9  C   UNL     1       1.343   8.389  20.977  0.00  0.00    +0.000 A 
ATOM     10  C   UNL     1       1.827   7.273  20.286  0.00  0.00    +0.000 A 
ATOM     11  C   UNL     1       2.078   7.337  18.908  0.00  0.00    +0.000 A 
ATOM     12  C   UNL     1       1.795   8.533  18.228  0.00  0.00    +0.000 A 
ATOM     13  C   UNL     1       1.312   9.650  18.918  0.00  0.00    +0.000 A 
BRANCH   8  15
ATOM     14  N   UNL     1       0.336  11.690  21.614  0.00  0.00    +0.000 NA
ATOM     15  C   UNL     1       0.676  10.756  21.020  0.00  0.00    +0.000 C 
ENDBRANCH   8  15
ENDBRANCH   7  11
ENDBRANCH   1   7
BRANCH   6  16
ATOM     16  C   UNL     1       4.416   3.850  17.319  0.00  0.00    +0.000 C 
BRANCH  16  17
ATOM     17  N   UNL     1       5.853   4.057  17.253  0.00  0.00    +0.000 N 
ATOM     18  C   UNL     1       6.601   4.223  16.125  0.00  0.00    +0.000 A 
ATOM     19  N   UNL     1       7.799   4.653  16.446  0.00  0.00    +0.000 NA
ATOM     20  C   UNL     1       7.732   4.753  17.806  0.00  0.00    +0.000 A 
ATOM     21  N   UNL     1       6.561   4.402  18.347  0.00  0.00    +0.000 NA
ENDBRANCH  16  17
ENDBRANCH   6  16
TORSDOF 5
ENDMDL
MODEL 4
REMARK VINA RESULT:      -7.1      1.052      1.520
REMARK  Name = 
REMARK  5 active torsions:
REMARK  status: ('A' for Active; 'I' for Inactive)
REMARK    1  A    between atoms: C_2  and  C_3
REMARK    2  A    between atoms: C_6  and  C_7
REMARK    3  A    between atoms: C_7  and  N_8
REMARK    4  A    between atoms: C_13  and  C_14
REMARK    5  A    between atoms: C_14  and  N_15
REMARK                            x       y       z     vdW  Elec       q    Type
REMARK                         _______ _______ _______ _____ _____    ______ ____
ROOT
ATOM      1  N   UNL     1       2.973   4.460  19.629  0.00  0.00    +0.000 NA
ATOM      2  C   UNL     1       1.591   4.519  19.126  0.00  0.00    +0.000 C 
ATOM      3  C   UNL     1       0.902   3.154  19.074  0.00  0.00    +0.000 C 
ATOM      4  C   UNL     1       1.749   2.119  18.348  0.00  0.00    +0.000 C 
ATOM      5  C   UNL     1       3.141   2.077  18.965  0.00  0.00    +0.000 C 
ATOM      6  C   UNL     1       3.837   3.455  18.930  0.00  0.00    +0.000 C 
ENDROOT
BRANCH   1   7
ATOM      7  C   UNL     1       3.587   5.801  19.651  0.00  0.00    +0.000 C 
BRANCH   7  11
ATOM      8  C   UNL     1       1.127   9.301  18.973  0.00  0.00    +0.000 A 
ATOM      9  C   UNL     1       1.158   8.696  20.233  0.00  0.00    +0.000 A 
ATOM     10  C   UNL     1       1.907   7.532  20.438  0.00  0.00    +0.000 A 
ATOM     11  C   UNL     1       2.636   6.955  19.388  0.00  0.00    +0.000 A 
ATOM     12  C   UNL     1       2.566   7.547  18.116  0.00  0.00    +0.000 A 
ATOM     13  C   UNL     1       1.819   8.711  17.910  0.00  0.00    +0.000 A 
BRANCH   8  15
ATOM     14  N   UNL     1      -0.159  11.530  18.636  0.00  0.00    +0.000 NA
ATOM     15  C   UNL     1       0.419  10.537  18.778  0.00  0.00    +0.000 C 
ENDBRANCH   8  15
ENDBRANCH   7  11
ENDBRANCH   1   7
BRANCH   6  16
ATOM     16  C   UNL     1       4.290   3.849  17.496  0.00  0.00    +0.000 C 
BRANCH  16  17
ATOM     17  N   UNL     1       5.715   4.065  17.308  0.00  0.00    +0.000 N 
ATOM     18  C   UNL     1       6.354   4.303  16.127  0.00  0.00    +0.000 A 
ATOM     19  N   UNL     1       7.577   4.718  16.360  0.00  0.00    +0.000 NA
ATOM     20  C   UNL     1       7.639   4.734  17.724  0.00  0.00    +0.000 A 
ATOM     21  N   UNL     1       6.524   4.345  18.349  0.00  0.00    +0.000 NA
ENDBRANCH  16  17
ENDBRANCH   6  16
TORSDOF 5
ENDMDL
MODEL 5
REMARK VINA RESULT:      -7.1      2.165      6.084
REMARK  Name = 
REMARK  5 active torsions:
REMARK  status: ('A' for Active; 'I' for Inactive)
REMARK    1  A    between atoms: C_2  and  C_3
REMARK    2  A    between atoms: C_6  and  C_7
REMARK    3  A    between atoms: C_7  and  N_8
REMARK    4  A    between atoms: C_13  and  C_14
REMARK    5  A    between atoms: C_14  and  N_15
REMARK                            x       y       z     vdW  Elec       q    Type
REMARK                         _______ _______ _______ _____ _____    ______ ____
ROOT
ATOM      1  N   UNL     1       3.596   3.553  19.059  0.00  0.00    +0.000 NA
ATOM      2  C   UNL     1       3.298   2.804  20.289  0.00  0.00    +0.000 C 
ATOM      3  C   UNL     1       1.844   2.338  20.382  0.00  0.00    +0.000 C 
ATOM      4  C   UNL     1       0.867   3.477  20.134  0.00  0.00    +0.000 C 
ATOM      5  C   UNL     1       1.205   4.161  18.816  0.00  0.00    +0.000 C 
ATOM      6  C   UNL     1       2.656   4.688  18.788  0.00  0.00    +0.000 C 
ENDROOT
BRANCH   1   7
ATOM      7  C   UNL     1       5.008   3.983  19.028  0.00  0.00    +0.000 C 
BRANCH   7  11
ATOM      8  C   UNL     1       6.728   4.977  15.179  0.00  0.00    +0.000 A 
ATOM      9  C   UNL     1       7.120   5.674  16.326  0.00  0.00    +0.000 A 
ATOM     10  C   UNL     1       6.523   5.393  17.559  0.00  0.00    +0.000 A 
ATOM     11  C   UNL     1       5.526   4.413  17.667  0.00  0.00    +0.000 A 
ATOM     12  C   UNL     1       5.110   3.746  16.502  0.00  0.00    +0.000 A 
ATOM     13  C   UNL     1       5.707   4.025  15.268  0.00  0.00    +0.000 A 
BRANCH   8  15
ATOM     14  N   UNL     1       7.938   5.398  12.922  0.00  0.00    +0.000 NA
ATOM     15  C   UNL     1       7.390   5.212  13.925  0.00  0.00    +0.000 C 
ENDBRANCH   8  15
ENDBRANCH   7  11
ENDBRANCH   1   7
BRANCH   6  16
ATOM     16  C   UNL     1       2.845   5.939  19.692  0.00  0.00    +0.000 C 
BRANCH  16  17
ATOM     17  N   UNL     1       2.642   7.229  19.055  0.00  0.00    +0.000 N 
ATOM     18  C   UNL     1       3.029   7.587  17.798  0.00  0.00    +0.000 A 
ATOM     19  N   UNL     1       2.448   8.715  17.458  0.00  0.00    +0.000 NA
ATOM     20  C   UNL     1       1.687   9.008  18.554  0.00  0.00    +0.000 A 
ATOM     21  N   UNL     1       1.770   8.127  19.556  0.00  0.00    +0.000 NA
ENDBRANCH  16  17
ENDBRANCH   6  16
TORSDOF 5
ENDMDL
MODEL 6
REMARK VINA RESULT:      -7.0      1.512      4.040
REMARK  Name = 
REMARK  5 active torsions:
REMARK  status: ('A' for Active; 'I' for Inactive)
REMARK    1  A    between atoms: C_2  and  C_3
REMARK    2  A    between atoms: C_6  and  C_7
REMARK    3  A    between atoms: C_7  and  N_8
REMARK    4  A    between atoms: C_13  and  C_14
REMARK    5  A    between atoms: C_14  and  N_15
REMARK                            x       y       z     vdW  Elec       q    Type
REMARK                         _______ _______ _______ _____ _____    ______ ____
ROOT
ATOM      1  N   UNL     1       4.429   5.811  17.756  0.00  0.00    +0.000 NA
ATOM      2  C   UNL     1       5.848   6.048  18.064  0.00  0.00    +0.000 C 
ATOM      3  C   UNL     1       6.773   5.865  16.859  0.00  0.00    +0.000 C 
ATOM      4  C   UNL     1       6.536   4.534  16.160  0.00  0.00    +0.000 C 
ATOM      5  C   UNL     1       5.058   4.393  15.822  0.00  0.00    +0.000 C 
ATOM      6  C   UNL     1       4.159   4.505  17.073  0.00  0.00    +0.000 C 
ENDROOT
BRANCH   1   7
ATOM      7  C   UNL     1       3.588   5.995  18.954  0.00  0.00    +0.000 C 
BRANCH   7  11
ATOM      8  C   UNL     1       1.204   9.612  18.958  0.00  0.00    +0.000 A 
ATOM      9  C   UNL     1       1.225   8.782  20.083  0.00  0.00    +0.000 A 
ATOM     10  C   UNL     1       1.948   7.585  20.062  0.00  0.00    +0.000 A 
ATOM     11  C   UNL     1       2.661   7.198  18.918  0.00  0.00    +0.000 A 
ATOM     12  C   UNL     1       2.601   8.018  17.779  0.00  0.00    +0.000 A 
ATOM     13  C   UNL     1       1.879   9.217  17.799  0.00  0.00    +0.000 A 
BRANCH   8  15
ATOM     14  N   UNL     1      -0.014  11.903  19.030  0.00  0.00    +0.000 NA
ATOM     15  C   UNL     1       0.522  10.877  19.003  0.00  0.00    +0.000 C 
ENDBRANCH   8  15
ENDBRANCH   7  11
ENDBRANCH   1   7
BRANCH   6  16
ATOM     16  C   UNL     1       4.255   3.247  17.981  0.00  0.00    +0.000 C 
BRANCH  16  17
ATOM     17  N   UNL     1       3.000   2.736  18.507  0.00  0.00    +0.000 N 
ATOM     18  C   UNL     1       2.712   2.471  19.812  0.00  0.00    +0.000 A 
ATOM     19  N   UNL     1       1.419   2.288  19.954  0.00  0.00    +0.000 NA
ATOM     20  C   UNL     1       0.946   2.471  18.686  0.00  0.00    +0.000 A 
ATOM     21  N   UNL     1       1.874   2.749  17.766  0.00  0.00    +0.000 NA
ENDBRANCH  16  17
ENDBRANCH   6  16
TORSDOF 5
ENDMDL
MODEL 7
REMARK VINA RESULT:      -6.9      1.371      2.023
REMARK  Name = 
REMARK  5 active torsions:
REMARK  status: ('A' for Active; 'I' for Inactive)
REMARK    1  A    between atoms: C_2  and  C_3
REMARK    2  A    between atoms: C_6  and  C_7
REMARK    3  A    between atoms: C_7  and  N_8
REMARK    4  A    between atoms: C_13  and  C_14
REMARK    5  A    between atoms: C_14  and  N_15
REMARK                            x       y       z     vdW  Elec       q    Type
REMARK                         _______ _______ _______ _____ _____    ______ ____
ROOT
ATOM      1  N   UNL     1       2.975   4.882  18.656  0.00  0.00    +0.000 NA
ATOM      2  C   UNL     1       1.677   4.200  18.523  0.00  0.00    +0.000 C 
ATOM      3  C   UNL     1       1.642   2.820  19.181  0.00  0.00    +0.000 C 
ATOM      4  C   UNL     1       2.811   1.952  18.739  0.00  0.00    +0.000 C 
ATOM      5  C   UNL     1       4.117   2.703  18.965  0.00  0.00    +0.000 C 
ATOM      6  C   UNL     1       4.148   4.057  18.222  0.00  0.00    +0.000 C 
ENDROOT
BRANCH   1   7
ATOM      7  C   UNL     1       2.951   6.202  17.998  0.00  0.00    +0.000 C 
BRANCH   7  11
ATOM      8  C   UNL     1       1.156   9.450  20.232  0.00  0.00    +0.000 A 
ATOM      9  C   UNL     1       1.467   8.245  20.869  0.00  0.00    +0.000 A 
ATOM     10  C   UNL     1       1.993   7.176  20.137  0.00  0.00    +0.000 A 
ATOM     11  C   UNL     1       2.216   7.293  18.757  0.00  0.00    +0.000 A 
ATOM     12  C   UNL     1       1.862   8.493  18.119  0.00  0.00    +0.000 A 
ATOM     13  C   UNL     1       1.338   9.564  18.850  0.00  0.00    +0.000 A 
BRANCH   8  15
ATOM     14  N   UNL     1       0.295  11.483  21.596  0.00  0.00    +0.000 NA
ATOM     15  C   UNL     1       0.685  10.574  20.994  0.00  0.00    +0.000 C 
ENDBRANCH   8  15
ENDBRANCH   7  11
ENDBRANCH   1   7
BRANCH   6  16
ATOM     16  C   UNL     1       4.307   3.881  16.686  0.00  0.00    +0.000 C 
BRANCH  16  17
ATOM     17  N   UNL     1       5.441   4.554  16.076  0.00  0.00    +0.000 N 
ATOM     18  C   UNL     1       6.372   5.321  16.711  0.00  0.00    +0.000 A 
ATOM     19  N   UNL     1       7.390   5.538  15.912  0.00  0.00    +0.000 NA
ATOM     20  C   UNL     1       7.039   4.859  14.780  0.00  0.00    +0.000 A 
ATOM     21  N   UNL     1       5.856   4.239  14.832  0.00  0.00    +0.000 NA
ENDBRANCH  16  17
ENDBRANCH   6  16
TORSDOF 5
ENDMDL
MODEL 8
REMARK VINA RESULT:      -6.9      1.020      1.232
REMARK  Name = 
REMARK  5 active torsions:
REMARK  status: ('A' for Active; 'I' for Inactive)
REMARK    1  A    between atoms: C_2  and  C_3
REMARK    2  A    between atoms: C_6  and  C_7
REMARK    3  A    between atoms: C_7  and  N_8
REMARK    4  A    between atoms: C_13  and  C_14
REMARK    5  A    between atoms: C_14  and  N_15
REMARK                            x       y       z     vdW  Elec       q    Type
REMARK                         _______ _______ _______ _____ _____    ______ ____
ROOT
ATOM      1  N   UNL     1       3.004   4.726  18.405  0.00  0.00    +0.000 NA
ATOM      2  C   UNL     1       2.427   3.736  17.481  0.00  0.00    +0.000 C 
ATOM      3  C   UNL     1       2.323   2.332  18.079  0.00  0.00    +0.000 C 
ATOM      4  C   UNL     1       3.642   1.874  18.684  0.00  0.00    +0.000 C 
ATOM      5  C   UNL     1       4.139   2.922  19.672  0.00  0.00    +0.000 C 
ATOM      6  C   UNL     1       4.308   4.309  19.015  0.00  0.00    +0.000 C 
ENDROOT
BRANCH   1   7
ATOM      7  C   UNL     1       3.086   6.057  17.774  0.00  0.00    +0.000 C 
BRANCH   7  11
ATOM      8  C   UNL     1       1.049   9.169  19.993  0.00  0.00    +0.000 A 
ATOM      9  C   UNL     1       1.362   9.357  18.643  0.00  0.00    +0.000 A 
ATOM     10  C   UNL     1       2.071   8.377  17.941  0.00  0.00    +0.000 A 
ATOM     11  C   UNL     1       2.478   7.194  18.575  0.00  0.00    +0.000 A 
ATOM     12  C   UNL     1       2.195   7.033  19.942  0.00  0.00    +0.000 A 
ATOM     13  C   UNL     1       1.485   8.011  20.645  0.00  0.00    +0.000 A 
BRANCH   8  15
ATOM     14  N   UNL     1      -0.393  10.918  21.258  0.00  0.00    +0.000 NA
ATOM     15  C   UNL     1       0.258  10.142  20.697  0.00  0.00    +0.000 C 
ENDBRANCH   8  15
ENDBRANCH   7  11
ENDBRANCH   1   7
BRANCH   6  16
ATOM     16  C   UNL     1       5.535   4.364  18.062  0.00  0.00    +0.000 C 
BRANCH  16  17
ATOM     17  N   UNL     1       6.397   5.527  18.191  0.00  0.00    +0.000 N 
ATOM     18  C   UNL     1       7.393   5.706  19.105  0.00  0.00    +0.000 A 
ATOM     19  N   UNL     1       8.134   6.733  18.761  0.00  0.00    +0.000 NA
ATOM     20  C   UNL     1       7.553   7.151  17.598  0.00  0.00    +0.000 A 
ATOM     21  N   UNL     1       6.488   6.444  17.207  0.00  0.00    +0.000 NA
ENDBRANCH  16  17
ENDBRANCH   6  16
TORSDOF 5
ENDMDL
MODEL 9
REMARK VINA RESULT:      -6.9      1.404      2.042
REMARK  Name = 
REMARK  5 active torsions:
REMARK  status: ('A' for Active; 'I' for Inactive)
REMARK    1  A    between atoms: C_2  and  C_3
REMARK    2  A    between atoms: C_6  and  C_7
REMARK    3  A    between atoms: C_7  and  N_8
REMARK    4  A    between atoms: C_13  and  C_14
REMARK    5  A    between atoms: C_14  and  N_15
REMARK                            x       y       z     vdW  Elec       q    Type
REMARK                         _______ _______ _______ _____ _____    ______ ____
ROOT
ATOM      1  N   UNL     1       3.326   4.374  19.308  0.00  0.00    +0.000 NA
ATOM      2  C   UNL     1       1.865   4.402  19.132  0.00  0.00    +0.000 C 
ATOM      3  C   UNL     1       1.240   3.012  19.004  0.00  0.00    +0.000 C 
ATOM      4  C   UNL     1       1.945   2.168  17.953  0.00  0.00    +0.000 C 
ATOM      5  C   UNL     1       3.440   2.140  18.240  0.00  0.00    +0.000 C 
ATOM      6  C   UNL     1       4.052   3.557  18.284  0.00  0.00    +0.000 C 
ENDROOT
BRANCH   1   7
ATOM      7  C   UNL     1       3.873   5.740  19.418  0.00  0.00    +0.000 C 
BRANCH   7  11
ATOM      8  C   UNL     1       1.250   9.151  18.915  0.00  0.00    +0.000 A 
ATOM      9  C   UNL     1       1.303   8.479  20.140  0.00  0.00    +0.000 A 
ATOM     10  C   UNL     1       2.106   7.342  20.286  0.00  0.00    +0.000 A 
ATOM     11  C   UNL     1       2.868   6.860  19.212  0.00  0.00    +0.000 A 
ATOM     12  C   UNL     1       2.776   7.518  17.974  0.00  0.00    +0.000 A 
ATOM     13  C   UNL     1       1.975   8.655  17.827  0.00  0.00    +0.000 A 
BRANCH   8  15
ATOM     14  N   UNL     1      -0.120  11.342  18.674  0.00  0.00    +0.000 NA
ATOM     15  C   UNL     1       0.483  10.360  18.784  0.00  0.00    +0.000 C 
ENDBRANCH   8  15
ENDBRANCH   7  11
ENDBRANCH   1   7
BRANCH   6  16
ATOM     16  C   UNL     1       4.154   4.198  16.871  0.00  0.00    +0.000 C 
BRANCH  16  17
ATOM     17  N   UNL     1       5.490   4.542  16.416  0.00  0.00    +0.000 N 
ATOM     18  C   UNL     1       6.640   4.482  17.146  0.00  0.00    +0.000 A 
ATOM     19  N   UNL     1       7.678   4.597  16.351  0.00  0.00    +0.000 NA
ATOM     20  C   UNL     1       7.105   4.711  15.117  0.00  0.00    +0.000 A 
ATOM     21  N   UNL     1       5.769   4.680  15.104  0.00  0.00    +0.000 NA
ENDBRANCH  16  17
ENDBRANCH   6  16
TORSDOF 5
ENDMDL
