MODEL 1
REMARK VINA RESULT:      -8.0      0.000      0.000
REMARK  Name = 
REMARK  6 active torsions:
REMARK  status: ('A' for Active; 'I' for Inactive)
REMARK    1  A    between atoms: C_1  and  C_2
REMARK    2  A    between atoms: C_2  and  N_3
REMARK    3  A    between atoms: N_3  and  O_4
REMARK    4  A    between atoms: O_4  and  C_5
REMARK    5  A    between atoms: C_6  and  C_8
REMARK    6  A    between atoms: N_17  and  C_18
REMARK                            x       y       z     vdW  Elec       q    Type
REMARK                         _______ _______ _______ _____ _____    ______ ____
ROOT
ATOM      1  C   UNL     1       2.245   6.893  19.713  0.00  0.00    +0.000 A 
ATOM      2  N   UNL     1       1.617   5.978  20.485  0.00  0.00    +0.000 NA
ATOM      3  N   UNL     1       2.404   4.889  20.456  0.00  0.00    +0.000 N 
ATOM      4  C   UNL     1       3.493   5.047  19.666  0.00  0.00    +0.000 A 
ATOM      5  C   UNL     1       3.415   6.317  19.142  0.00  0.00    +0.000 A 
ATOM      6  C   UNL     1       4.401   6.881  18.177  0.00  0.00    +0.000 C 
ATOM      7  N   UNL     1       5.225   5.767  17.650  0.00  0.00    +0.000 N 
ATOM      8  C   UNL     1       5.523   5.810  16.297  0.00  0.00    +0.000 C 
ATOM      9  O   UNL     1       5.190   6.777  15.619  0.00  0.00    +0.000 OA
ATOM     10  N   UNL     1       6.158   4.700  15.786  0.00  0.00    +0.000 N 
ATOM     11  C   UNL     1       5.718   4.799  18.655  0.00  0.00    +0.000 C 
ATOM     12  C   UNL     1       4.551   4.056  19.356  0.00  0.00    +0.000 C 
ATOM     13  H   UNL     1       2.120   4.077  20.993  0.00  0.00    +0.000 HD
ATOM     14  H   UNL     1       6.119   3.864  16.343  0.00  0.00    +0.000 HD
ENDROOT
BRANCH  10  15
ATOM     15  C   UNL     1       6.546   4.521  14.435  0.00  0.00    +0.000 A 
ATOM     16  C   UNL     1       7.546   5.278  13.811  0.00  0.00    +0.000 A 
ATOM     17  C   UNL     1       7.834   5.111  12.454  0.00  0.00    +0.000 A 
ATOM     18  C   UNL     1       7.137   4.167  11.707  0.00  0.00    +0.000 A 
ATOM     19  C   UNL     1       6.170   3.381  12.329  0.00  0.00    +0.000 A 
ATOM     20 CL   UNL     1       5.312   2.206  11.408  0.00  0.00    +0.000 Cl
ATOM     21  C   UNL     1       5.875   3.547  13.686  0.00  0.00    +0.000 A 
ENDBRANCH  10  15
BRANCH   1  23
ATOM     22  N   UNL     1       0.876   8.854  20.397  0.00  0.00    +0.000 N 
ATOM     23  C   UNL     1       1.756   8.271  19.452  0.00  0.00    +0.000 C 
ATOM     24  O   UNL     1       2.069   8.847  18.406  0.00  0.00    +0.000 OA
BRANCH  22  26
ATOM     25  C   UNL     1      -0.931  10.273  19.383  0.00  0.00    +0.000 C 
ATOM     26  C   UNL     1       0.407  10.207  20.113  0.00  0.00    +0.000 C 
ENDBRANCH  22  26
BRANCH  22  27
ATOM     27  O   UNL     1       1.553   8.911  21.667  0.00  0.00    +0.000 OA
ATOM     28  C   UNL     1       0.648   9.347  22.680  0.00  0.00    +0.000 C 
ENDBRANCH  22  27
ENDBRANCH   1  23
TORSDOF 4
ENDMDL
MODEL 2
REMARK VINA RESULT:      -7.3      4.350      6.956
REMARK  Name = 
REMARK  6 active torsions:
REMARK  status: ('A' for Active; 'I' for Inactive)
REMARK    1  A    between atoms: C_1  and  C_2
REMARK    2  A    between atoms: C_2  and  N_3
REMARK    3  A    between atoms: N_3  and  O_4
REMARK    4  A    between atoms: O_4  and  C_5
REMARK    5  A    between atoms: C_6  and  C_8
REMARK    6  A    between atoms: N_17  and  C_18
REMARK                            x       y       z     vdW  Elec       q    Type
REMARK                         _______ _______ _______ _____ _____    ______ ____
ROOT
ATOM      1  C   UNL     1      -1.034  12.247  21.055  0.00  0.00    +0.000 A 
ATOM      2  N   UNL     1      -2.017  12.399  21.970  0.00  0.00    +0.000 NA
ATOM      3  N   UNL     1      -1.779  11.464  22.905  0.00  0.00    +0.000 N 
ATOM      4  C   UNL     1      -0.708  10.689  22.614  0.00  0.00    +0.000 A 
ATOM      5  C   UNL     1      -0.213  11.140  21.413  0.00  0.00    +0.000 A 
ATOM      6  C   UNL     1       0.946  10.525  20.706  0.00  0.00    +0.000 C 
ATOM      7  N   UNL     1       1.220   9.205  21.323  0.00  0.00    +0.000 N 
ATOM      8  C   UNL     1       1.546   8.177  20.455  0.00  0.00    +0.000 C 
ATOM      9  O   UNL     1       1.683   8.397  19.255  0.00  0.00    +0.000 OA
ATOM     10  N   UNL     1       1.651   6.924  21.019  0.00  0.00    +0.000 N 
ATOM     11  C   UNL     1       1.217   9.175  22.803  0.00  0.00    +0.000 C 
ATOM     12  C   UNL     1      -0.175   9.537  23.381  0.00  0.00    +0.000 C 
ATOM     13  H   UNL     1      -2.402  11.415  23.704  0.00  0.00    +0.000 HD
ATOM     14  H   UNL     1       1.238   6.806  21.928  0.00  0.00    +0.000 HD
ENDROOT
BRANCH  10  15
ATOM     15  C   UNL     1       1.960   5.729  20.322  0.00  0.00    +0.000 A 
ATOM     16  C   UNL     1       1.130   4.601  20.317  0.00  0.00    +0.000 A 
ATOM     17  C   UNL     1       1.522   3.423  19.675  0.00  0.00    +0.000 A 
ATOM     18  C   UNL     1       2.742   3.366  19.011  0.00  0.00    +0.000 A 
ATOM     19  C   UNL     1       3.555   4.497  18.977  0.00  0.00    +0.000 A 
ATOM     20 CL   UNL     1       5.062   4.431  18.147  0.00  0.00    +0.000 Cl
ATOM     21  C   UNL     1       3.169   5.677  19.620  0.00  0.00    +0.000 A 
ENDBRANCH  10  15
BRANCH   1  23
ATOM     22  N   UNL     1      -0.265  14.347  19.966  0.00  0.00    +0.000 N 
ATOM     23  C   UNL     1      -0.870  13.073  19.831  0.00  0.00    +0.000 C 
ATOM     24  O   UNL     1      -1.313  12.669  18.753  0.00  0.00    +0.000 OA
BRANCH  22  26
ATOM     25  C   UNL     1      -0.676  16.556  18.846  0.00  0.00    +0.000 C 
ATOM     26  C   UNL     1      -0.120  15.139  18.748  0.00  0.00    +0.000 C 
ENDBRANCH  22  26
BRANCH  22  27
ATOM     27  O   UNL     1       1.062  14.161  20.495  0.00  0.00    +0.000 OA
ATOM     28  C   UNL     1       1.984  13.949  19.426  0.00  0.00    +0.000 C 
ENDBRANCH  22  27
ENDBRANCH   1  23
TORSDOF 4
ENDMDL
MODEL 3
REMARK VINA RESULT:      -7.3      4.067      8.461
REMARK  Name = 
REMARK  6 active torsions:
REMARK  status: ('A' for Active; 'I' for Inactive)
REMARK    1  A    between atoms: C_1  and  C_2
REMARK    2  A    between atoms: C_2  and  N_3
REMARK    3  A    between atoms: N_3  and  O_4
REMARK    4  A    between atoms: O_4  and  C_5
REMARK    5  A    between atoms: C_6  and  C_8
REMARK    6  A    between atoms: N_17  and  C_18
REMARK                            x       y       z     vdW  Elec       q    Type
REMARK                         _______ _______ _______ _____ _____    ______ ____
ROOT
ATOM      1  C   UNL     1       4.840   3.852  19.254  0.00  0.00    +0.000 A 
ATOM      2  N   UNL     1       5.022   2.742  20.004  0.00  0.00    +0.000 NA
ATOM      3  N   UNL     1       3.861   2.557  20.653  0.00  0.00    +0.000 N 
ATOM      4  C   UNL     1       2.949   3.522  20.386  0.00  0.00    +0.000 A 
ATOM      5  C   UNL     1       3.549   4.397  19.510  0.00  0.00    +0.000 A 
ATOM      6  C   UNL     1       2.902   5.636  18.996  0.00  0.00    +0.000 C 
ATOM      7  N   UNL     1       1.707   5.916  19.827  0.00  0.00    +0.000 N 
ATOM      8  C   UNL     1       1.483   7.244  20.152  0.00  0.00    +0.000 C 
ATOM      9  O   UNL     1       2.197   8.127  19.686  0.00  0.00    +0.000 OA
ATOM     10  N   UNL     1       0.461   7.480  21.046  0.00  0.00    +0.000 N 
ATOM     11  C   UNL     1       0.840   4.753  20.119  0.00  0.00    +0.000 C 
ATOM     12  C   UNL     1       1.585   3.675  20.948  0.00  0.00    +0.000 C 
ATOM     13  H   UNL     1       3.776   1.755  21.268  0.00  0.00    +0.000 HD
ATOM     14  H   UNL     1       0.144   6.690  21.582  0.00  0.00    +0.000 HD
ENDROOT
BRANCH  10  15
ATOM     15  C   UNL     1       0.065   8.751  21.529  0.00  0.00    +0.000 A 
ATOM     16  C   UNL     1      -0.103   9.044  22.888  0.00  0.00    +0.000 A 
ATOM     17  C   UNL     1      -0.570  10.295  23.302  0.00  0.00    +0.000 A 
ATOM     18  C   UNL     1      -0.854  11.277  22.360  0.00  0.00    +0.000 A 
ATOM     19  C   UNL     1      -0.650  11.008  21.009  0.00  0.00    +0.000 A 
ATOM     20 CL   UNL     1      -0.993  12.226  19.841  0.00  0.00    +0.000 Cl
ATOM     21  C   UNL     1      -0.186   9.757  20.589  0.00  0.00    +0.000 A 
ENDBRANCH  10  15
BRANCH   1  23
ATOM     22  N   UNL     1       6.458   5.668  18.735  0.00  0.00    +0.000 N 
ATOM     23  C   UNL     1       5.855   4.447  18.347  0.00  0.00    +0.000 C 
ATOM     24  O   UNL     1       6.100   3.910  17.263  0.00  0.00    +0.000 OA
BRANCH  22  26
ATOM     25  C   UNL     1       7.194   7.687  17.436  0.00  0.00    +0.000 C 
ATOM     26  C   UNL     1       7.448   6.233  17.823  0.00  0.00    +0.000 C 
ENDBRANCH  22  26
BRANCH  22  27
ATOM     27  O   UNL     1       7.131   5.458  19.992  0.00  0.00    +0.000 OA
ATOM     28  C   UNL     1       8.536   5.343  19.776  0.00  0.00    +0.000 C 
ENDBRANCH  22  27
ENDBRANCH   1  23
TORSDOF 4
ENDMDL
MODEL 4
REMARK VINA RESULT:      -7.2      4.264      6.894
REMARK  Name = 
REMARK  6 active torsions:
REMARK  status: ('A' for Active; 'I' for Inactive)
REMARK    1  A    between atoms: C_1  and  C_2
REMARK    2  A    between atoms: C_2  and  N_3
REMARK    3  A    between atoms: N_3  and  O_4
REMARK    4  A    between atoms: O_4  and  C_5
REMARK    5  A    between atoms: C_6  and  C_8
REMARK    6  A    between atoms: N_17  and  C_18
REMARK                            x       y       z     vdW  Elec       q    Type
REMARK                         _______ _______ _______ _____ _____    ______ ____
ROOT
ATOM      1  C   UNL     1      -1.114  12.286  21.191  0.00  0.00    +0.000 A 
ATOM      2  N   UNL     1      -2.091  12.326  22.126  0.00  0.00    +0.000 NA
ATOM      3  N   UNL     1      -1.795  11.341  22.991  0.00  0.00    +0.000 N 
ATOM      4  C   UNL     1      -0.692  10.641  22.635  0.00  0.00    +0.000 A 
ATOM      5  C   UNL     1      -0.237  11.198  21.462  0.00  0.00    +0.000 A 
ATOM      6  C   UNL     1       0.940  10.690  20.701  0.00  0.00    +0.000 C 
ATOM      7  N   UNL     1       1.286   9.346  21.222  0.00  0.00    +0.000 N 
ATOM      8  C   UNL     1       1.647   8.397  20.280  0.00  0.00    +0.000 C 
ATOM      9  O   UNL     1       1.757   8.706  19.097  0.00  0.00    +0.000 OA
ATOM     10  N   UNL     1       1.821   7.114  20.754  0.00  0.00    +0.000 N 
ATOM     11  C   UNL     1       1.306   9.213  22.696  0.00  0.00    +0.000 C 
ATOM     12  C   UNL     1      -0.094   9.466  23.313  0.00  0.00    +0.000 C 
ATOM     13  H   UNL     1      -2.403  11.207  23.791  0.00  0.00    +0.000 HD
ATOM     14  H   UNL     1       1.427   6.914  21.657  0.00  0.00    +0.000 HD
ENDROOT
BRANCH  10  15
ATOM     15  C   UNL     1       2.176   5.988  19.972  0.00  0.00    +0.000 A 
ATOM     16  C   UNL     1       3.327   5.932  19.176  0.00  0.00    +0.000 A 
ATOM     17  C   UNL     1       3.588   4.824  18.365  0.00  0.00    +0.000 A 
ATOM     18  C   UNL     1       2.710   3.746  18.358  0.00  0.00    +0.000 A 
ATOM     19  C   UNL     1       1.585   3.775  19.179  0.00  0.00    +0.000 A 
ATOM     20 CL   UNL     1       0.501   2.438  19.178  0.00  0.00    +0.000 Cl
ATOM     21  C   UNL     1       1.317   4.883  19.989  0.00  0.00    +0.000 A 
ENDBRANCH  10  15
BRANCH   1  23
ATOM     22  N   UNL     1      -0.483  14.498  20.247  0.00  0.00    +0.000 N 
ATOM     23  C   UNL     1      -1.008  13.201  20.027  0.00  0.00    +0.000 C 
ATOM     24  O   UNL     1      -1.430  12.844  18.924  0.00  0.00    +0.000 OA
BRANCH  22  26
ATOM     25  C   UNL     1      -1.073  16.733  19.266  0.00  0.00    +0.000 C 
ATOM     26  C   UNL     1      -0.394  15.379  19.087  0.00  0.00    +0.000 C 
ENDBRANCH  22  26
BRANCH  22  27
ATOM     27  O   UNL     1       0.856  14.360  20.762  0.00  0.00    +0.000 OA
ATOM     28  C   UNL     1       1.785  14.284  19.682  0.00  0.00    +0.000 C 
ENDBRANCH  22  27
ENDBRANCH   1  23
TORSDOF 4
ENDMDL
MODEL 5
REMARK VINA RESULT:      -7.2      3.865      7.535
REMARK  Name = 
REMARK  6 active torsions:
REMARK  status: ('A' for Active; 'I' for Inactive)
REMARK    1  A    between atoms: C_1  and  C_2
REMARK    2  A    between atoms: C_2  and  N_3
REMARK    3  A    between atoms: N_3  and  O_4
REMARK    4  A    between atoms: O_4  and  C_5
REMARK    5  A    between atoms: C_6  and  C_8
REMARK    6  A    between atoms: N_17  and  C_18
REMARK                            x       y       z     vdW  Elec       q    Type
REMARK                         _______ _______ _______ _____ _____    ______ ____
ROOT
ATOM      1  C   UNL     1       4.375   3.553  18.271  0.00  0.00    +0.000 A 
ATOM      2  N   UNL     1       4.718   2.983  17.094  0.00  0.00    +0.000 NA
ATOM      3  N   UNL     1       4.878   4.006  16.237  0.00  0.00    +0.000 N 
ATOM      4  C   UNL     1       4.614   5.209  16.799  0.00  0.00    +0.000 A 
ATOM      5  C   UNL     1       4.255   4.962  18.104  0.00  0.00    +0.000 A 
ATOM      6  C   UNL     1       3.837   6.020  19.067  0.00  0.00    +0.000 C 
ATOM      7  N   UNL     1       3.556   7.259  18.304  0.00  0.00    +0.000 N 
ATOM      8  C   UNL     1       2.451   7.990  18.707  0.00  0.00    +0.000 C 
ATOM      9  O   UNL     1       1.814   7.657  19.702  0.00  0.00    +0.000 OA
ATOM     10  N   UNL     1       2.108   9.055  17.902  0.00  0.00    +0.000 N 
ATOM     11  C   UNL     1       4.554   7.619  17.272  0.00  0.00    +0.000 C 
ATOM     12  C   UNL     1       4.638   6.545  16.156  0.00  0.00    +0.000 C 
ATOM     13  H   UNL     1       5.158   3.795  15.285  0.00  0.00    +0.000 HD
ATOM     14  H   UNL     1       2.502   9.062  16.977  0.00  0.00    +0.000 HD
ENDROOT
BRANCH  10  15
ATOM     15  C   UNL     1       1.013   9.929  18.113  0.00  0.00    +0.000 A 
ATOM     16  C   UNL     1       1.130  11.177  18.738  0.00  0.00    +0.000 A 
ATOM     17  C   UNL     1       0.003  11.965  18.988  0.00  0.00    +0.000 A 
ATOM     18  C   UNL     1      -1.255  11.522  18.596  0.00  0.00    +0.000 A 
ATOM     19  C   UNL     1      -1.375  10.301  17.937  0.00  0.00    +0.000 A 
ATOM     20 CL   UNL     1      -2.931   9.755  17.442  0.00  0.00    +0.000 Cl
ATOM     21  C   UNL     1      -0.251   9.507  17.687  0.00  0.00    +0.000 A 
ENDBRANCH  10  15
BRANCH   1  23
ATOM     22  N   UNL     1       2.772   2.787  20.011  0.00  0.00    +0.000 N 
ATOM     23  C   UNL     1       4.104   2.815  19.531  0.00  0.00    +0.000 C 
ATOM     24  O   UNL     1       5.038   2.306  20.158  0.00  0.00    +0.000 OA
BRANCH  22  26
ATOM     25  C   UNL     1       1.341   2.558  22.062  0.00  0.00    +0.000 C 
ATOM     26  C   UNL     1       2.535   2.059  21.255  0.00  0.00    +0.000 C 
ENDBRANCH  22  26
BRANCH  22  27
ATOM     27  O   UNL     1       1.946   2.166  19.008  0.00  0.00    +0.000 OA
ATOM     28  C   UNL     1       0.944   3.082  18.569  0.00  0.00    +0.000 C 
ENDBRANCH  22  27
ENDBRANCH   1  23
TORSDOF 4
ENDMDL
MODEL 6
REMARK VINA RESULT:      -7.1      4.148      7.746
REMARK  Name = 
REMARK  6 active torsions:
REMARK  status: ('A' for Active; 'I' for Inactive)
REMARK    1  A    between atoms: C_1  and  C_2
REMARK    2  A    between atoms: C_2  and  N_3
REMARK    3  A    between atoms: N_3  and  O_4
REMARK    4  A    between atoms: O_4  and  C_5
REMARK    5  A    between atoms: C_6  and  C_8
REMARK    6  A    between atoms: N_17  and  C_18
REMARK                            x       y       z     vdW  Elec       q    Type
REMARK                         _______ _______ _______ _____ _____    ______ ____
ROOT
ATOM      1  C   UNL     1       4.340   3.522  18.266  0.00  0.00    +0.000 A 
ATOM      2  N   UNL     1       4.693   2.960  17.088  0.00  0.00    +0.000 NA
ATOM      3  N   UNL     1       4.868   3.989  16.242  0.00  0.00    +0.000 N 
ATOM      4  C   UNL     1       4.605   5.189  16.810  0.00  0.00    +0.000 A 
ATOM      5  C   UNL     1       4.231   4.934  18.109  0.00  0.00    +0.000 A 
ATOM      6  C   UNL     1       3.809   5.986  19.077  0.00  0.00    +0.000 C 
ATOM      7  N   UNL     1       3.543   7.233  18.321  0.00  0.00    +0.000 N 
ATOM      8  C   UNL     1       2.438   7.968  18.718  0.00  0.00    +0.000 C 
ATOM      9  O   UNL     1       1.789   7.630  19.703  0.00  0.00    +0.000 OA
ATOM     10  N   UNL     1       2.111   9.042  17.918  0.00  0.00    +0.000 N 
ATOM     11  C   UNL     1       4.555   7.595  17.302  0.00  0.00    +0.000 C 
ATOM     12  C   UNL     1       4.644   6.530  16.179  0.00  0.00    +0.000 C 
ATOM     13  H   UNL     1       5.156   3.784  15.291  0.00  0.00    +0.000 HD
ATOM     14  H   UNL     1       2.514   9.053  16.997  0.00  0.00    +0.000 HD
ENDROOT
BRANCH  10  15
ATOM     15  C   UNL     1       1.019   9.920  18.124  0.00  0.00    +0.000 A 
ATOM     16  C   UNL     1      -0.304   9.600  17.794  0.00  0.00    +0.000 A 
ATOM     17  C   UNL     1      -1.330  10.535  17.949  0.00  0.00    +0.000 A 
ATOM     18  C   UNL     1      -1.049  11.798  18.457  0.00  0.00    +0.000 A 
ATOM     19  C   UNL     1       0.257  12.111  18.827  0.00  0.00    +0.000 A 
ATOM     20 CL   UNL     1       0.606  13.672  19.464  0.00  0.00    +0.000 Cl
ATOM     21  C   UNL     1       1.289  11.180  18.671  0.00  0.00    +0.000 A 
ENDBRANCH  10  15
BRANCH   1  23
ATOM     22  N   UNL     1       2.704   2.690  19.943  0.00  0.00    +0.000 N 
ATOM     23  C   UNL     1       4.052   2.776  19.517  0.00  0.00    +0.000 C 
ATOM     24  O   UNL     1       4.981   2.311  20.183  0.00  0.00    +0.000 OA
BRANCH  22  26
ATOM     25  C   UNL     1       1.466   2.634  22.127  0.00  0.00    +0.000 C 
ATOM     26  C   UNL     1       2.449   1.955  21.179  0.00  0.00    +0.000 C 
ENDBRANCH  22  26
BRANCH  22  27
ATOM     27  O   UNL     1       1.947   2.030  18.910  0.00  0.00    +0.000 OA
ATOM     28  C   UNL     1       0.741   2.749  18.659  0.00  0.00    +0.000 C 
ENDBRANCH  22  27
ENDBRANCH   1  23
TORSDOF 4
ENDMDL
MODEL 7
REMARK VINA RESULT:      -7.0      4.498      8.864
REMARK  Name = 
REMARK  6 active torsions:
REMARK  status: ('A' for Active; 'I' for Inactive)
REMARK    1  A    between atoms: C_1  and  C_2
REMARK    2  A    between atoms: C_2  and  N_3
REMARK    3  A    between atoms: N_3  and  O_4
REMARK    4  A    between atoms: O_4  and  C_5
REMARK    5  A    between atoms: C_6  and  C_8
REMARK    6  A    between atoms: N_17  and  C_18
REMARK                            x       y       z     vdW  Elec       q    Type
REMARK                         _______ _______ _______ _____ _____    ______ ____
ROOT
ATOM      1  C   UNL     1       2.999   6.519  18.923  0.00  0.00    +0.000 A 
ATOM      2  N   UNL     1       2.981   5.782  20.056  0.00  0.00    +0.000 NA
ATOM      3  N   UNL     1       2.135   6.421  20.882  0.00  0.00    +0.000 N 
ATOM      4  C   UNL     1       1.637   7.560  20.347  0.00  0.00    +0.000 A 
ATOM      5  C   UNL     1       2.191   7.680  19.094  0.00  0.00    +0.000 A 
ATOM      6  C   UNL     1       1.941   8.829  18.178  0.00  0.00    +0.000 C 
ATOM      7  N   UNL     1       1.309   9.918  18.961  0.00  0.00    +0.000 N 
ATOM      8  C   UNL     1       1.742  11.204  18.683  0.00  0.00    +0.000 C 
ATOM      9  O   UNL     1       2.537  11.408  17.770  0.00  0.00    +0.000 OA
ATOM     10  N   UNL     1       1.263  12.193  19.515  0.00  0.00    +0.000 N 
ATOM     11  C   UNL     1       0.216   9.506  19.869  0.00  0.00    +0.000 C 
ATOM     12  C   UNL     1       0.720   8.543  20.975  0.00  0.00    +0.000 C 
ATOM     13  H   UNL     1       1.962   6.019  21.797  0.00  0.00    +0.000 HD
ATOM     14  H   UNL     1       0.869  11.890  20.389  0.00  0.00    +0.000 HD
ENDROOT
BRANCH  10  15
ATOM     15  C   UNL     1       1.581  13.570  19.426  0.00  0.00    +0.000 A 
ATOM     16  C   UNL     1       2.788  14.116  19.881  0.00  0.00    +0.000 A 
ATOM     17  C   UNL     1       3.016  15.494  19.838  0.00  0.00    +0.000 A 
ATOM     18  C   UNL     1       2.046  16.343  19.318  0.00  0.00    +0.000 A 
ATOM     19  C   UNL     1       0.860  15.804  18.825  0.00  0.00    +0.000 A 
ATOM     20 CL   UNL     1      -0.340  16.853  18.172  0.00  0.00    +0.000 Cl
ATOM     21  C   UNL     1       0.625  14.426  18.869  0.00  0.00    +0.000 A 
ENDBRANCH  10  15
BRANCH   1  23
ATOM     22  N   UNL     1       4.036   4.834  17.416  0.00  0.00    +0.000 N 
ATOM     23  C   UNL     1       3.788   6.198  17.707  0.00  0.00    +0.000 C 
ATOM     24  O   UNL     1       4.260   7.110  17.022  0.00  0.00    +0.000 OA
BRANCH  22  26
ATOM     25  C   UNL     1       6.310   4.350  16.468  0.00  0.00    +0.000 C 
ATOM     26  C   UNL     1       4.819   4.548  16.218  0.00  0.00    +0.000 C 
ENDBRANCH  22  26
BRANCH  22  27
ATOM     27  O   UNL     1       2.767   4.174  17.246  0.00  0.00    +0.000 OA
ATOM     28  C   UNL     1       2.868   2.814  17.667  0.00  0.00    +0.000 C 
ENDBRANCH  22  27
ENDBRANCH   1  23
TORSDOF 4
ENDMDL
MODEL 8
REMARK VINA RESULT:      -7.0      3.480      8.351
REMARK  Name = 
REMARK  6 active torsions:
REMARK  status: ('A' for Active; 'I' for Inactive)
REMARK    1  A    between atoms: C_1  and  C_2
REMARK    2  A    between atoms: C_2  and  N_3
REMARK    3  A    between atoms: N_3  and  O_4
REMARK    4  A    between atoms: O_4  and  C_5
REMARK    5  A    between atoms: C_6  and  C_8
REMARK    6  A    between atoms: N_17  and  C_18
REMARK                            x       y       z     vdW  Elec       q    Type
REMARK                         _______ _______ _______ _____ _____    ______ ____
ROOT
ATOM      1  C   UNL     1       4.638   3.441  18.860  0.00  0.00    +0.000 A 
ATOM      2  N   UNL     1       5.036   2.457  19.698  0.00  0.00    +0.000 NA
ATOM      3  N   UNL     1       4.086   2.393  20.647  0.00  0.00    +0.000 N 
ATOM      4  C   UNL     1       3.114   3.321  20.481  0.00  0.00    +0.000 A 
ATOM      5  C   UNL     1       3.445   4.040  19.356  0.00  0.00    +0.000 A 
ATOM      6  C   UNL     1       2.656   5.196  18.844  0.00  0.00    +0.000 C 
ATOM      7  N   UNL     1       1.711   5.620  19.905  0.00  0.00    +0.000 N 
ATOM      8  C   UNL     1       1.547   6.985  20.070  0.00  0.00    +0.000 C 
ATOM      9  O   UNL     1       2.094   7.774  19.305  0.00  0.00    +0.000 OA
ATOM     10  N   UNL     1       0.786   7.373  21.152  0.00  0.00    +0.000 N 
ATOM     11  C   UNL     1       0.978   4.530  20.586  0.00  0.00    +0.000 C 
ATOM     12  C   UNL     1       1.939   3.581  21.348  0.00  0.00    +0.000 C 
ATOM     13  H   UNL     1       4.184   1.697  21.378  0.00  0.00    +0.000 HD
ATOM     14  H   UNL     1       0.638   6.681  21.866  0.00  0.00    +0.000 HD
ENDROOT
BRANCH  10  15
ATOM     15  C   UNL     1       0.498   8.710  21.520  0.00  0.00    +0.000 A 
ATOM     16  C   UNL     1      -0.235   9.056  22.662  0.00  0.00    +0.000 A 
ATOM     17  C   UNL     1      -0.555  10.389  22.935  0.00  0.00    +0.000 A 
ATOM     18  C   UNL     1      -0.127  11.396  22.078  0.00  0.00    +0.000 A 
ATOM     19  C   UNL     1       0.638  11.064  20.962  0.00  0.00    +0.000 A 
ATOM     20 CL   UNL     1       1.177  12.311  19.904  0.00  0.00    +0.000 Cl
ATOM     21  C   UNL     1       0.958   9.732  20.682  0.00  0.00    +0.000 A 
ENDBRANCH  10  15
BRANCH   1  23
ATOM     22  N   UNL     1       6.246   4.978  17.749  0.00  0.00    +0.000 N 
ATOM     23  C   UNL     1       5.368   3.872  17.641  0.00  0.00    +0.000 C 
ATOM     24  O   UNL     1       5.151   3.310  16.564  0.00  0.00    +0.000 OA
BRANCH  22  26
ATOM     25  C   UNL     1       6.062   6.053  15.487  0.00  0.00    +0.000 C 
ATOM     26  C   UNL     1       6.946   5.384  16.534  0.00  0.00    +0.000 C 
ENDBRANCH  22  26
BRANCH  22  27
ATOM     27  O   UNL     1       7.260   4.655  18.719  0.00  0.00    +0.000 OA
ATOM     28  C   UNL     1       7.825   5.854  19.248  0.00  0.00    +0.000 C 
ENDBRANCH  22  27
ENDBRANCH   1  23
TORSDOF 4
ENDMDL
MODEL 9
REMARK VINA RESULT:      -6.9      1.192      1.517
REMARK  Name = 
REMARK  6 active torsions:
REMARK  status: ('A' for Active; 'I' for Inactive)
REMARK    1  A    between atoms: C_1  and  C_2
REMARK    2  A    between atoms: C_2  and  N_3
REMARK    3  A    between atoms: N_3  and  O_4
REMARK    4  A    between atoms: O_4  and  C_5
REMARK    5  A    between atoms: C_6  and  C_8
REMARK    6  A    between atoms: N_17  and  C_18
REMARK                            x       y       z     vdW  Elec       q    Type
REMARK                         _______ _______ _______ _____ _____    ______ ____
ROOT
ATOM      1  C   UNL     1       1.872   6.833  20.080  0.00  0.00    +0.000 A 
ATOM      2  N   UNL     1       1.134   5.934  20.770  0.00  0.00    +0.000 NA
ATOM      3  N   UNL     1       1.811   4.777  20.682  0.00  0.00    +0.000 N 
ATOM      4  C   UNL     1       2.934   4.879  19.932  0.00  0.00    +0.000 A 
ATOM      5  C   UNL     1       2.997   6.183  19.497  0.00  0.00    +0.000 A 
ATOM      6  C   UNL     1       4.062   6.710  18.598  0.00  0.00    +0.000 C 
ATOM      7  N   UNL     1       4.788   5.559  18.012  0.00  0.00    +0.000 N 
ATOM      8  C   UNL     1       5.130   5.665  16.674  0.00  0.00    +0.000 C 
ATOM      9  O   UNL     1       4.914   6.704  16.058  0.00  0.00    +0.000 OA
ATOM     10  N   UNL     1       5.669   4.534  16.099  0.00  0.00    +0.000 N 
ATOM     11  C   UNL     1       5.154   4.480  18.958  0.00  0.00    +0.000 C 
ATOM     12  C   UNL     1       3.899   3.811  19.576  0.00  0.00    +0.000 C 
ATOM     13  H   UNL     1       1.433   3.962  21.153  0.00  0.00    +0.000 HD
ATOM     14  H   UNL     1       5.531   3.671  16.595  0.00  0.00    +0.000 HD
ENDROOT
BRANCH  10  15
ATOM     15  C   UNL     1       6.078   4.411  14.749  0.00  0.00    +0.000 A 
ATOM     16  C   UNL     1       5.468   3.544  13.833  0.00  0.00    +0.000 A 
ATOM     17  C   UNL     1       5.963   3.407  12.533  0.00  0.00    +0.000 A 
ATOM     18  C   UNL     1       7.062   4.153  12.126  0.00  0.00    +0.000 A 
ATOM     19  C   UNL     1       7.649   5.049  13.017  0.00  0.00    +0.000 A 
ATOM     20 CL   UNL     1       9.006   5.981  12.512  0.00  0.00    +0.000 Cl
ATOM     21  C   UNL     1       7.161   5.187  14.320  0.00  0.00    +0.000 A 
ENDBRANCH  10  15
BRANCH   1  23
ATOM     22  N   UNL     1       0.672   8.866  20.863  0.00  0.00    +0.000 N 
ATOM     23  C   UNL     1       1.528   8.267  19.906  0.00  0.00    +0.000 C 
ATOM     24  O   UNL     1       1.935   8.881  18.916  0.00  0.00    +0.000 OA
BRANCH  22  26
ATOM     25  C   UNL     1      -0.835  10.527  19.735  0.00  0.00    +0.000 C 
ATOM     26  C   UNL     1       0.347  10.275  20.666  0.00  0.00    +0.000 C 
ENDBRANCH  22  26
BRANCH  22  27
ATOM     27  O   UNL     1       1.303   8.767  22.155  0.00  0.00    +0.000 OA
ATOM     28  C   UNL     1       0.480   9.382  23.144  0.00  0.00    +0.000 C 
ENDBRANCH  22  27
ENDBRANCH   1  23
TORSDOF 4
ENDMDL
