MODEL 1
REMARK VINA RESULT:      -8.0      0.000      0.000
REMARK  Name = 
REMARK  7 active torsions:
REMARK  status: ('A' for Active; 'I' for Inactive)
REMARK    1  A    between atoms: C_2  and  O_3
REMARK    2  A    between atoms: C_2  and  C_4
REMARK    3  A    between atoms: C_4  and  C_5
REMARK    4  A    between atoms: C_4  and  N_12
REMARK    5  A    between atoms: C_5  and  C_6
REMARK    6  A    between atoms: C_13  and  C_14
REMARK    7  A    between atoms: C_15  and  C_16
REMARK                            x       y       z     vdW  Elec       q    Type
REMARK                         _______ _______ _______ _____ _____    ______ ____
ROOT
ATOM      1  N   UNL     1       1.038  10.586  19.460  0.00  0.00    +0.000 N 
ATOM      2  C   UNL     1       0.448  10.113  20.633  0.00  0.00    +0.000 A 
ATOM      3  N   UNL     1       0.604   8.885  21.077  0.00  0.00    +0.000 NA
ATOM      4  C   UNL     1       1.369   8.054  20.341  0.00  0.00    +0.000 A 
ATOM      5  S   UNL     1       1.634   6.416  20.759  0.00  0.00    +0.000 S 
ATOM      6  C   UNL     1       2.576   6.146  19.361  0.00  0.00    +0.000 A 
ATOM      7  C   UNL     1       2.708   7.287  18.592  0.00  0.00    +0.000 A 
ATOM      8  C   UNL     1       1.975   8.372  19.159  0.00  0.00    +0.000 A 
ATOM      9  C   UNL     1       1.759   9.688  18.635  0.00  0.00    +0.000 A 
ATOM     10  O   UNL     1       2.114   9.971  17.488  0.00  0.00    +0.000 OA
ATOM     11  C   UNL     1       3.479   7.309  17.307  0.00  0.00    +0.000 C 
ATOM     12  C   UNL     1       4.374   6.075  17.154  0.00  0.00    +0.000 C 
ATOM     13  C   UNL     1       3.635   4.791  17.557  0.00  0.00    +0.000 C 
ATOM     14  C   UNL     1       3.197   4.824  19.033  0.00  0.00    +0.000 C 
ENDROOT
BRANCH   2  15
ATOM     15  C   UNL     1      -0.491  10.895  21.525  0.00  0.00    +0.000 C 
ATOM     16  C   UNL     1      -0.414  11.961  22.333  0.00  0.00    +0.000 C 
BRANCH  16  17
ATOM     17  C   UNL     1      -1.553  12.563  23.075  0.00  0.00    +0.000 A 
ATOM     18  C   UNL     1      -2.761  11.909  23.355  0.00  0.00    +0.000 A 
ATOM     19  C   UNL     1      -3.790  12.566  24.039  0.00  0.00    +0.000 A 
ATOM     20  C   UNL     1      -3.628  13.880  24.475  0.00  0.00    +0.000 A 
ATOM     21  C   UNL     1      -2.423  14.531  24.239  0.00  0.00    +0.000 A 
ATOM     22  C   UNL     1      -1.395  13.877  23.552  0.00  0.00    +0.000 A 
ENDBRANCH  16  17
ENDBRANCH   2  15
BRANCH   1  23
ATOM     23  C   UNL     1       0.789  11.879  18.761  0.00  0.00    +0.000 C 
BRANCH  23  25
ATOM     24  O   UNL     1      -1.426  12.874  18.914  0.00  0.00    +0.000 OA
ATOM     25  C   UNL     1      -0.719  12.003  18.407  0.00  0.00    +0.000 C 
BRANCH  25  26
ATOM     26  O   UNL     1      -1.242  11.142  17.510  0.00  0.00    +0.000 OA
ATOM     27  H   UNL     1      -0.760  11.044  16.666  0.00  0.00    +0.000 HD
ENDBRANCH  25  26
ENDBRANCH  23  25
BRANCH  23  28
ATOM     28  C   UNL     1       1.463  13.038  19.525  0.00  0.00    +0.000 C 
BRANCH  28  29
ATOM     29  C   UNL     1       1.846  14.309  18.800  0.00  0.00    +0.000 A 
ATOM     30  C   UNL     1       3.040  14.289  18.056  0.00  0.00    +0.000 A 
ATOM     31  C   UNL     1       3.564  15.456  17.503  0.00  0.00    +0.000 A 
ATOM     32  C   UNL     1       2.887  16.659  17.664  0.00  0.00    +0.000 A 
ATOM     33  C   UNL     1       1.661  16.680  18.329  0.00  0.00    +0.000 A 
ATOM     34  C   UNL     1       1.131  15.509  18.879  0.00  0.00    +0.000 A 
ENDBRANCH  28  29
ENDBRANCH  23  28
ENDBRANCH   1  23
TORSDOF 7
ENDMDL
MODEL 2
REMARK VINA RESULT:      -7.8      0.210      1.022
REMARK  Name = 
REMARK  7 active torsions:
REMARK  status: ('A' for Active; 'I' for Inactive)
REMARK    1  A    between atoms: C_2  and  O_3
REMARK    2  A    between atoms: C_2  and  C_4
REMARK    3  A    between atoms: C_4  and  C_5
REMARK    4  A    between atoms: C_4  and  N_12
REMARK    5  A    between atoms: C_5  and  C_6
REMARK    6  A    between atoms: C_13  and  C_14
REMARK    7  A    between atoms: C_15  and  C_16
REMARK                            x       y       z     vdW  Elec       q    Type
REMARK                         _______ _______ _______ _____ _____    ______ ____
ROOT
ATOM      1  N   UNL     1       1.017  10.731  19.549  0.00  0.00    +0.000 N 
ATOM      2  C   UNL     1       0.407  10.233  20.702  0.00  0.00    +0.000 A 
ATOM      3  N   UNL     1       0.547   8.993  21.116  0.00  0.00    +0.000 NA
ATOM      4  C   UNL     1       1.313   8.173  20.368  0.00  0.00    +0.000 A 
ATOM      5  S   UNL     1       1.559   6.523  20.747  0.00  0.00    +0.000 S 
ATOM      6  C   UNL     1       2.516   6.280  19.356  0.00  0.00    +0.000 A 
ATOM      7  C   UNL     1       2.669   7.440  18.618  0.00  0.00    +0.000 A 
ATOM      8  C   UNL     1       1.938   8.516  19.203  0.00  0.00    +0.000 A 
ATOM      9  C   UNL     1       1.741   9.848  18.710  0.00  0.00    +0.000 A 
ATOM     10  O   UNL     1       2.113  10.156  17.575  0.00  0.00    +0.000 OA
ATOM     11  C   UNL     1       3.457   7.487  17.343  0.00  0.00    +0.000 C 
ATOM     12  C   UNL     1       4.342   6.249  17.171  0.00  0.00    +0.000 C 
ATOM     13  C   UNL     1       3.587   4.962  17.531  0.00  0.00    +0.000 C 
ATOM     14  C   UNL     1       3.130   4.961  19.002  0.00  0.00    +0.000 C 
ENDROOT
BRANCH   2  15
ATOM     15  C   UNL     1      -0.537  11.000  21.601  0.00  0.00    +0.000 C 
ATOM     16  C   UNL     1      -0.501  12.130  22.322  0.00  0.00    +0.000 C 
BRANCH  16  17
ATOM     17  C   UNL     1      -1.638  12.690  23.100  0.00  0.00    +0.000 A 
ATOM     18  C   UNL     1      -2.841  12.018  23.357  0.00  0.00    +0.000 A 
ATOM     19  C   UNL     1      -3.867  12.635  24.079  0.00  0.00    +0.000 A 
ATOM     20  C   UNL     1      -3.709  13.928  24.576  0.00  0.00    +0.000 A 
ATOM     21  C   UNL     1      -2.509  14.595  24.362  0.00  0.00    +0.000 A 
ATOM     22  C   UNL     1      -1.483  13.980  23.637  0.00  0.00    +0.000 A 
ENDBRANCH  16  17
ENDBRANCH   2  15
BRANCH   1  23
ATOM     23  C   UNL     1       0.789  12.043  18.879  0.00  0.00    +0.000 C 
BRANCH  23  25
ATOM     24  O   UNL     1      -1.290  11.313  17.848  0.00  0.00    +0.000 OA
ATOM     25  C   UNL     1      -0.711  12.184  18.497  0.00  0.00    +0.000 C 
BRANCH  25  26
ATOM     26  O   UNL     1      -1.380  13.279  18.909  0.00  0.00    +0.000 OA
ATOM     27  H   UNL     1      -1.780  13.835  18.212  0.00  0.00    +0.000 HD
ENDBRANCH  25  26
ENDBRANCH  23  25
BRANCH  23  28
ATOM     28  C   UNL     1       1.451  13.178  19.689  0.00  0.00    +0.000 C 
BRANCH  28  29
ATOM     29  C   UNL     1       2.105  14.342  18.979  0.00  0.00    +0.000 A 
ATOM     30  C   UNL     1       1.440  15.581  19.031  0.00  0.00    +0.000 A 
ATOM     31  C   UNL     1       1.869  16.662  18.263  0.00  0.00    +0.000 A 
ATOM     32  C   UNL     1       2.989  16.529  17.451  0.00  0.00    +0.000 A 
ATOM     33  C   UNL     1       3.706  15.332  17.451  0.00  0.00    +0.000 A 
ATOM     34  C   UNL     1       3.280  14.248  18.225  0.00  0.00    +0.000 A 
ENDBRANCH  28  29
ENDBRANCH  23  28
ENDBRANCH   1  23
TORSDOF 7
ENDMDL
MODEL 3
REMARK VINA RESULT:      -7.8      1.660      3.364
REMARK  Name = 
REMARK  7 active torsions:
REMARK  status: ('A' for Active; 'I' for Inactive)
REMARK    1  A    between atoms: C_2  and  O_3
REMARK    2  A    between atoms: C_2  and  C_4
REMARK    3  A    between atoms: C_4  and  C_5
REMARK    4  A    between atoms: C_4  and  N_12
REMARK    5  A    between atoms: C_5  and  C_6
REMARK    6  A    between atoms: C_13  and  C_14
REMARK    7  A    between atoms: C_15  and  C_16
REMARK                            x       y       z     vdW  Elec       q    Type
REMARK                         _______ _______ _______ _____ _____    ______ ____
ROOT
ATOM      1  N   UNL     1       0.951  10.693  19.591  0.00  0.00    +0.000 N 
ATOM      2  C   UNL     1       0.372  10.202  20.762  0.00  0.00    +0.000 A 
ATOM      3  N   UNL     1       0.537   8.968  21.188  0.00  0.00    +0.000 NA
ATOM      4  C   UNL     1       1.299   8.151  20.435  0.00  0.00    +0.000 A 
ATOM      5  S   UNL     1       1.575   6.509  20.828  0.00  0.00    +0.000 S 
ATOM      6  C   UNL     1       2.508   6.262  19.420  0.00  0.00    +0.000 A 
ATOM      7  C   UNL     1       2.629   7.414  18.666  0.00  0.00    +0.000 A 
ATOM      8  C   UNL     1       1.896   8.488  19.253  0.00  0.00    +0.000 A 
ATOM      9  C   UNL     1       1.670   9.810  18.748  0.00  0.00    +0.000 A 
ATOM     10  O   UNL     1       2.016  10.110  17.603  0.00  0.00    +0.000 OA
ATOM     11  C   UNL     1       3.391   7.457  17.375  0.00  0.00    +0.000 C 
ATOM     12  C   UNL     1       4.290   6.229  17.199  0.00  0.00    +0.000 C 
ATOM     13  C   UNL     1       3.560   4.937  17.590  0.00  0.00    +0.000 C 
ATOM     14  C   UNL     1       3.133   4.947  19.070  0.00  0.00    +0.000 C 
ENDROOT
BRANCH   2  15
ATOM     15  C   UNL     1      -0.564  10.967  21.671  0.00  0.00    +0.000 C 
ATOM     16  C   UNL     1      -0.580  12.161  22.279  0.00  0.00    +0.000 C 
BRANCH  16  17
ATOM     17  C   UNL     1      -1.697  12.692  23.105  0.00  0.00    +0.000 A 
ATOM     18  C   UNL     1      -2.872  11.990  23.408  0.00  0.00    +0.000 A 
ATOM     19  C   UNL     1      -3.883  12.581  24.173  0.00  0.00    +0.000 A 
ATOM     20  C   UNL     1      -3.735  13.876  24.668  0.00  0.00    +0.000 A 
ATOM     21  C   UNL     1      -2.561  14.573  24.408  0.00  0.00    +0.000 A 
ATOM     22  C   UNL     1      -1.551  13.984  23.640  0.00  0.00    +0.000 A 
ENDBRANCH  16  17
ENDBRANCH   2  15
BRANCH   1  23
ATOM     23  C   UNL     1       0.691  11.994  18.911  0.00  0.00    +0.000 C 
BRANCH  23  25
ATOM     24  O   UNL     1       2.723  13.162  19.567  0.00  0.00    +0.000 OA
ATOM     25  C   UNL     1       2.038  12.724  18.643  0.00  0.00    +0.000 C 
BRANCH  25  26
ATOM     26  O   UNL     1       2.456  12.854  17.368  0.00  0.00    +0.000 OA
ATOM     27  H   UNL     1       2.123  12.193  16.729  0.00  0.00    +0.000 HD
ENDBRANCH  25  26
ENDBRANCH  23  25
BRANCH  23  28
ATOM     28  C   UNL     1      -0.285  11.796  17.732  0.00  0.00    +0.000 C 
BRANCH  28  29
ATOM     29  C   UNL     1      -1.706  11.345  17.986  0.00  0.00    +0.000 A 
ATOM     30  C   UNL     1      -2.107  10.129  17.403  0.00  0.00    +0.000 A 
ATOM     31  C   UNL     1      -3.439   9.720  17.432  0.00  0.00    +0.000 A 
ATOM     32  C   UNL     1      -4.388  10.510  18.069  0.00  0.00    +0.000 A 
ATOM     33  C   UNL     1      -3.992  11.678  18.722  0.00  0.00    +0.000 A 
ATOM     34  C   UNL     1      -2.655  12.086  18.699  0.00  0.00    +0.000 A 
ENDBRANCH  28  29
ENDBRANCH  23  28
ENDBRANCH   1  23
TORSDOF 7
ENDMDL
MODEL 4
REMARK VINA RESULT:      -7.5      0.898      1.326
REMARK  Name = 
REMARK  7 active torsions:
REMARK  status: ('A' for Active; 'I' for Inactive)
REMARK    1  A    between atoms: C_2  and  O_3
REMARK    2  A    between atoms: C_2  and  C_4
REMARK    3  A    between atoms: C_4  and  C_5
REMARK    4  A    between atoms: C_4  and  N_12
REMARK    5  A    between atoms: C_5  and  C_6
REMARK    6  A    between atoms: C_13  and  C_14
REMARK    7  A    between atoms: C_15  and  C_16
REMARK                            x       y       z     vdW  Elec       q    Type
REMARK                         _______ _______ _______ _____ _____    ______ ____
ROOT
ATOM      1  N   UNL     1       0.774  10.654  19.368  0.00  0.00    +0.000 N 
ATOM      2  C   UNL     1       0.289  10.229  20.605  0.00  0.00    +0.000 A 
ATOM      3  N   UNL     1       0.567   9.054  21.127  0.00  0.00    +0.000 NA
ATOM      4  C   UNL     1       1.355   8.230  20.408  0.00  0.00    +0.000 A 
ATOM      5  S   UNL     1       1.774   6.654  20.926  0.00  0.00    +0.000 S 
ATOM      6  C   UNL     1       2.658   6.350  19.498  0.00  0.00    +0.000 A 
ATOM      7  C   UNL     1       2.656   7.436  18.642  0.00  0.00    +0.000 A 
ATOM      8  C   UNL     1       1.870   8.502  19.172  0.00  0.00    +0.000 A 
ATOM      9  C   UNL     1       1.520   9.754  18.568  0.00  0.00    +0.000 A 
ATOM     10  O   UNL     1       1.789   9.975  17.384  0.00  0.00    +0.000 OA
ATOM     11  C   UNL     1       3.352   7.418  17.314  0.00  0.00    +0.000 C 
ATOM     12  C   UNL     1       4.334   6.248  17.198  0.00  0.00    +0.000 C 
ATOM     13  C   UNL     1       3.724   4.946  17.736  0.00  0.00    +0.000 C 
ATOM     14  C   UNL     1       3.365   5.058  19.229  0.00  0.00    +0.000 C 
ENDROOT
BRANCH   2  15
ATOM     15  C   UNL     1      -0.661  11.003  21.493  0.00  0.00    +0.000 C 
ATOM     16  C   UNL     1      -0.565  11.921  22.465  0.00  0.00    +0.000 C 
BRANCH  16  17
ATOM     17  C   UNL     1      -1.713  12.569  23.153  0.00  0.00    +0.000 A 
ATOM     18  C   UNL     1      -2.931  11.939  23.444  0.00  0.00    +0.000 A 
ATOM     19  C   UNL     1      -3.966  12.637  24.074  0.00  0.00    +0.000 A 
ATOM     20  C   UNL     1      -3.802  13.971  24.444  0.00  0.00    +0.000 A 
ATOM     21  C   UNL     1      -2.588  14.600  24.197  0.00  0.00    +0.000 A 
ATOM     22  C   UNL     1      -1.553  13.904  23.564  0.00  0.00    +0.000 A 
ENDBRANCH  16  17
ENDBRANCH   2  15
BRANCH   1  23
ATOM     23  C   UNL     1       0.385  11.867  18.593  0.00  0.00    +0.000 C 
BRANCH  23  25
ATOM     24  O   UNL     1      -1.495  10.661  17.627  0.00  0.00    +0.000 OA
ATOM     25  C   UNL     1      -1.080  11.722  18.093  0.00  0.00    +0.000 C 
BRANCH  25  26
ATOM     26  O   UNL     1      -1.903  12.785  18.197  0.00  0.00    +0.000 OA
ATOM     27  H   UNL     1      -2.861  12.603  18.133  0.00  0.00    +0.000 HD
ENDBRANCH  25  26
ENDBRANCH  23  25
BRANCH  23  28
ATOM     28  C   UNL     1       0.775  13.144  19.367  0.00  0.00    +0.000 C 
BRANCH  28  29
ATOM     29  C   UNL     1       2.203  13.641  19.349  0.00  0.00    +0.000 A 
ATOM     30  C   UNL     1       2.808  13.901  20.593  0.00  0.00    +0.000 A 
ATOM     31  C   UNL     1       4.051  14.526  20.673  0.00  0.00    +0.000 A 
ATOM     32  C   UNL     1       4.722  14.877  19.508  0.00  0.00    +0.000 A 
ATOM     33  C   UNL     1       4.173  14.552  18.268  0.00  0.00    +0.000 A 
ATOM     34  C   UNL     1       2.928  13.919  18.185  0.00  0.00    +0.000 A 
ENDBRANCH  28  29
ENDBRANCH  23  28
ENDBRANCH   1  23
TORSDOF 7
ENDMDL
MODEL 5
REMARK VINA RESULT:      -7.4      1.271      1.737
REMARK  Name = 
REMARK  7 active torsions:
REMARK  status: ('A' for Active; 'I' for Inactive)
REMARK    1  A    between atoms: C_2  and  O_3
REMARK    2  A    between atoms: C_2  and  C_4
REMARK    3  A    between atoms: C_4  and  C_5
REMARK    4  A    between atoms: C_4  and  N_12
REMARK    5  A    between atoms: C_5  and  C_6
REMARK    6  A    between atoms: C_13  and  C_14
REMARK    7  A    between atoms: C_15  and  C_16
REMARK                            x       y       z     vdW  Elec       q    Type
REMARK                         _______ _______ _______ _____ _____    ______ ____
ROOT
ATOM      1  N   UNL     1       0.584  10.958  19.466  0.00  0.00    +0.000 N 
ATOM      2  C   UNL     1       0.067  10.526  20.688  0.00  0.00    +0.000 A 
ATOM      3  N   UNL     1       0.318   9.341  21.202  0.00  0.00    +0.000 NA
ATOM      4  C   UNL     1       1.110   8.514  20.490  0.00  0.00    +0.000 A 
ATOM      5  S   UNL     1       1.496   6.927  20.998  0.00  0.00    +0.000 S 
ATOM      6  C   UNL     1       2.406   6.627  19.586  0.00  0.00    +0.000 A 
ATOM      7  C   UNL     1       2.437   7.723  18.743  0.00  0.00    +0.000 A 
ATOM      8  C   UNL     1       1.654   8.793  19.268  0.00  0.00    +0.000 A 
ATOM      9  C   UNL     1       1.334  10.056  18.671  0.00  0.00    +0.000 A 
ATOM     10  O   UNL     1       1.631  10.286  17.496  0.00  0.00    +0.000 OA
ATOM     11  C   UNL     1       3.160   7.710  17.429  0.00  0.00    +0.000 C 
ATOM     12  C   UNL     1       4.129   6.527  17.320  0.00  0.00    +0.000 C 
ATOM     13  C   UNL     1       3.490   5.228  17.830  0.00  0.00    +0.000 C 
ATOM     14  C   UNL     1       3.101   5.329  19.317  0.00  0.00    +0.000 C 
ENDROOT
BRANCH   2  15
ATOM     15  C   UNL     1      -0.891  11.302  21.565  0.00  0.00    +0.000 C 
ATOM     16  C   UNL     1      -0.837  11.960  22.731  0.00  0.00    +0.000 C 
BRANCH  16  17
ATOM     17  C   UNL     1      -1.965  12.702  23.354  0.00  0.00    +0.000 A 
ATOM     18  C   UNL     1      -3.247  12.177  23.569  0.00  0.00    +0.000 A 
ATOM     19  C   UNL     1      -4.255  12.960  24.140  0.00  0.00    +0.000 A 
ATOM     20  C   UNL     1      -4.002  14.275  24.526  0.00  0.00    +0.000 A 
ATOM     21  C   UNL     1      -2.727  14.800  24.355  0.00  0.00    +0.000 A 
ATOM     22  C   UNL     1      -1.718  14.019  23.781  0.00  0.00    +0.000 A 
ENDBRANCH  16  17
ENDBRANCH   2  15
BRANCH   1  23
ATOM     23  C   UNL     1       0.227  12.185  18.697  0.00  0.00    +0.000 C 
BRANCH  23  25
ATOM     24  O   UNL     1      -2.151  11.706  18.888  0.00  0.00    +0.000 OA
ATOM     25  C   UNL     1      -1.226  12.063  18.158  0.00  0.00    +0.000 C 
BRANCH  25  26
ATOM     26  O   UNL     1      -1.462  12.376  16.869  0.00  0.00    +0.000 OA
ATOM     27  H   UNL     1      -0.957  13.128  16.503  0.00  0.00    +0.000 HD
ENDBRANCH  25  26
ENDBRANCH  23  25
BRANCH  23  28
ATOM     28  C   UNL     1       0.612  13.447  19.497  0.00  0.00    +0.000 C 
BRANCH  28  29
ATOM     29  C   UNL     1      -0.282  14.667  19.475  0.00  0.00    +0.000 A 
ATOM     30  C   UNL     1      -0.019  15.638  18.491  0.00  0.00    +0.000 A 
ATOM     31  C   UNL     1      -0.669  16.870  18.502  0.00  0.00    +0.000 A 
ATOM     32  C   UNL     1      -1.616  17.141  19.484  0.00  0.00    +0.000 A 
ATOM     33  C   UNL     1      -1.946  16.157  20.417  0.00  0.00    +0.000 A 
ATOM     34  C   UNL     1      -1.298  14.918  20.403  0.00  0.00    +0.000 A 
ENDBRANCH  28  29
ENDBRANCH  23  28
ENDBRANCH   1  23
TORSDOF 7
ENDMDL
MODEL 6
REMARK VINA RESULT:      -7.3      0.925      1.497
REMARK  Name = 
REMARK  7 active torsions:
REMARK  status: ('A' for Active; 'I' for Inactive)
REMARK    1  A    between atoms: C_2  and  O_3
REMARK    2  A    between atoms: C_2  and  C_4
REMARK    3  A    between atoms: C_4  and  C_5
REMARK    4  A    between atoms: C_4  and  N_12
REMARK    5  A    between atoms: C_5  and  C_6
REMARK    6  A    between atoms: C_13  and  C_14
REMARK    7  A    between atoms: C_15  and  C_16
REMARK                            x       y       z     vdW  Elec       q    Type
REMARK                         _______ _______ _______ _____ _____    ______ ____
ROOT
ATOM      1  N   UNL     1       0.679  10.720  19.358  0.00  0.00    +0.000 N 
ATOM      2  C   UNL     1       0.199  10.355  20.616  0.00  0.00    +0.000 A 
ATOM      3  N   UNL     1       0.473   9.203  21.189  0.00  0.00    +0.000 NA
ATOM      4  C   UNL     1       1.250   8.341  20.504  0.00  0.00    +0.000 A 
ATOM      5  S   UNL     1       1.661   6.787  21.091  0.00  0.00    +0.000 S 
ATOM      6  C   UNL     1       2.533   6.412  19.672  0.00  0.00    +0.000 A 
ATOM      7  C   UNL     1       2.532   7.458  18.768  0.00  0.00    +0.000 A 
ATOM      8  C   UNL     1       1.758   8.552  19.253  0.00  0.00    +0.000 A 
ATOM      9  C   UNL     1       1.413   9.778  18.595  0.00  0.00    +0.000 A 
ATOM     10  O   UNL     1       1.675   9.942  17.401  0.00  0.00    +0.000 OA
ATOM     11  C   UNL     1       3.219   7.374  17.437  0.00  0.00    +0.000 C 
ATOM     12  C   UNL     1       4.192   6.191  17.368  0.00  0.00    +0.000 C 
ATOM     13  C   UNL     1       3.576   4.921  17.969  0.00  0.00    +0.000 C 
ATOM     14  C   UNL     1       3.229   5.104  19.459  0.00  0.00    +0.000 C 
ENDROOT
BRANCH   2  15
ATOM     15  C   UNL     1      -0.739  11.176  21.474  0.00  0.00    +0.000 C 
ATOM     16  C   UNL     1      -0.728  11.707  22.705  0.00  0.00    +0.000 C 
BRANCH  16  17
ATOM     17  C   UNL     1      -1.810  12.542  23.291  0.00  0.00    +0.000 A 
ATOM     18  C   UNL     1      -1.703  13.912  23.567  0.00  0.00    +0.000 A 
ATOM     19  C   UNL     1      -2.768  14.612  24.144  0.00  0.00    +0.000 A 
ATOM     20  C   UNL     1      -3.967  13.965  24.440  0.00  0.00    +0.000 A 
ATOM     21  C   UNL     1      -4.103  12.615  24.139  0.00  0.00    +0.000 A 
ATOM     22  C   UNL     1      -3.038  11.913  23.565  0.00  0.00    +0.000 A 
ENDBRANCH  16  17
ENDBRANCH   2  15
BRANCH   1  23
ATOM     23  C   UNL     1       0.293  11.898  18.530  0.00  0.00    +0.000 C 
BRANCH  23  25
ATOM     24  O   UNL     1      -2.096  12.359  18.491  0.00  0.00    +0.000 OA
ATOM     25  C   UNL     1      -1.161  11.720  18.009  0.00  0.00    +0.000 C 
BRANCH  25  26
ATOM     26  O   UNL     1      -1.379  10.860  16.995  0.00  0.00    +0.000 OA
ATOM     27  H   UNL     1      -0.670  10.212  16.811  0.00  0.00    +0.000 HD
ENDBRANCH  25  26
ENDBRANCH  23  25
BRANCH  23  28
ATOM     28  C   UNL     1       0.657  13.207  19.263  0.00  0.00    +0.000 C 
BRANCH  28  29
ATOM     29  C   UNL     1       2.091  13.683  19.310  0.00  0.00    +0.000 A 
ATOM     30  C   UNL     1       2.646  13.925  20.580  0.00  0.00    +0.000 A 
ATOM     31  C   UNL     1       3.893  14.531  20.718  0.00  0.00    +0.000 A 
ATOM     32  C   UNL     1       4.619  14.879  19.585  0.00  0.00    +0.000 A 
ATOM     33  C   UNL     1       4.119  14.571  18.320  0.00  0.00    +0.000 A 
ATOM     34  C   UNL     1       2.870  13.958  18.180  0.00  0.00    +0.000 A 
ENDBRANCH  28  29
ENDBRANCH  23  28
ENDBRANCH   1  23
TORSDOF 7
ENDMDL
MODEL 7
REMARK VINA RESULT:      -7.3      1.212      1.961
REMARK  Name = 
REMARK  7 active torsions:
REMARK  status: ('A' for Active; 'I' for Inactive)
REMARK    1  A    between atoms: C_2  and  O_3
REMARK    2  A    between atoms: C_2  and  C_4
REMARK    3  A    between atoms: C_4  and  C_5
REMARK    4  A    between atoms: C_4  and  N_12
REMARK    5  A    between atoms: C_5  and  C_6
REMARK    6  A    between atoms: C_13  and  C_14
REMARK    7  A    between atoms: C_15  and  C_16
REMARK                            x       y       z     vdW  Elec       q    Type
REMARK                         _______ _______ _______ _____ _____    ______ ____
ROOT
ATOM      1  N   UNL     1       0.662  11.101  19.567  0.00  0.00    +0.000 N 
ATOM      2  C   UNL     1       0.108  10.635  20.760  0.00  0.00    +0.000 A 
ATOM      3  N   UNL     1       0.314   9.423  21.228  0.00  0.00    +0.000 NA
ATOM      4  C   UNL     1       1.095   8.602  20.497  0.00  0.00    +0.000 A 
ATOM      5  S   UNL     1       1.424   6.984  20.947  0.00  0.00    +0.000 S 
ATOM      6  C   UNL     1       2.352   6.715  19.540  0.00  0.00    +0.000 A 
ATOM      7  C   UNL     1       2.432   7.843  18.744  0.00  0.00    +0.000 A 
ATOM      8  C   UNL     1       1.671   8.914  19.299  0.00  0.00    +0.000 A 
ATOM      9  C   UNL     1       1.401  10.210  18.749  0.00  0.00    +0.000 A 
ATOM     10  O   UNL     1       1.727  10.479  17.591  0.00  0.00    +0.000 OA
ATOM     11  C   UNL     1       3.180   7.862  17.445  0.00  0.00    +0.000 C 
ATOM     12  C   UNL     1       4.115   6.655  17.304  0.00  0.00    +0.000 C 
ATOM     13  C   UNL     1       3.428   5.357  17.748  0.00  0.00    +0.000 C 
ATOM     14  C   UNL     1       3.013   5.408  19.230  0.00  0.00    +0.000 C 
ENDROOT
BRANCH   2  15
ATOM     15  C   UNL     1      -0.843  11.403  21.650  0.00  0.00    +0.000 C 
ATOM     16  C   UNL     1      -0.748  12.297  22.645  0.00  0.00    +0.000 C 
BRANCH  16  17
ATOM     17  C   UNL     1      -1.896  12.948  23.330  0.00  0.00    +0.000 A 
ATOM     18  C   UNL     1      -1.875  14.240  23.874  0.00  0.00    +0.000 A 
ATOM     19  C   UNL     1      -2.998  14.762  24.524  0.00  0.00    +0.000 A 
ATOM     20  C   UNL     1      -4.170  14.015  24.628  0.00  0.00    +0.000 A 
ATOM     21  C   UNL     1      -4.221  12.747  24.061  0.00  0.00    +0.000 A 
ATOM     22  C   UNL     1      -3.097  12.222  23.414  0.00  0.00    +0.000 A 
ENDBRANCH  16  17
ENDBRANCH   2  15
BRANCH   1  23
ATOM     23  C   UNL     1       0.357  12.368  18.843  0.00  0.00    +0.000 C 
BRANCH  23  25
ATOM     24  O   UNL     1      -2.055  12.108  19.021  0.00  0.00    +0.000 OA
ATOM     25  C   UNL     1      -1.092  12.318  18.284  0.00  0.00    +0.000 C 
BRANCH  25  26
ATOM     26  O   UNL     1      -1.281  12.530  16.966  0.00  0.00    +0.000 OA
ATOM     27  H   UNL     1      -1.073  11.784  16.369  0.00  0.00    +0.000 HD
ENDBRANCH  25  26
ENDBRANCH  23  25
BRANCH  23  28
ATOM     28  C   UNL     1       0.775  13.585  19.696  0.00  0.00    +0.000 C 
BRANCH  28  29
ATOM     29  C   UNL     1       0.079  14.916  19.521  0.00  0.00    +0.000 A 
ATOM     30  C   UNL     1      -0.905  15.255  20.467  0.00  0.00    +0.000 A 
ATOM     31  C   UNL     1      -1.720  16.371  20.290  0.00  0.00    +0.000 A 
ATOM     32  C   UNL     1      -1.546  17.183  19.176  0.00  0.00    +0.000 A 
ATOM     33  C   UNL     1      -0.520  16.905  18.271  0.00  0.00    +0.000 A 
ATOM     34  C   UNL     1       0.302  15.788  18.450  0.00  0.00    +0.000 A 
ENDBRANCH  28  29
ENDBRANCH  23  28
ENDBRANCH   1  23
TORSDOF 7
ENDMDL
MODEL 8
REMARK VINA RESULT:      -7.2      3.229      7.499
REMARK  Name = 
REMARK  7 active torsions:
REMARK  status: ('A' for Active; 'I' for Inactive)
REMARK    1  A    between atoms: C_2  and  O_3
REMARK    2  A    between atoms: C_2  and  C_4
REMARK    3  A    between atoms: C_4  and  C_5
REMARK    4  A    between atoms: C_4  and  N_12
REMARK    5  A    between atoms: C_5  and  C_6
REMARK    6  A    between atoms: C_13  and  C_14
REMARK    7  A    between atoms: C_15  and  C_16
REMARK                            x       y       z     vdW  Elec       q    Type
REMARK                         _______ _______ _______ _____ _____    ______ ____
ROOT
ATOM      1  N   UNL     1      -1.063  11.459  20.268  0.00  0.00    +0.000 N 
ATOM      2  C   UNL     1      -1.005  10.508  19.249  0.00  0.00    +0.000 A 
ATOM      3  N   UNL     1      -1.966  10.332  18.368  0.00  0.00    +0.000 NA
ATOM      4  C   UNL     1      -3.058  11.113  18.479  0.00  0.00    +0.000 A 
ATOM      5  S   UNL     1      -4.411  10.980  17.440  0.00  0.00    +0.000 S 
ATOM      6  C   UNL     1      -5.257  12.200  18.280  0.00  0.00    +0.000 A 
ATOM      7  C   UNL     1      -4.519  12.722  19.327  0.00  0.00    +0.000 A 
ATOM      8  C   UNL     1      -3.263  12.057  19.446  0.00  0.00    +0.000 A 
ATOM      9  C   UNL     1      -2.250  12.213  20.447  0.00  0.00    +0.000 A 
ATOM     10  O   UNL     1      -2.460  12.902  21.448  0.00  0.00    +0.000 OA
ATOM     11  C   UNL     1      -5.045  13.800  20.227  0.00  0.00    +0.000 C 
ATOM     12  C   UNL     1      -6.285  14.483  19.639  0.00  0.00    +0.000 C 
ATOM     13  C   UNL     1      -7.266  13.458  19.052  0.00  0.00    +0.000 C 
ATOM     14  C   UNL     1      -6.632  12.656  17.901  0.00  0.00    +0.000 C 
ENDROOT
BRANCH   2  15
ATOM     15  C   UNL     1       0.112   9.509  19.037  0.00  0.00    +0.000 C 
ATOM     16  C   UNL     1       1.201   9.409  18.262  0.00  0.00    +0.000 C 
BRANCH  16  17
ATOM     17  C   UNL     1       2.186   8.296  18.303  0.00  0.00    +0.000 A 
ATOM     18  C   UNL     1       3.206   8.095  17.362  0.00  0.00    +0.000 A 
ATOM     19  C   UNL     1       4.073   7.003  17.468  0.00  0.00    +0.000 A 
ATOM     20  C   UNL     1       3.954   6.100  18.523  0.00  0.00    +0.000 A 
ATOM     21  C   UNL     1       2.973   6.305  19.485  0.00  0.00    +0.000 A 
ATOM     22  C   UNL     1       2.103   7.395  19.379  0.00  0.00    +0.000 A 
ENDBRANCH  16  17
ENDBRANCH   2  15
BRANCH   1  23
ATOM     23  C   UNL     1      -0.139  11.626  21.426  0.00  0.00    +0.000 C 
BRANCH  23  25
ATOM     24  O   UNL     1       0.367   9.476  22.446  0.00  0.00    +0.000 OA
ATOM     25  C   UNL     1      -0.357  10.471  22.443  0.00  0.00    +0.000 C 
BRANCH  25  26
ATOM     26  O   UNL     1      -1.353  10.587  23.344  0.00  0.00    +0.000 OA
ATOM     27  H   UNL     1      -2.172  10.088  23.157  0.00  0.00    +0.000 HD
ENDBRANCH  25  26
ENDBRANCH  23  25
BRANCH  23  28
ATOM     28  C   UNL     1       1.295  11.908  20.929  0.00  0.00    +0.000 C 
BRANCH  28  29
ATOM     29  C   UNL     1       1.579  13.112  20.061  0.00  0.00    +0.000 A 
ATOM     30  C   UNL     1       2.275  12.887  18.859  0.00  0.00    +0.000 A 
ATOM     31  C   UNL     1       2.737  13.949  18.083  0.00  0.00    +0.000 A 
ATOM     32  C   UNL     1       2.484  15.256  18.484  0.00  0.00    +0.000 A 
ATOM     33  C   UNL     1       1.724  15.494  19.629  0.00  0.00    +0.000 A 
ATOM     34  C   UNL     1       1.256  14.429  20.406  0.00  0.00    +0.000 A 
ENDBRANCH  28  29
ENDBRANCH  23  28
ENDBRANCH   1  23
TORSDOF 7
ENDMDL
MODEL 9
REMARK VINA RESULT:      -7.2      0.905      1.241
REMARK  Name = 
REMARK  7 active torsions:
REMARK  status: ('A' for Active; 'I' for Inactive)
REMARK    1  A    between atoms: C_2  and  O_3
REMARK    2  A    between atoms: C_2  and  C_4
REMARK    3  A    between atoms: C_4  and  C_5
REMARK    4  A    between atoms: C_4  and  N_12
REMARK    5  A    between atoms: C_5  and  C_6
REMARK    6  A    between atoms: C_13  and  C_14
REMARK    7  A    between atoms: C_15  and  C_16
REMARK                            x       y       z     vdW  Elec       q    Type
REMARK                         _______ _______ _______ _____ _____    ______ ____
ROOT
ATOM      1  N   UNL     1       0.468  10.580  19.296  0.00  0.00    +0.000 N 
ATOM      2  C   UNL     1      -0.135  10.077  20.449  0.00  0.00    +0.000 A 
ATOM      3  N   UNL     1       0.170   8.910  20.976  0.00  0.00    +0.000 NA
ATOM      4  C   UNL     1       1.109   8.175  20.347  0.00  0.00    +0.000 A 
ATOM      5  S   UNL     1       1.587   6.621  20.879  0.00  0.00    +0.000 S 
ATOM      6  C   UNL     1       2.668   6.436  19.572  0.00  0.00    +0.000 A 
ATOM      7  C   UNL     1       2.686   7.546  18.748  0.00  0.00    +0.000 A 
ATOM      8  C   UNL     1       1.754   8.528  19.195  0.00  0.00    +0.000 A 
ATOM      9  C   UNL     1       1.382   9.768  18.580  0.00  0.00    +0.000 A 
ATOM     10  O   UNL     1       1.781  10.049  17.447  0.00  0.00    +0.000 OA
ATOM     11  C   UNL     1       3.546   7.628  17.523  0.00  0.00    +0.000 C 
ATOM     12  C   UNL     1       4.628   6.543  17.508  0.00  0.00    +0.000 C 
ATOM     13  C   UNL     1       4.063   5.180  17.932  0.00  0.00    +0.000 C 
ATOM     14  C   UNL     1       3.508   5.213  19.368  0.00  0.00    +0.000 C 
ENDROOT
BRANCH   2  15
ATOM     15  C   UNL     1      -1.252  10.743  21.223  0.00  0.00    +0.000 C 
ATOM     16  C   UNL     1      -1.362  11.703  22.152  0.00  0.00    +0.000 C 
BRANCH  16  17
ATOM     17  C   UNL     1      -2.640  12.209  22.719  0.00  0.00    +0.000 A 
ATOM     18  C   UNL     1      -2.984  12.172  24.077  0.00  0.00    +0.000 A 
ATOM     19  C   UNL     1      -4.223  12.650  24.517  0.00  0.00    +0.000 A 
ATOM     20  C   UNL     1      -5.136  13.192  23.614  0.00  0.00    +0.000 A 
ATOM     21  C   UNL     1      -4.797  13.271  22.269  0.00  0.00    +0.000 A 
ATOM     22  C   UNL     1      -3.560  12.790  21.828  0.00  0.00    +0.000 A 
ENDBRANCH  16  17
ENDBRANCH   2  15
BRANCH   1  23
ATOM     23  C   UNL     1       0.083  11.784  18.505  0.00  0.00    +0.000 C 
BRANCH  23  25
ATOM     24  O   UNL     1      -1.706  10.692  17.268  0.00  0.00    +0.000 OA
ATOM     25  C   UNL     1      -1.377  11.630  17.994  0.00  0.00    +0.000 C 
BRANCH  25  26
ATOM     26  O   UNL     1      -2.293  12.541  18.379  0.00  0.00    +0.000 OA
ATOM     27  H   UNL     1      -1.951  13.415  18.652  0.00  0.00    +0.000 HD
ENDBRANCH  25  26
ENDBRANCH  23  25
BRANCH  23  28
ATOM     28  C   UNL     1       0.464  13.070  19.269  0.00  0.00    +0.000 C 
BRANCH  28  29
ATOM     29  C   UNL     1       1.539  13.987  18.731  0.00  0.00    +0.000 A 
ATOM     30  C   UNL     1       2.765  13.397  18.373  0.00  0.00    +0.000 A 
ATOM     31  C   UNL     1       3.870  14.179  18.038  0.00  0.00    +0.000 A 
ATOM     32  C   UNL     1       3.756  15.564  18.028  0.00  0.00    +0.000 A 
ATOM     33  C   UNL     1       2.525  16.160  18.301  0.00  0.00    +0.000 A 
ATOM     34  C   UNL     1       1.414  15.377  18.632  0.00  0.00    +0.000 A 
ENDBRANCH  28  29
ENDBRANCH  23  28
ENDBRANCH   1  23
TORSDOF 7
ENDMDL
