MODEL 1
REMARK VINA RESULT:      -8.1      0.000      0.000
REMARK  Name = 
REMARK  4 active torsions:
REMARK  status: ('A' for Active; 'I' for Inactive)
REMARK    1  A    between atoms: N_1  and  S_2
REMARK    2  A    between atoms: S_2  and  C_5
REMARK    3  A    between atoms: C_8  and  C_9
REMARK    4  A    between atoms: C_12  and  C_13
REMARK                            x       y       z     vdW  Elec       q    Type
REMARK                         _______ _______ _______ _____ _____    ______ ____
ROOT
ATOM      1  C   UNL     1       2.503   6.798  19.757  0.00  0.00    +0.000 A 
ATOM      2  N   UNL     1       1.810   6.002  20.588  0.00  0.00    +0.000 NA
ATOM      3  O   UNL     1       0.950   6.873  21.242  0.00  0.00    +0.000 OA
ATOM      4  C   UNL     1       1.197   8.120  20.747  0.00  0.00    +0.000 A 
ATOM      5  N   UNL     1       2.143   8.129  19.832  0.00  0.00    +0.000 NA
ENDROOT
BRANCH   4   6
ATOM      6  C   UNL     1       0.389   9.210  21.284  0.00  0.00    +0.000 A 
ATOM      7  C   UNL     1      -0.003   9.234  22.632  0.00  0.00    +0.000 A 
ATOM      8  C   UNL     1      -0.795  10.273  23.132  0.00  0.00    +0.000 A 
ATOM      9  C   UNL     1      -1.206  11.307  22.290  0.00  0.00    +0.000 A 
ATOM     10 CL   UNL     1      -2.189  12.553  22.972  0.00  0.00    +0.000 Cl
ATOM     11  C   UNL     1      -0.820  11.300  20.946  0.00  0.00    +0.000 A 
ATOM     12 CL   UNL     1      -1.291  12.547  19.845  0.00  0.00    +0.000 Cl
ATOM     13  C   UNL     1      -0.026  10.258  20.449  0.00  0.00    +0.000 A 
ENDBRANCH   4   6
BRANCH   1  17
ATOM     14  C   UNL     1       5.533   5.343  17.132  0.00  0.00    +0.000 A 
ATOM     15  C   UNL     1       4.743   6.424  16.739  0.00  0.00    +0.000 A 
ATOM     16  C   UNL     1       3.755   6.904  17.604  0.00  0.00    +0.000 A 
ATOM     17  C   UNL     1       3.546   6.307  18.861  0.00  0.00    +0.000 A 
ATOM     18  C   UNL     1       4.352   5.222  19.238  0.00  0.00    +0.000 A 
ATOM     19  C   UNL     1       5.342   4.738  18.377  0.00  0.00    +0.000 A 
BRANCH  14  20
ATOM     20  S   UNL     1       6.786   4.734  16.044  0.00  0.00    +0.000 S 
ATOM     21  O   UNL     1       7.394   5.854  15.365  0.00  0.00    +0.000 OA
ATOM     22  O   UNL     1       6.290   3.571  15.348  0.00  0.00    +0.000 OA
BRANCH  20  23
ATOM     23  N   UNL     1       7.936   4.150  17.120  0.00  0.00    +0.000 NA
ATOM     24  H   UNL     1       8.830   4.047  16.639  0.00  0.00    +0.000 HD
ATOM     25  H   UNL     1       7.602   3.287  17.550  0.00  0.00    +0.000 HD
ENDBRANCH  20  23
ENDBRANCH  14  20
ENDBRANCH   1  17
TORSDOF 4
ENDMDL
MODEL 2
REMARK VINA RESULT:      -8.1      0.131      1.009
REMARK  Name = 
REMARK  4 active torsions:
REMARK  status: ('A' for Active; 'I' for Inactive)
REMARK    1  A    between atoms: N_1  and  S_2
REMARK    2  A    between atoms: S_2  and  C_5
REMARK    3  A    between atoms: C_8  and  C_9
REMARK    4  A    between atoms: C_12  and  C_13
REMARK                            x       y       z     vdW  Elec       q    Type
REMARK                         _______ _______ _______ _____ _____    ______ ____
ROOT
ATOM      1  C   UNL     1       2.462   6.739  19.707  0.00  0.00    +0.000 A 
ATOM      2  N   UNL     1       1.780   5.953  20.556  0.00  0.00    +0.000 NA
ATOM      3  O   UNL     1       0.936   6.833  21.217  0.00  0.00    +0.000 OA
ATOM      4  C   UNL     1       1.180   8.075  20.708  0.00  0.00    +0.000 A 
ATOM      5  N   UNL     1       2.110   8.072  19.777  0.00  0.00    +0.000 NA
ENDROOT
BRANCH   4   6
ATOM      6  C   UNL     1       0.385   9.173  21.249  0.00  0.00    +0.000 A 
ATOM      7  C   UNL     1       0.012   9.208  22.602  0.00  0.00    +0.000 A 
ATOM      8  C   UNL     1      -0.767  10.254  23.107  0.00  0.00    +0.000 A 
ATOM      9  C   UNL     1      -1.182  11.287  22.264  0.00  0.00    +0.000 A 
ATOM     10 CL   UNL     1      -2.148  12.542  22.952  0.00  0.00    +0.000 Cl
ATOM     11  C   UNL     1      -0.814  11.270  20.915  0.00  0.00    +0.000 A 
ATOM     12 CL   UNL     1      -1.291  12.513  19.814  0.00  0.00    +0.000 Cl
ATOM     13  C   UNL     1      -0.033  10.219  20.414  0.00  0.00    +0.000 A 
ENDBRANCH   4   6
BRANCH   1  17
ATOM     14  C   UNL     1       5.478   5.287  17.065  0.00  0.00    +0.000 A 
ATOM     15  C   UNL     1       5.130   4.538  18.189  0.00  0.00    +0.000 A 
ATOM     16  C   UNL     1       4.135   5.012  19.049  0.00  0.00    +0.000 A 
ATOM     17  C   UNL     1       3.488   6.236  18.798  0.00  0.00    +0.000 A 
ATOM     18  C   UNL     1       3.853   6.974  17.662  0.00  0.00    +0.000 A 
ATOM     19  C   UNL     1       4.847   6.505  16.797  0.00  0.00    +0.000 A 
BRANCH  14  20
ATOM     20  S   UNL     1       6.734   4.691  15.971  0.00  0.00    +0.000 S 
ATOM     21  O   UNL     1       7.304   5.815  15.265  0.00  0.00    +0.000 OA
ATOM     22  O   UNL     1       6.261   3.504  15.303  0.00  0.00    +0.000 OA
BRANCH  20  23
ATOM     23  N   UNL     1       7.912   4.157  17.044  0.00  0.00    +0.000 NA
ATOM     24  H   UNL     1       8.832   4.252  16.612  0.00  0.00    +0.000 HD
ATOM     25  H   UNL     1       7.700   3.207  17.347  0.00  0.00    +0.000 HD
ENDBRANCH  20  23
ENDBRANCH  14  20
ENDBRANCH   1  17
TORSDOF 4
ENDMDL
MODEL 3
REMARK VINA RESULT:      -7.7      0.995      1.989
REMARK  Name = 
REMARK  4 active torsions:
REMARK  status: ('A' for Active; 'I' for Inactive)
REMARK    1  A    between atoms: N_1  and  S_2
REMARK    2  A    between atoms: S_2  and  C_5
REMARK    3  A    between atoms: C_8  and  C_9
REMARK    4  A    between atoms: C_12  and  C_13
REMARK                            x       y       z     vdW  Elec       q    Type
REMARK                         _______ _______ _______ _____ _____    ______ ____
ROOT
ATOM      1  C   UNL     1       2.514   7.396  19.163  0.00  0.00    +0.000 A 
ATOM      2  N   UNL     1       2.078   6.937  20.348  0.00  0.00    +0.000 NA
ATOM      3  O   UNL     1       1.133   7.875  20.740  0.00  0.00    +0.000 OA
ATOM      4  C   UNL     1       1.078   8.818  19.755  0.00  0.00    +0.000 A 
ATOM      5  N   UNL     1       1.907   8.571  18.764  0.00  0.00    +0.000 NA
ENDROOT
BRANCH   4   6
ATOM      6  C   UNL     1       0.128   9.909  19.946  0.00  0.00    +0.000 A 
ATOM      7  C   UNL     1      -0.542  10.494  18.859  0.00  0.00    +0.000 A 
ATOM      8  C   UNL     1      -1.435  11.553  19.051  0.00  0.00    +0.000 A 
ATOM      9  C   UNL     1      -1.676  12.042  20.336  0.00  0.00    +0.000 A 
ATOM     10 CL   UNL     1      -2.785  13.356  20.499  0.00  0.00    +0.000 Cl
ATOM     11  C   UNL     1      -1.021  11.466  21.430  0.00  0.00    +0.000 A 
ATOM     12 CL   UNL     1      -1.268  12.019  23.048  0.00  0.00    +0.000 Cl
ATOM     13  C   UNL     1      -0.127  10.405  21.233  0.00  0.00    +0.000 A 
ENDBRANCH   4   6
BRANCH   1  17
ATOM     14  C   UNL     1       5.529   5.449  16.861  0.00  0.00    +0.000 A 
ATOM     15  C   UNL     1       5.078   4.860  18.043  0.00  0.00    +0.000 A 
ATOM     16  C   UNL     1       4.084   5.497  18.792  0.00  0.00    +0.000 A 
ATOM     17  C   UNL     1       3.539   6.723  18.371  0.00  0.00    +0.000 A 
ATOM     18  C   UNL     1       4.005   7.298  17.178  0.00  0.00    +0.000 A 
ATOM     19  C   UNL     1       4.999   6.666  16.424  0.00  0.00    +0.000 A 
BRANCH  14  20
ATOM     20  S   UNL     1       6.784   4.646  15.908  0.00  0.00    +0.000 S 
ATOM     21  O   UNL     1       7.454   5.638  15.098  0.00  0.00    +0.000 OA
ATOM     22  O   UNL     1       6.260   3.416  15.366  0.00  0.00    +0.000 OA
BRANCH  20  23
ATOM     23  N   UNL     1       7.881   4.178  17.091  0.00  0.00    +0.000 NA
ATOM     24  H   UNL     1       8.557   4.928  17.243  0.00  0.00    +0.000 HD
ATOM     25  H   UNL     1       8.309   3.288  16.835  0.00  0.00    +0.000 HD
ENDBRANCH  20  23
ENDBRANCH  14  20
ENDBRANCH   1  17
TORSDOF 4
ENDMDL
MODEL 4
REMARK VINA RESULT:      -7.7      0.990      1.709
REMARK  Name = 
REMARK  4 active torsions:
REMARK  status: ('A' for Active; 'I' for Inactive)
REMARK    1  A    between atoms: N_1  and  S_2
REMARK    2  A    between atoms: S_2  and  C_5
REMARK    3  A    between atoms: C_8  and  C_9
REMARK    4  A    between atoms: C_12  and  C_13
REMARK                            x       y       z     vdW  Elec       q    Type
REMARK                         _______ _______ _______ _____ _____    ______ ____
ROOT
ATOM      1  C   UNL     1       2.512   7.408  19.195  0.00  0.00    +0.000 A 
ATOM      2  N   UNL     1       2.056   6.934  20.366  0.00  0.00    +0.000 NA
ATOM      3  O   UNL     1       1.104   7.865  20.754  0.00  0.00    +0.000 OA
ATOM      4  C   UNL     1       1.066   8.821  19.781  0.00  0.00    +0.000 A 
ATOM      5  N   UNL     1       1.913   8.588  18.801  0.00  0.00    +0.000 NA
ENDROOT
BRANCH   4   6
ATOM      6  C   UNL     1       0.112   9.909  19.969  0.00  0.00    +0.000 A 
ATOM      7  C   UNL     1      -0.588  10.465  18.886  0.00  0.00    +0.000 A 
ATOM      8  C   UNL     1      -1.485  11.521  19.075  0.00  0.00    +0.000 A 
ATOM      9  C   UNL     1      -1.699  12.037  20.354  0.00  0.00    +0.000 A 
ATOM     10 CL   UNL     1      -2.815  13.346  20.513  0.00  0.00    +0.000 Cl
ATOM     11  C   UNL     1      -1.015  11.491  21.444  0.00  0.00    +0.000 A 
ATOM     12 CL   UNL     1      -1.229  12.078  23.055  0.00  0.00    +0.000 Cl
ATOM     13  C   UNL     1      -0.117  10.432  21.250  0.00  0.00    +0.000 A 
ENDBRANCH   4   6
BRANCH   1  17
ATOM     14  C   UNL     1       5.529   5.456  16.898  0.00  0.00    +0.000 A 
ATOM     15  C   UNL     1       4.984   6.657  16.441  0.00  0.00    +0.000 A 
ATOM     16  C   UNL     1       4.001   7.298  17.199  0.00  0.00    +0.000 A 
ATOM     17  C   UNL     1       3.552   6.746  18.412  0.00  0.00    +0.000 A 
ATOM     18  C   UNL     1       4.113   5.539  18.855  0.00  0.00    +0.000 A 
ATOM     19  C   UNL     1       5.097   4.892  18.102  0.00  0.00    +0.000 A 
BRANCH  14  20
ATOM     20  S   UNL     1       6.775   4.641  15.945  0.00  0.00    +0.000 S 
ATOM     21  O   UNL     1       7.447   5.623  15.126  0.00  0.00    +0.000 OA
ATOM     22  O   UNL     1       6.242   3.410  15.414  0.00  0.00    +0.000 OA
BRANCH  20  23
ATOM     23  N   UNL     1       7.876   4.175  17.126  0.00  0.00    +0.000 NA
ATOM     24  H   UNL     1       7.815   4.815  17.918  0.00  0.00    +0.000 HD
ATOM     25  H   UNL     1       8.811   4.111  16.723  0.00  0.00    +0.000 HD
ENDBRANCH  20  23
ENDBRANCH  14  20
ENDBRANCH   1  17
TORSDOF 4
ENDMDL
MODEL 5
REMARK VINA RESULT:      -7.6      0.939      1.419
REMARK  Name = 
REMARK  4 active torsions:
REMARK  status: ('A' for Active; 'I' for Inactive)
REMARK    1  A    between atoms: N_1  and  S_2
REMARK    2  A    between atoms: S_2  and  C_5
REMARK    3  A    between atoms: C_8  and  C_9
REMARK    4  A    between atoms: C_12  and  C_13
REMARK                            x       y       z     vdW  Elec       q    Type
REMARK                         _______ _______ _______ _____ _____    ______ ____
ROOT
ATOM      1  C   UNL     1       2.505   6.614  19.548  0.00  0.00    +0.000 A 
ATOM      2  N   UNL     1       1.899   5.848  20.470  0.00  0.00    +0.000 NA
ATOM      3  O   UNL     1       1.088   6.738  21.160  0.00  0.00    +0.000 OA
ATOM      4  C   UNL     1       1.273   7.964  20.592  0.00  0.00    +0.000 A 
ATOM      5  N   UNL     1       2.135   7.943  19.598  0.00  0.00    +0.000 NA
ENDROOT
BRANCH   4   6
ATOM      6  C   UNL     1       0.500   9.068  21.151  0.00  0.00    +0.000 A 
ATOM      7  C   UNL     1       0.196   9.129  22.521  0.00  0.00    +0.000 A 
ATOM      8  C   UNL     1      -0.563  10.181  23.043  0.00  0.00    +0.000 A 
ATOM      9  C   UNL     1      -1.029  11.193  22.202  0.00  0.00    +0.000 A 
ATOM     10 CL   UNL     1      -1.967  12.457  22.914  0.00  0.00    +0.000 Cl
ATOM     11  C   UNL     1      -0.730  11.150  20.837  0.00  0.00    +0.000 A 
ATOM     12 CL   UNL     1      -1.273  12.367  19.736  0.00  0.00    +0.000 Cl
ATOM     13  C   UNL     1       0.031  10.095  20.318  0.00  0.00    +0.000 A 
ENDBRANCH   4   6
BRANCH   1  17
ATOM     14  C   UNL     1       5.352   5.100  16.758  0.00  0.00    +0.000 A 
ATOM     15  C   UNL     1       4.506   4.215  17.426  0.00  0.00    +0.000 A 
ATOM     16  C   UNL     1       3.569   4.714  18.335  0.00  0.00    +0.000 A 
ATOM     17  C   UNL     1       3.473   6.095  18.586  0.00  0.00    +0.000 A 
ATOM     18  C   UNL     1       4.332   6.968  17.903  0.00  0.00    +0.000 A 
ATOM     19  C   UNL     1       5.272   6.476  16.992  0.00  0.00    +0.000 A 
BRANCH  14  20
ATOM     20  S   UNL     1       6.539   4.475  15.605  0.00  0.00    +0.000 S 
ATOM     21  O   UNL     1       6.004   3.280  14.994  0.00  0.00    +0.000 OA
ATOM     22  O   UNL     1       7.854   4.533  16.194  0.00  0.00    +0.000 OA
BRANCH  20  23
ATOM     23  N   UNL     1       6.533   5.660  14.414  0.00  0.00    +0.000 NA
ATOM     24  H   UNL     1       5.588   5.764  14.043  0.00  0.00    +0.000 HD
ATOM     25  H   UNL     1       7.229   5.439  13.701  0.00  0.00    +0.000 HD
ENDBRANCH  20  23
ENDBRANCH  14  20
ENDBRANCH   1  17
TORSDOF 4
ENDMDL
MODEL 6
REMARK VINA RESULT:      -7.5      1.295      1.839
REMARK  Name = 
REMARK  4 active torsions:
REMARK  status: ('A' for Active; 'I' for Inactive)
REMARK    1  A    between atoms: N_1  and  S_2
REMARK    2  A    between atoms: S_2  and  C_5
REMARK    3  A    between atoms: C_8  and  C_9
REMARK    4  A    between atoms: C_12  and  C_13
REMARK                            x       y       z     vdW  Elec       q    Type
REMARK                         _______ _______ _______ _____ _____    ______ ____
ROOT
ATOM      1  C   UNL     1       2.547   7.451  18.968  0.00  0.00    +0.000 A 
ATOM      2  N   UNL     1       2.134   7.015  20.171  0.00  0.00    +0.000 NA
ATOM      3  O   UNL     1       1.196   7.960  20.561  0.00  0.00    +0.000 OA
ATOM      4  C   UNL     1       1.123   8.884  19.559  0.00  0.00    +0.000 A 
ATOM      5  N   UNL     1       1.934   8.617  18.558  0.00  0.00    +0.000 NA
ENDROOT
BRANCH   4   6
ATOM      6  C   UNL     1       0.177   9.979  19.746  0.00  0.00    +0.000 A 
ATOM      7  C   UNL     1       0.162  10.739  20.927  0.00  0.00    +0.000 A 
ATOM      8  C   UNL     1      -0.763  11.774  21.104  0.00  0.00    +0.000 A 
ATOM      9  C   UNL     1      -1.687  12.067  20.100  0.00  0.00    +0.000 A 
ATOM     10 CL   UNL     1      -2.804  13.351  20.389  0.00  0.00    +0.000 Cl
ATOM     11  C   UNL     1      -1.681  11.322  18.916  0.00  0.00    +0.000 A 
ATOM     12 CL   UNL     1      -2.795  11.627  17.630  0.00  0.00    +0.000 Cl
ATOM     13  C   UNL     1      -0.753  10.287  18.742  0.00  0.00    +0.000 A 
ENDBRANCH   4   6
BRANCH   1  17
ATOM     14  C   UNL     1       5.518   5.451  16.653  0.00  0.00    +0.000 A 
ATOM     15  C   UNL     1       4.870   4.766  17.682  0.00  0.00    +0.000 A 
ATOM     16  C   UNL     1       3.891   5.421  18.434  0.00  0.00    +0.000 A 
ATOM     17  C   UNL     1       3.557   6.762  18.171  0.00  0.00    +0.000 A 
ATOM     18  C   UNL     1       4.220   7.433  17.132  0.00  0.00    +0.000 A 
ATOM     19  C   UNL     1       5.200   6.783  16.375  0.00  0.00    +0.000 A 
BRANCH  14  20
ATOM     20  S   UNL     1       6.756   4.627  15.696  0.00  0.00    +0.000 S 
ATOM     21  O   UNL     1       7.439   5.605  14.883  0.00  0.00    +0.000 OA
ATOM     22  O   UNL     1       6.209   3.404  15.159  0.00  0.00    +0.000 OA
BRANCH  20  23
ATOM     23  N   UNL     1       7.850   4.142  16.876  0.00  0.00    +0.000 NA
ATOM     24  H   UNL     1       8.720   4.665  16.767  0.00  0.00    +0.000 HD
ATOM     25  H   UNL     1       7.975   3.130  16.839  0.00  0.00    +0.000 HD
ENDBRANCH  20  23
ENDBRANCH  14  20
ENDBRANCH   1  17
TORSDOF 4
ENDMDL
MODEL 7
REMARK VINA RESULT:      -7.3      3.343      4.035
REMARK  Name = 
REMARK  4 active torsions:
REMARK  status: ('A' for Active; 'I' for Inactive)
REMARK    1  A    between atoms: N_1  and  S_2
REMARK    2  A    between atoms: S_2  and  C_5
REMARK    3  A    between atoms: C_8  and  C_9
REMARK    4  A    between atoms: C_12  and  C_13
REMARK                            x       y       z     vdW  Elec       q    Type
REMARK                         _______ _______ _______ _____ _____    ______ ____
ROOT
ATOM      1  C   UNL     1       2.100   8.301  18.561  0.00  0.00    +0.000 A 
ATOM      2  N   UNL     1       2.524   8.879  17.424  0.00  0.00    +0.000 NA
ATOM      3  O   UNL     1       1.995  10.160  17.487  0.00  0.00    +0.000 OA
ATOM      4  C   UNL     1       1.301  10.245  18.658  0.00  0.00    +0.000 A 
ATOM      5  N   UNL     1       1.333   9.130  19.354  0.00  0.00    +0.000 NA
ENDROOT
BRANCH   4   6
ATOM      6  C   UNL     1       0.663  11.526  18.949  0.00  0.00    +0.000 A 
ATOM      7  C   UNL     1       1.311  12.743  18.685  0.00  0.00    +0.000 A 
ATOM      8  C   UNL     1       0.699  13.963  18.986  0.00  0.00    +0.000 A 
ATOM      9  C   UNL     1      -0.575  13.986  19.555  0.00  0.00    +0.000 A 
ATOM     10 CL   UNL     1      -1.267  15.529  19.909  0.00  0.00    +0.000 Cl
ATOM     11  C   UNL     1      -1.237  12.783  19.819  0.00  0.00    +0.000 A 
ATOM     12 CL   UNL     1      -2.814  12.733  20.522  0.00  0.00    +0.000 Cl
ATOM     13  C   UNL     1      -0.620  11.562  19.515  0.00  0.00    +0.000 A 
ENDBRANCH   4   6
BRANCH   1  17
ATOM     14  C   UNL     1       2.987   4.264  19.613  0.00  0.00    +0.000 A 
ATOM     15  C   UNL     1       3.377   4.752  18.365  0.00  0.00    +0.000 A 
ATOM     16  C   UNL     1       3.092   6.078  18.026  0.00  0.00    +0.000 A 
ATOM     17  C   UNL     1       2.413   6.921  18.923  0.00  0.00    +0.000 A 
ATOM     18  C   UNL     1       2.030   6.412  20.173  0.00  0.00    +0.000 A 
ATOM     19  C   UNL     1       2.313   5.087  20.519  0.00  0.00    +0.000 A 
BRANCH  14  20
ATOM     20  S   UNL     1       3.347   2.589  20.049  0.00  0.00    +0.000 S 
ATOM     21  O   UNL     1       2.670   1.714  19.121  0.00  0.00    +0.000 OA
ATOM     22  O   UNL     1       3.253   2.437  21.480  0.00  0.00    +0.000 OA
BRANCH  20  23
ATOM     23  N   UNL     1       4.987   2.477  19.697  0.00  0.00    +0.000 NA
ATOM     24  H   UNL     1       5.430   3.383  19.852  0.00  0.00    +0.000 HD
ATOM     25  H   UNL     1       5.115   2.116  18.752  0.00  0.00    +0.000 HD
ENDBRANCH  20  23
ENDBRANCH  14  20
ENDBRANCH   1  17
TORSDOF 4
ENDMDL
MODEL 8
REMARK VINA RESULT:      -7.3      3.490      4.138
REMARK  Name = 
REMARK  4 active torsions:
REMARK  status: ('A' for Active; 'I' for Inactive)
REMARK    1  A    between atoms: N_1  and  S_2
REMARK    2  A    between atoms: S_2  and  C_5
REMARK    3  A    between atoms: C_8  and  C_9
REMARK    4  A    between atoms: C_12  and  C_13
REMARK                            x       y       z     vdW  Elec       q    Type
REMARK                         _______ _______ _______ _____ _____    ______ ____
ROOT
ATOM      1  C   UNL     1       2.120   8.239  18.561  0.00  0.00    +0.000 A 
ATOM      2  N   UNL     1       2.511   8.789  17.399  0.00  0.00    +0.000 NA
ATOM      3  O   UNL     1       2.019  10.084  17.463  0.00  0.00    +0.000 OA
ATOM      4  C   UNL     1       1.375  10.205  18.661  0.00  0.00    +0.000 A 
ATOM      5  N   UNL     1       1.407   9.100  19.372  0.00  0.00    +0.000 NA
ENDROOT
BRANCH   4   6
ATOM      6  C   UNL     1       0.784  11.506  18.957  0.00  0.00    +0.000 A 
ATOM      7  C   UNL     1      -0.524  11.619  19.455  0.00  0.00    +0.000 A 
ATOM      8  C   UNL     1      -1.088  12.872  19.717  0.00  0.00    +0.000 A 
ATOM      9  C   UNL     1      -0.350  14.034  19.487  0.00  0.00    +0.000 A 
ATOM     10 CL   UNL     1      -1.112  15.546  19.825  0.00  0.00    +0.000 Cl
ATOM     11  C   UNL     1       0.956  13.938  18.997  0.00  0.00    +0.000 A 
ATOM     12 CL   UNL     1       1.929  15.333  18.688  0.00  0.00    +0.000 Cl
ATOM     13  C   UNL     1       1.518  12.681  18.737  0.00  0.00    +0.000 A 
ENDBRANCH   4   6
BRANCH   1  17
ATOM     14  C   UNL     1       2.999   4.211  19.650  0.00  0.00    +0.000 A 
ATOM     15  C   UNL     1       2.368   5.050  20.569  0.00  0.00    +0.000 A 
ATOM     16  C   UNL     1       2.074   6.368  20.207  0.00  0.00    +0.000 A 
ATOM     17  C   UNL     1       2.411   6.857  18.932  0.00  0.00    +0.000 A 
ATOM     18  C   UNL     1       3.044   5.997  18.022  0.00  0.00    +0.000 A 
ATOM     19  C   UNL     1       3.340   4.677  18.378  0.00  0.00    +0.000 A 
BRANCH  14  20
ATOM     20  S   UNL     1       3.371   2.542  20.101  0.00  0.00    +0.000 S 
ATOM     21  O   UNL     1       2.730   1.654  19.158  0.00  0.00    +0.000 OA
ATOM     22  O   UNL     1       3.241   2.393  21.530  0.00  0.00    +0.000 OA
BRANCH  20  23
ATOM     23  N   UNL     1       5.020   2.451  19.792  0.00  0.00    +0.000 NA
ATOM     24  H   UNL     1       5.203   1.684  19.145  0.00  0.00    +0.000 HD
ATOM     25  H   UNL     1       5.534   2.376  20.671  0.00  0.00    +0.000 HD
ENDBRANCH  20  23
ENDBRANCH  14  20
ENDBRANCH   1  17
TORSDOF 4
ENDMDL
MODEL 9
REMARK VINA RESULT:      -7.3      1.192      1.443
REMARK  Name = 
REMARK  4 active torsions:
REMARK  status: ('A' for Active; 'I' for Inactive)
REMARK    1  A    between atoms: N_1  and  S_2
REMARK    2  A    between atoms: S_2  and  C_5
REMARK    3  A    between atoms: C_8  and  C_9
REMARK    4  A    between atoms: C_12  and  C_13
REMARK                            x       y       z     vdW  Elec       q    Type
REMARK                         _______ _______ _______ _____ _____    ______ ____
ROOT
ATOM      1  C   UNL     1       2.307   7.531  19.448  0.00  0.00    +0.000 A 
ATOM      2  N   UNL     1       1.817   7.087  20.618  0.00  0.00    +0.000 NA
ATOM      3  O   UNL     1       0.861   8.033  20.957  0.00  0.00    +0.000 OA
ATOM      4  C   UNL     1       0.855   8.965  19.961  0.00  0.00    +0.000 A 
ATOM      5  N   UNL     1       1.725   8.704  19.010  0.00  0.00    +0.000 NA
ENDROOT
BRANCH   4   6
ATOM      6  C   UNL     1      -0.097  10.063  20.098  0.00  0.00    +0.000 A 
ATOM      7  C   UNL     1      -0.148  10.846  21.263  0.00  0.00    +0.000 A 
ATOM      8  C   UNL     1      -1.078  11.883  21.392  0.00  0.00    +0.000 A 
ATOM      9  C   UNL     1      -1.971  12.156  20.354  0.00  0.00    +0.000 A 
ATOM     10 CL   UNL     1      -3.097  13.445  20.585  0.00  0.00    +0.000 Cl
ATOM     11  C   UNL     1      -1.929  11.389  19.185  0.00  0.00    +0.000 A 
ATOM     12 CL   UNL     1      -3.003  11.669  17.861  0.00  0.00    +0.000 Cl
ATOM     13  C   UNL     1      -0.995  10.351  19.060  0.00  0.00    +0.000 A 
ENDBRANCH   4   6
BRANCH   1  17
ATOM     14  C   UNL     1       5.371   5.506  17.280  0.00  0.00    +0.000 A 
ATOM     15  C   UNL     1       4.810   6.670  16.754  0.00  0.00    +0.000 A 
ATOM     16  C   UNL     1       3.811   7.336  17.470  0.00  0.00    +0.000 A 
ATOM     17  C   UNL     1       3.363   6.844  18.709  0.00  0.00    +0.000 A 
ATOM     18  C   UNL     1       3.940   5.672  19.221  0.00  0.00    +0.000 A 
ATOM     19  C   UNL     1       4.939   5.001  18.510  0.00  0.00    +0.000 A 
BRANCH  14  20
ATOM     20  S   UNL     1       6.637   4.661  16.380  0.00  0.00    +0.000 S 
ATOM     21  O   UNL     1       7.412   5.635  15.648  0.00  0.00    +0.000 OA
ATOM     22  O   UNL     1       6.080   3.480  15.766  0.00  0.00    +0.000 OA
BRANCH  20  23
ATOM     23  N   UNL     1       7.628   4.094  17.613  0.00  0.00    +0.000 NA
ATOM     24  H   UNL     1       7.570   3.076  17.655  0.00  0.00    +0.000 HD
ATOM     25  H   UNL     1       7.387   4.553  18.491  0.00  0.00    +0.000 HD
ENDBRANCH  20  23
ENDBRANCH  14  20
ENDBRANCH   1  17
TORSDOF 4
ENDMDL
