MODEL 1
REMARK VINA RESULT:      -6.6      0.000      0.000
REMARK  Name = 
REMARK  3 active torsions:
REMARK  status: ('A' for Active; 'I' for Inactive)
REMARK    1  A    between atoms: C_1  and  N_2
REMARK    2  A    between atoms: C_4  and  C_5
REMARK    3  A    between atoms: N_13  and  C_14
REMARK                            x       y       z     vdW  Elec       q    Type
REMARK                         _______ _______ _______ _____ _____    ______ ____
ROOT
ATOM      1  C   UNL     1       7.780   6.534  18.497  0.00  0.00    +0.000 C 
ATOM      2  N   UNL     1       6.618   5.684  18.356  0.00  0.00    +0.000 N 
ATOM      3  N   UNL     1       5.795   5.412  19.422  0.00  0.00    +0.000 NA
ATOM      4  C   UNL     1       4.886   4.608  18.944  0.00  0.00    +0.000 A 
ATOM      5  N   UNL     1       5.020   4.346  17.607  0.00  0.00    +0.000 N 
ATOM      6  C   UNL     1       4.144   3.621  16.702  0.00  0.00    +0.000 C 
ATOM      7  C   UNL     1       6.169   5.014  17.217  0.00  0.00    +0.000 A 
ATOM      8  S   UNL     1       6.882   5.027  15.710  0.00  0.00    +0.000 S 
ENDROOT
BRANCH   4   9
ATOM      9  C   UNL     1       3.807   4.063  19.795  0.00  0.00    +0.000 A 
ATOM     10  C   UNL     1       2.757   4.913  20.176  0.00  0.00    +0.000 A 
ATOM     11  C   UNL     1       1.727   4.436  20.994  0.00  0.00    +0.000 A 
ATOM     12  C   UNL     1       1.752   3.114  21.428  0.00  0.00    +0.000 A 
ATOM     13  F   UNL     1       0.759   2.655  22.200  0.00  0.00    +0.000 F 
ATOM     14  C   UNL     1       2.797   2.270  21.086  0.00  0.00    +0.000 A 
ATOM     15  C   UNL     1       3.832   2.758  20.292  0.00  0.00    +0.000 A 
ATOM     16  F   UNL     1       4.865   1.941  20.042  0.00  0.00    +0.000 F 
ENDBRANCH   4   9
TORSDOF 1
ENDMDL
MODEL 2
REMARK VINA RESULT:      -6.6      3.280      5.536
REMARK  Name = 
REMARK  3 active torsions:
REMARK  status: ('A' for Active; 'I' for Inactive)
REMARK    1  A    between atoms: C_1  and  N_2
REMARK    2  A    between atoms: C_4  and  C_5
REMARK    3  A    between atoms: N_13  and  C_14
REMARK                            x       y       z     vdW  Elec       q    Type
REMARK                         _______ _______ _______ _____ _____    ______ ____
ROOT
ATOM      1  C   UNL     1       1.489   6.121  20.852  0.00  0.00    +0.000 C 
ATOM      2  N   UNL     1       2.431   5.219  20.228  0.00  0.00    +0.000 N 
ATOM      3  N   UNL     1       3.267   5.637  19.222  0.00  0.00    +0.000 NA
ATOM      4  C   UNL     1       3.945   4.574  18.887  0.00  0.00    +0.000 A 
ATOM      5  N   UNL     1       3.646   3.465  19.632  0.00  0.00    +0.000 N 
ATOM      6  C   UNL     1       4.271   2.153  19.652  0.00  0.00    +0.000 C 
ATOM      7  C   UNL     1       2.632   3.862  20.489  0.00  0.00    +0.000 A 
ATOM      8  S   UNL     1       1.812   2.931  21.603  0.00  0.00    +0.000 S 
ENDROOT
BRANCH   4   9
ATOM      9  C   UNL     1       4.955   4.605  17.809  0.00  0.00    +0.000 A 
ATOM     10  C   UNL     1       4.564   4.243  16.510  0.00  0.00    +0.000 A 
ATOM     11  C   UNL     1       5.496   4.245  15.468  0.00  0.00    +0.000 A 
ATOM     12  C   UNL     1       6.814   4.607  15.727  0.00  0.00    +0.000 A 
ATOM     13  F   UNL     1       7.704   4.622  14.725  0.00  0.00    +0.000 F 
ATOM     14  C   UNL     1       7.224   4.937  17.009  0.00  0.00    +0.000 A 
ATOM     15  C   UNL     1       6.297   4.909  18.047  0.00  0.00    +0.000 A 
ATOM     16  F   UNL     1       6.741   5.160  19.287  0.00  0.00    +0.000 F 
ENDBRANCH   4   9
TORSDOF 1
ENDMDL
MODEL 3
REMARK VINA RESULT:      -6.6      2.180      2.623
REMARK  Name = 
REMARK  3 active torsions:
REMARK  status: ('A' for Active; 'I' for Inactive)
REMARK    1  A    between atoms: C_1  and  N_2
REMARK    2  A    between atoms: C_4  and  C_5
REMARK    3  A    between atoms: N_13  and  C_14
REMARK                            x       y       z     vdW  Elec       q    Type
REMARK                         _______ _______ _______ _____ _____    ______ ____
ROOT
ATOM      1  C   UNL     1       8.245   5.516  19.837  0.00  0.00    +0.000 C 
ATOM      2  N   UNL     1       6.972   5.549  19.152  0.00  0.00    +0.000 N 
ATOM      3  N   UNL     1       5.967   4.667  19.462  0.00  0.00    +0.000 NA
ATOM      4  C   UNL     1       4.996   4.965  18.643  0.00  0.00    +0.000 A 
ATOM      5  N   UNL     1       5.268   6.024  17.820  0.00  0.00    +0.000 N 
ATOM      6  C   UNL     1       4.406   6.729  16.884  0.00  0.00    +0.000 C 
ATOM      7  C   UNL     1       6.570   6.394  18.115  0.00  0.00    +0.000 A 
ATOM      8  S   UNL     1       7.481   7.590  17.396  0.00  0.00    +0.000 S 
ENDROOT
BRANCH   4   9
ATOM      9  C   UNL     1       3.720   4.220  18.647  0.00  0.00    +0.000 A 
ATOM     10  C   UNL     1       3.574   3.131  17.773  0.00  0.00    +0.000 A 
ATOM     11  C   UNL     1       2.375   2.412  17.738  0.00  0.00    +0.000 A 
ATOM     12  C   UNL     1       1.328   2.783  18.574  0.00  0.00    +0.000 A 
ATOM     13  F   UNL     1       0.184   2.086  18.549  0.00  0.00    +0.000 F 
ATOM     14  C   UNL     1       1.444   3.875  19.421  0.00  0.00    +0.000 A 
ATOM     15  C   UNL     1       2.631   4.602  19.434  0.00  0.00    +0.000 A 
ATOM     16  F   UNL     1       2.685   5.695  20.207  0.00  0.00    +0.000 F 
ENDBRANCH   4   9
TORSDOF 1
ENDMDL
MODEL 4
REMARK VINA RESULT:      -6.5      1.198      1.695
REMARK  Name = 
REMARK  3 active torsions:
REMARK  status: ('A' for Active; 'I' for Inactive)
REMARK    1  A    between atoms: C_1  and  N_2
REMARK    2  A    between atoms: C_4  and  C_5
REMARK    3  A    between atoms: N_13  and  C_14
REMARK                            x       y       z     vdW  Elec       q    Type
REMARK                         _______ _______ _______ _____ _____    ______ ____
ROOT
ATOM      1  C   UNL     1       7.807   6.329  18.525  0.00  0.00    +0.000 C 
ATOM      2  N   UNL     1       6.598   5.548  18.387  0.00  0.00    +0.000 N 
ATOM      3  N   UNL     1       5.777   5.301  19.460  0.00  0.00    +0.000 NA
ATOM      4  C   UNL     1       4.816   4.559  18.982  0.00  0.00    +0.000 A 
ATOM      5  N   UNL     1       4.916   4.317  17.639  0.00  0.00    +0.000 N 
ATOM      6  C   UNL     1       3.987   3.659  16.734  0.00  0.00    +0.000 C 
ATOM      7  C   UNL     1       6.095   4.927  17.242  0.00  0.00    +0.000 A 
ATOM      8  S   UNL     1       6.784   4.930  15.725  0.00  0.00    +0.000 S 
ENDROOT
BRANCH   4   9
ATOM      9  C   UNL     1       3.722   4.058  19.840  0.00  0.00    +0.000 A 
ATOM     10  C   UNL     1       3.882   2.819  20.480  0.00  0.00    +0.000 A 
ATOM     11  C   UNL     1       2.860   2.307  21.287  0.00  0.00    +0.000 A 
ATOM     12  C   UNL     1       1.684   3.032  21.448  0.00  0.00    +0.000 A 
ATOM     13  F   UNL     1       0.712   2.547  22.231  0.00  0.00    +0.000 F 
ATOM     14  C   UNL     1       1.497   4.242  20.798  0.00  0.00    +0.000 A 
ATOM     15  C   UNL     1       2.508   4.736  19.977  0.00  0.00    +0.000 A 
ATOM     16  F   UNL     1       2.267   5.869  19.304  0.00  0.00    +0.000 F 
ENDBRANCH   4   9
TORSDOF 1
ENDMDL
MODEL 5
REMARK VINA RESULT:      -6.4      1.984      2.198
REMARK  Name = 
REMARK  3 active torsions:
REMARK  status: ('A' for Active; 'I' for Inactive)
REMARK    1  A    between atoms: C_1  and  N_2
REMARK    2  A    between atoms: C_4  and  C_5
REMARK    3  A    between atoms: N_13  and  C_14
REMARK                            x       y       z     vdW  Elec       q    Type
REMARK                         _______ _______ _______ _____ _____    ______ ____
ROOT
ATOM      1  C   UNL     1       8.302   5.537  19.854  0.00  0.00    +0.000 C 
ATOM      2  N   UNL     1       7.003   5.606  19.221  0.00  0.00    +0.000 N 
ATOM      3  N   UNL     1       5.981   4.766  19.589  0.00  0.00    +0.000 NA
ATOM      4  C   UNL     1       4.987   5.086  18.806  0.00  0.00    +0.000 A 
ATOM      5  N   UNL     1       5.262   6.121  17.953  0.00  0.00    +0.000 N 
ATOM      6  C   UNL     1       4.388   6.841  17.042  0.00  0.00    +0.000 C 
ATOM      7  C   UNL     1       6.588   6.447  18.187  0.00  0.00    +0.000 A 
ATOM      8  S   UNL     1       7.510   7.598  17.410  0.00  0.00    +0.000 S 
ENDROOT
BRANCH   4   9
ATOM      9  C   UNL     1       3.687   4.388  18.877  0.00  0.00    +0.000 A 
ATOM     10  C   UNL     1       2.847   4.638  19.973  0.00  0.00    +0.000 A 
ATOM     11  C   UNL     1       1.616   3.983  20.081  0.00  0.00    +0.000 A 
ATOM     12  C   UNL     1       1.230   3.081  19.095  0.00  0.00    +0.000 A 
ATOM     13  F   UNL     1       0.045   2.464  19.192  0.00  0.00    +0.000 F 
ATOM     14  C   UNL     1       2.061   2.799  18.021  0.00  0.00    +0.000 A 
ATOM     15  C   UNL     1       3.295   3.436  17.932  0.00  0.00    +0.000 A 
ATOM     16  F   UNL     1       4.107   3.086  16.924  0.00  0.00    +0.000 F 
ENDBRANCH   4   9
TORSDOF 1
ENDMDL
MODEL 6
REMARK VINA RESULT:      -6.4      2.143      2.685
REMARK  Name = 
REMARK  3 active torsions:
REMARK  status: ('A' for Active; 'I' for Inactive)
REMARK    1  A    between atoms: C_1  and  N_2
REMARK    2  A    between atoms: C_4  and  C_5
REMARK    3  A    between atoms: N_13  and  C_14
REMARK                            x       y       z     vdW  Elec       q    Type
REMARK                         _______ _______ _______ _____ _____    ______ ____
ROOT
ATOM      1  C   UNL     1       5.976   3.626  15.295  0.00  0.00    +0.000 C 
ATOM      2  N   UNL     1       5.109   4.188  16.306  0.00  0.00    +0.000 N 
ATOM      3  N   UNL     1       4.496   3.396  17.246  0.00  0.00    +0.000 NA
ATOM      4  C   UNL     1       3.783   4.220  17.964  0.00  0.00    +0.000 A 
ATOM      5  N   UNL     1       3.904   5.531  17.590  0.00  0.00    +0.000 N 
ATOM      6  C   UNL     1       3.385   6.735  18.218  0.00  0.00    +0.000 C 
ATOM      7  C   UNL     1       4.739   5.522  16.485  0.00  0.00    +0.000 A 
ATOM      8  S   UNL     1       5.214   6.820  15.552  0.00  0.00    +0.000 S 
ENDROOT
BRANCH   4   9
ATOM      9  C   UNL     1       2.947   3.747  19.086  0.00  0.00    +0.000 A 
ATOM     10  C   UNL     1       3.582   3.248  20.235  0.00  0.00    +0.000 A 
ATOM     11  C   UNL     1       2.822   2.777  21.311  0.00  0.00    +0.000 A 
ATOM     12  C   UNL     1       1.433   2.806  21.235  0.00  0.00    +0.000 A 
ATOM     13  F   UNL     1       0.706   2.368  22.271  0.00  0.00    +0.000 F 
ATOM     14  C   UNL     1       0.790   3.267  20.097  0.00  0.00    +0.000 A 
ATOM     15  C   UNL     1       1.552   3.711  19.019  0.00  0.00    +0.000 A 
ATOM     16  F   UNL     1       0.903   4.079  17.905  0.00  0.00    +0.000 F 
ENDBRANCH   4   9
TORSDOF 1
ENDMDL
MODEL 7
REMARK VINA RESULT:      -6.3      3.256      5.573
REMARK  Name = 
REMARK  3 active torsions:
REMARK  status: ('A' for Active; 'I' for Inactive)
REMARK    1  A    between atoms: C_1  and  N_2
REMARK    2  A    between atoms: C_4  and  C_5
REMARK    3  A    between atoms: N_13  and  C_14
REMARK                            x       y       z     vdW  Elec       q    Type
REMARK                         _______ _______ _______ _____ _____    ______ ____
ROOT
ATOM      1  C   UNL     1       1.497   6.224  20.858  0.00  0.00    +0.000 C 
ATOM      2  N   UNL     1       2.442   5.328  20.230  0.00  0.00    +0.000 N 
ATOM      3  N   UNL     1       3.247   5.742  19.197  0.00  0.00    +0.000 NA
ATOM      4  C   UNL     1       3.938   4.686  18.866  0.00  0.00    +0.000 A 
ATOM      5  N   UNL     1       3.677   3.587  19.639  0.00  0.00    +0.000 N 
ATOM      6  C   UNL     1       4.329   2.288  19.669  0.00  0.00    +0.000 C 
ATOM      7  C   UNL     1       2.676   3.980  20.512  0.00  0.00    +0.000 A 
ATOM      8  S   UNL     1       1.901   3.055  21.662  0.00  0.00    +0.000 S 
ENDROOT
BRANCH   4   9
ATOM      9  C   UNL     1       4.921   4.716  17.764  0.00  0.00    +0.000 A 
ATOM     10  C   UNL     1       6.130   5.404  17.959  0.00  0.00    +0.000 A 
ATOM     11  C   UNL     1       7.077   5.466  16.932  0.00  0.00    +0.000 A 
ATOM     12  C   UNL     1       6.814   4.843  15.716  0.00  0.00    +0.000 A 
ATOM     13  F   UNL     1       7.727   4.892  14.738  0.00  0.00    +0.000 F 
ATOM     14  C   UNL     1       5.613   4.186  15.496  0.00  0.00    +0.000 A 
ATOM     15  C   UNL     1       4.663   4.149  16.514  0.00  0.00    +0.000 A 
ATOM     16  F   UNL     1       3.483   3.572  16.245  0.00  0.00    +0.000 F 
ENDBRANCH   4   9
TORSDOF 1
ENDMDL
MODEL 8
REMARK VINA RESULT:      -6.3      3.475      5.816
REMARK  Name = 
REMARK  3 active torsions:
REMARK  status: ('A' for Active; 'I' for Inactive)
REMARK    1  A    between atoms: C_1  and  N_2
REMARK    2  A    between atoms: C_4  and  C_5
REMARK    3  A    between atoms: N_13  and  C_14
REMARK                            x       y       z     vdW  Elec       q    Type
REMARK                         _______ _______ _______ _____ _____    ______ ____
ROOT
ATOM      1  C   UNL     1       3.173   1.372  18.579  0.00  0.00    +0.000 C 
ATOM      2  N   UNL     1       3.437   2.783  18.755  0.00  0.00    +0.000 N 
ATOM      3  N   UNL     1       4.578   3.367  18.261  0.00  0.00    +0.000 NA
ATOM      4  C   UNL     1       4.496   4.618  18.622  0.00  0.00    +0.000 A 
ATOM      5  N   UNL     1       3.348   4.927  19.301  0.00  0.00    +0.000 N 
ATOM      6  C   UNL     1       2.839   6.216  19.741  0.00  0.00    +0.000 C 
ATOM      7  C   UNL     1       2.662   3.731  19.427  0.00  0.00    +0.000 A 
ATOM      8  S   UNL     1       1.217   3.458  20.212  0.00  0.00    +0.000 S 
ENDROOT
BRANCH   4   9
ATOM      9  C   UNL     1       5.556   5.592  18.292  0.00  0.00    +0.000 A 
ATOM     10  C   UNL     1       6.762   5.544  19.011  0.00  0.00    +0.000 A 
ATOM     11  C   UNL     1       7.782   6.461  18.737  0.00  0.00    +0.000 A 
ATOM     12  C   UNL     1       7.594   7.421  17.748  0.00  0.00    +0.000 A 
ATOM     13  F   UNL     1       8.576   8.290  17.477  0.00  0.00    +0.000 F 
ATOM     14  C   UNL     1       6.399   7.502  17.050  0.00  0.00    +0.000 A 
ATOM     15  C   UNL     1       5.378   6.603  17.344  0.00  0.00    +0.000 A 
ATOM     16  F   UNL     1       4.208   6.755  16.707  0.00  0.00    +0.000 F 
ENDBRANCH   4   9
TORSDOF 1
ENDMDL
MODEL 9
REMARK VINA RESULT:      -6.2      1.115      2.096
REMARK  Name = 
REMARK  3 active torsions:
REMARK  status: ('A' for Active; 'I' for Inactive)
REMARK    1  A    between atoms: C_1  and  N_2
REMARK    2  A    between atoms: C_4  and  C_5
REMARK    3  A    between atoms: N_13  and  C_14
REMARK                            x       y       z     vdW  Elec       q    Type
REMARK                         _______ _______ _______ _____ _____    ______ ____
ROOT
ATOM      1  C   UNL     1       5.221   4.235  14.652  0.00  0.00    +0.000 C 
ATOM      2  N   UNL     1       5.102   4.379  16.086  0.00  0.00    +0.000 N 
ATOM      3  N   UNL     1       4.076   3.790  16.784  0.00  0.00    +0.000 NA
ATOM      4  C   UNL     1       4.267   4.148  18.024  0.00  0.00    +0.000 A 
ATOM      5  N   UNL     1       5.384   4.915  18.216  0.00  0.00    +0.000 N 
ATOM      6  C   UNL     1       5.996   5.386  19.448  0.00  0.00    +0.000 C 
ATOM      7  C   UNL     1       5.921   5.105  16.954  0.00  0.00    +0.000 A 
ATOM      8  S   UNL     1       7.260   6.007  16.537  0.00  0.00    +0.000 S 
ENDROOT
BRANCH   4   9
ATOM      9  C   UNL     1       3.351   3.726  19.104  0.00  0.00    +0.000 A 
ATOM     10  C   UNL     1       2.111   4.375  19.226  0.00  0.00    +0.000 A 
ATOM     11  C   UNL     1       1.225   4.013  20.246  0.00  0.00    +0.000 A 
ATOM     12  C   UNL     1       1.580   3.007  21.139  0.00  0.00    +0.000 A 
ATOM     13  F   UNL     1       0.726   2.651  22.107  0.00  0.00    +0.000 F 
ATOM     14  C   UNL     1       2.812   2.377  21.051  0.00  0.00    +0.000 A 
ATOM     15  C   UNL     1       3.701   2.759  20.049  0.00  0.00    +0.000 A 
ATOM     16  F   UNL     1       4.912   2.186  20.037  0.00  0.00    +0.000 F 
ENDBRANCH   4   9
TORSDOF 1
ENDMDL
