MODEL 1
REMARK VINA RESULT:      -8.3      0.000      0.000
REMARK  Name = 
REMARK  5 active torsions:
REMARK  status: ('A' for Active; 'I' for Inactive)
REMARK    1  A    between atoms: C_1  and  C_2
REMARK    2  A    between atoms: C_2  and  O_4
REMARK    3  A    between atoms: O_4  and  C_5
REMARK    4  A    between atoms: C_10  and  C_11
REMARK    5  A    between atoms: C_12  and  C_13
REMARK                            x       y       z     vdW  Elec       q    Type
REMARK                         _______ _______ _______ _____ _____    ______ ____
ROOT
ATOM      1  C   UNL     1       3.058   6.761  18.183  0.00  0.00    +0.000 C 
ATOM      2  C   UNL     1       2.515   7.945  17.858  0.00  0.00    +0.000 C 
ENDROOT
BRANCH   2   3
ATOM      3  C   UNL     1       1.738   8.779  18.813  0.00  0.00    +0.000 A 
ATOM      4  N   UNL     1       1.609   8.404  20.046  0.00  0.00    +0.000 NA
ATOM      5  C   UNL     1       0.814   9.191  20.899  0.00  0.00    +0.000 A 
ATOM      6  C   UNL     1       0.729   8.859  22.252  0.00  0.00    +0.000 A 
ATOM      7  C   UNL     1      -0.050   9.628  23.124  0.00  0.00    +0.000 A 
ATOM      8  C   UNL     1      -0.769  10.725  22.645  0.00  0.00    +0.000 A 
ATOM      9  C   UNL     1      -0.709  11.058  21.295  0.00  0.00    +0.000 A 
ATOM     10  C   UNL     1       0.091  10.295  20.440  0.00  0.00    +0.000 A 
ATOM     11  C   UNL     1       0.235  10.652  19.025  0.00  0.00    +0.000 A 
ATOM     12  O   UNL     1      -0.432  11.534  18.493  0.00  0.00    +0.000 OA
ATOM     13  N   UNL     1       1.153   9.916  18.321  0.00  0.00    +0.000 N 
ATOM     14  H   UNL     1       1.273  10.207  17.365  0.00  0.00    +0.000 HD
ENDBRANCH   2   3
BRANCH   1  20
ATOM     15  C   UNL     1       4.186   4.622  17.404  0.00  0.00    +0.000 A 
ATOM     16  C   UNL     1       4.973   3.959  16.455  0.00  0.00    +0.000 A 
ATOM     17  C   UNL     1       5.641   4.682  15.473  0.00  0.00    +0.000 A 
ATOM     18  C   UNL     1       5.518   6.067  15.433  0.00  0.00    +0.000 A 
ATOM     19  C   UNL     1       4.722   6.732  16.372  0.00  0.00    +0.000 A 
ATOM     20  C   UNL     1       4.035   6.019  17.369  0.00  0.00    +0.000 A 
BRANCH  15  21
ATOM     21  O   UNL     1       3.387   3.850  18.273  0.00  0.00    +0.000 OA
BRANCH  21  23
ATOM     22  C   UNL     1       3.433   1.507  18.538  0.00  0.00    +0.000 C 
ATOM     23  C   UNL     1       4.020   2.823  18.957  0.00  0.00    +0.000 C 
ATOM     24  O   UNL     1       4.918   2.936  19.781  0.00  0.00    +0.000 OA
ENDBRANCH  21  23
ENDBRANCH  15  21
ENDBRANCH   1  20
TORSDOF 4
ENDMDL
MODEL 2
REMARK VINA RESULT:      -8.3      6.557      9.298
REMARK  Name = 
REMARK  5 active torsions:
REMARK  status: ('A' for Active; 'I' for Inactive)
REMARK    1  A    between atoms: C_1  and  C_2
REMARK    2  A    between atoms: C_2  and  O_4
REMARK    3  A    between atoms: O_4  and  C_5
REMARK    4  A    between atoms: C_10  and  C_11
REMARK    5  A    between atoms: C_12  and  C_13
REMARK                            x       y       z     vdW  Elec       q    Type
REMARK                         _______ _______ _______ _____ _____    ______ ____
ROOT
ATOM      1  C   UNL     1       9.371   9.885  19.261  0.00  0.00    +0.000 C 
ATOM      2  C   UNL     1       8.598   9.522  18.226  0.00  0.00    +0.000 C 
ENDROOT
BRANCH   2   3
ATOM      3  C   UNL     1       7.990   8.172  18.093  0.00  0.00    +0.000 A 
ATOM      4  N   UNL     1       7.126   7.939  17.156  0.00  0.00    +0.000 NA
ATOM      5  C   UNL     1       6.529   6.667  17.105  0.00  0.00    +0.000 A 
ATOM      6  C   UNL     1       5.661   6.361  16.056  0.00  0.00    +0.000 A 
ATOM      7  C   UNL     1       5.059   5.100  15.977  0.00  0.00    +0.000 A 
ATOM      8  C   UNL     1       5.302   4.140  16.961  0.00  0.00    +0.000 A 
ATOM      9  C   UNL     1       6.152   4.436  18.024  0.00  0.00    +0.000 A 
ATOM     10  C   UNL     1       6.764   5.690  18.077  0.00  0.00    +0.000 A 
ATOM     11  C   UNL     1       7.717   6.018  19.143  0.00  0.00    +0.000 A 
ATOM     12  O   UNL     1       7.918   5.281  20.102  0.00  0.00    +0.000 OA
ATOM     13  N   UNL     1       8.357   7.224  19.011  0.00  0.00    +0.000 N 
ATOM     14  H   UNL     1       9.042   7.410  19.725  0.00  0.00    +0.000 HD
ENDBRANCH   2   3
BRANCH   1  20
ATOM     15  C   UNL     1       9.492  11.922  20.776  0.00  0.00    +0.000 A 
ATOM     16  C   UNL     1      10.099  13.141  21.099  0.00  0.00    +0.000 A 
ATOM     17  C   UNL     1      10.993  13.733  20.213  0.00  0.00    +0.000 A 
ATOM     18  C   UNL     1      11.288  13.104  19.008  0.00  0.00    +0.000 A 
ATOM     19  C   UNL     1      10.692  11.879  18.688  0.00  0.00    +0.000 A 
ATOM     20  C   UNL     1       9.790  11.262  19.571  0.00  0.00    +0.000 A 
BRANCH  15  21
ATOM     21  O   UNL     1       8.729  11.267  21.765  0.00  0.00    +0.000 OA
BRANCH  21  23
ATOM     22  C   UNL     1       8.190  11.654  24.028  0.00  0.00    +0.000 C 
ATOM     23  C   UNL     1       7.970  12.070  22.603  0.00  0.00    +0.000 C 
ATOM     24  O   UNL     1       7.226  12.982  22.268  0.00  0.00    +0.000 OA
ENDBRANCH  21  23
ENDBRANCH  15  21
ENDBRANCH   1  20
TORSDOF 4
ENDMDL
MODEL 3
REMARK VINA RESULT:      -8.2      1.122      1.388
REMARK  Name = 
REMARK  5 active torsions:
REMARK  status: ('A' for Active; 'I' for Inactive)
REMARK    1  A    between atoms: C_1  and  C_2
REMARK    2  A    between atoms: C_2  and  O_4
REMARK    3  A    between atoms: O_4  and  C_5
REMARK    4  A    between atoms: C_10  and  C_11
REMARK    5  A    between atoms: C_12  and  C_13
REMARK                            x       y       z     vdW  Elec       q    Type
REMARK                         _______ _______ _______ _____ _____    ______ ____
ROOT
ATOM      1  C   UNL     1       2.890   6.967  18.616  0.00  0.00    +0.000 C 
ATOM      2  C   UNL     1       2.235   8.051  18.173  0.00  0.00    +0.000 C 
ENDROOT
BRANCH   2   3
ATOM      3  C   UNL     1       1.535   9.009  19.070  0.00  0.00    +0.000 A 
ATOM      4  N   UNL     1       1.164   8.635  20.254  0.00  0.00    +0.000 NA
ATOM      5  C   UNL     1       0.450   9.553  21.045  0.00  0.00    +0.000 A 
ATOM      6  C   UNL     1       0.113   9.209  22.355  0.00  0.00    +0.000 A 
ATOM      7  C   UNL     1      -0.590  10.105  23.167  0.00  0.00    +0.000 A 
ATOM      8  C   UNL     1      -0.984  11.348  22.667  0.00  0.00    +0.000 A 
ATOM      9  C   UNL     1      -0.671  11.699  21.357  0.00  0.00    +0.000 A 
ATOM     10  C   UNL     1       0.052  10.804  20.566  0.00  0.00    +0.000 A 
ATOM     11  C   UNL     1       0.459  11.162  19.203  0.00  0.00    +0.000 A 
ATOM     12  O   UNL     1       0.077  12.185  18.645  0.00  0.00    +0.000 OA
ATOM     13  N   UNL     1       1.282  10.261  18.577  0.00  0.00    +0.000 N 
ATOM     14  H   UNL     1       1.589  10.547  17.662  0.00  0.00    +0.000 HD
ENDBRANCH   2   3
BRANCH   1  20
ATOM     15  C   UNL     1       3.860   4.731  17.896  0.00  0.00    +0.000 A 
ATOM     16  C   UNL     1       4.582   3.984  16.958  0.00  0.00    +0.000 A 
ATOM     17  C   UNL     1       5.276   4.626  15.938  0.00  0.00    +0.000 A 
ATOM     18  C   UNL     1       5.243   6.014  15.849  0.00  0.00    +0.000 A 
ATOM     19  C   UNL     1       4.511   6.763  16.777  0.00  0.00    +0.000 A 
ATOM     20  C   UNL     1       3.799   6.133  17.813  0.00  0.00    +0.000 A 
BRANCH  15  21
ATOM     21  O   UNL     1       3.030   4.046  18.807  0.00  0.00    +0.000 OA
BRANCH  21  23
ATOM     22  C   UNL     1       0.930   3.281  19.560  0.00  0.00    +0.000 C 
ATOM     23  C   UNL     1       1.733   3.780  18.394  0.00  0.00    +0.000 C 
ATOM     24  O   UNL     1       1.281   3.917  17.265  0.00  0.00    +0.000 OA
ENDBRANCH  21  23
ENDBRANCH  15  21
ENDBRANCH   1  20
TORSDOF 4
ENDMDL
MODEL 4
REMARK VINA RESULT:      -8.2      2.003      2.728
REMARK  Name = 
REMARK  5 active torsions:
REMARK  status: ('A' for Active; 'I' for Inactive)
REMARK    1  A    between atoms: C_1  and  C_2
REMARK    2  A    between atoms: C_2  and  O_4
REMARK    3  A    between atoms: O_4  and  C_5
REMARK    4  A    between atoms: C_10  and  C_11
REMARK    5  A    between atoms: C_12  and  C_13
REMARK                            x       y       z     vdW  Elec       q    Type
REMARK                         _______ _______ _______ _____ _____    ______ ____
ROOT
ATOM      1  C   UNL     1       2.449   7.046  18.550  0.00  0.00    +0.000 C 
ATOM      2  C   UNL     1       2.403   7.385  19.847  0.00  0.00    +0.000 C 
ENDROOT
BRANCH   2   3
ATOM      3  C   UNL     1       1.450   8.385  20.399  0.00  0.00    +0.000 A 
ATOM      4  N   UNL     1       0.810   9.180  19.601  0.00  0.00    +0.000 NA
ATOM      5  C   UNL     1      -0.034  10.151  20.169  0.00  0.00    +0.000 A 
ATOM      6  C   UNL     1      -0.801  10.963  19.333  0.00  0.00    +0.000 A 
ATOM      7  C   UNL     1      -1.654  11.933  19.872  0.00  0.00    +0.000 A 
ATOM      8  C   UNL     1      -1.731  12.115  21.253  0.00  0.00    +0.000 A 
ATOM      9  C   UNL     1      -0.958  11.325  22.101  0.00  0.00    +0.000 A 
ATOM     10  C   UNL     1      -0.129  10.345  21.550  0.00  0.00    +0.000 A 
ATOM     11  C   UNL     1       0.651   9.448  22.410  0.00  0.00    +0.000 A 
ATOM     12  O   UNL     1       0.725   9.595  23.625  0.00  0.00    +0.000 OA
ATOM     13  N   UNL     1       1.316   8.439  21.761  0.00  0.00    +0.000 N 
ATOM     14  H   UNL     1       1.805   7.806  22.371  0.00  0.00    +0.000 HD
ENDBRANCH   2   3
BRANCH   1  20
ATOM     15  C   UNL     1       2.627   4.626  17.796  0.00  0.00    +0.000 A 
ATOM     16  C   UNL     1       3.309   3.645  17.066  0.00  0.00    +0.000 A 
ATOM     17  C   UNL     1       4.570   3.912  16.546  0.00  0.00    +0.000 A 
ATOM     18  C   UNL     1       5.149   5.161  16.746  0.00  0.00    +0.000 A 
ATOM     19  C   UNL     1       4.465   6.148  17.463  0.00  0.00    +0.000 A 
ATOM     20  C   UNL     1       3.187   5.900  17.994  0.00  0.00    +0.000 A 
BRANCH  15  21
ATOM     21  O   UNL     1       1.286   4.384  18.159  0.00  0.00    +0.000 OA
BRANCH  21  23
ATOM     22  C   UNL     1       1.262   3.836  20.452  0.00  0.00    +0.000 C 
ATOM     23  C   UNL     1       1.057   3.346  19.049  0.00  0.00    +0.000 C 
ATOM     24  O   UNL     1       0.738   2.197  18.769  0.00  0.00    +0.000 OA
ENDBRANCH  21  23
ENDBRANCH  15  21
ENDBRANCH   1  20
TORSDOF 4
ENDMDL
MODEL 5
REMARK VINA RESULT:      -8.2      4.817      6.440
REMARK  Name = 
REMARK  5 active torsions:
REMARK  status: ('A' for Active; 'I' for Inactive)
REMARK    1  A    between atoms: C_1  and  C_2
REMARK    2  A    between atoms: C_2  and  O_4
REMARK    3  A    between atoms: O_4  and  C_5
REMARK    4  A    between atoms: C_10  and  C_11
REMARK    5  A    between atoms: C_12  and  C_13
REMARK                            x       y       z     vdW  Elec       q    Type
REMARK                         _______ _______ _______ _____ _____    ______ ____
ROOT
ATOM      1  C   UNL     1       5.589   3.541  15.747  0.00  0.00    +0.000 C 
ATOM      2  C   UNL     1       4.317   3.714  16.137  0.00  0.00    +0.000 C 
ENDROOT
BRANCH   2   3
ATOM      3  C   UNL     1       3.819   3.349  17.490  0.00  0.00    +0.000 A 
ATOM      4  N   UNL     1       2.670   3.787  17.899  0.00  0.00    +0.000 NA
ATOM      5  C   UNL     1       2.266   3.470  19.208  0.00  0.00    +0.000 A 
ATOM      6  C   UNL     1       0.998   3.855  19.644  0.00  0.00    +0.000 A 
ATOM      7  C   UNL     1       0.568   3.546  20.940  0.00  0.00    +0.000 A 
ATOM      8  C   UNL     1       1.413   2.868  21.819  0.00  0.00    +0.000 A 
ATOM      9  C   UNL     1       2.689   2.493  21.405  0.00  0.00    +0.000 A 
ATOM     10  C   UNL     1       3.096   2.787  20.102  0.00  0.00    +0.000 A 
ATOM     11  C   UNL     1       4.405   2.351  19.605  0.00  0.00    +0.000 A 
ATOM     12  O   UNL     1       5.252   1.840  20.330  0.00  0.00    +0.000 OA
ATOM     13  N   UNL     1       4.634   2.574  18.272  0.00  0.00    +0.000 N 
ATOM     14  H   UNL     1       5.518   2.225  17.939  0.00  0.00    +0.000 HD
ENDBRANCH   2   3
BRANCH   1  20
ATOM     15  C   UNL     1       7.198   5.084  14.528  0.00  0.00    +0.000 A 
ATOM     16  C   UNL     1       7.879   5.418  13.351  0.00  0.00    +0.000 A 
ATOM     17  C   UNL     1       7.547   4.798  12.152  0.00  0.00    +0.000 A 
ATOM     18  C   UNL     1       6.541   3.838  12.127  0.00  0.00    +0.000 A 
ATOM     19  C   UNL     1       5.867   3.492  13.304  0.00  0.00    +0.000 A 
ATOM     20  C   UNL     1       6.191   4.104  14.527  0.00  0.00    +0.000 A 
BRANCH  15  21
ATOM     21  O   UNL     1       7.674   5.601  15.750  0.00  0.00    +0.000 OA
BRANCH  21  23
ATOM     22  C   UNL     1       7.217   6.441  17.906  0.00  0.00    +0.000 C 
ATOM     23  C   UNL     1       6.810   6.420  16.461  0.00  0.00    +0.000 C 
ATOM     24  O   UNL     1       5.855   7.042  16.014  0.00  0.00    +0.000 OA
ENDBRANCH  21  23
ENDBRANCH  15  21
ENDBRANCH   1  20
TORSDOF 4
ENDMDL
MODEL 6
REMARK VINA RESULT:      -8.1      1.615      2.568
REMARK  Name = 
REMARK  5 active torsions:
REMARK  status: ('A' for Active; 'I' for Inactive)
REMARK    1  A    between atoms: C_1  and  C_2
REMARK    2  A    between atoms: C_2  and  O_4
REMARK    3  A    between atoms: O_4  and  C_5
REMARK    4  A    between atoms: C_10  and  C_11
REMARK    5  A    between atoms: C_12  and  C_13
REMARK                            x       y       z     vdW  Elec       q    Type
REMARK                         _______ _______ _______ _____ _____    ______ ____
ROOT
ATOM      1  C   UNL     1       2.471   6.417  18.738  0.00  0.00    +0.000 C 
ATOM      2  C   UNL     1       2.194   6.815  19.989  0.00  0.00    +0.000 C 
ENDROOT
BRANCH   2   3
ATOM      3  C   UNL     1       1.483   8.082  20.307  0.00  0.00    +0.000 A 
ATOM      4  N   UNL     1       0.875   8.218  21.443  0.00  0.00    +0.000 NA
ATOM      5  C   UNL     1       0.163   9.408  21.676  0.00  0.00    +0.000 A 
ATOM      6  C   UNL     1      -0.428   9.617  22.922  0.00  0.00    +0.000 A 
ATOM      7  C   UNL     1      -1.137  10.795  23.184  0.00  0.00    +0.000 A 
ATOM      8  C   UNL     1      -1.279  11.767  22.191  0.00  0.00    +0.000 A 
ATOM      9  C   UNL     1      -0.711  11.564  20.936  0.00  0.00    +0.000 A 
ATOM     10  C   UNL     1       0.013  10.395  20.697  0.00  0.00    +0.000 A 
ATOM     11  C   UNL     1       0.684  10.173  19.411  0.00  0.00    +0.000 A 
ATOM     12  O   UNL     1       0.534  10.919  18.449  0.00  0.00    +0.000 OA
ATOM     13  N   UNL     1       1.478   9.057  19.345  0.00  0.00    +0.000 N 
ATOM     14  H   UNL     1       1.967   8.948  18.472  0.00  0.00    +0.000 HD
ENDBRANCH   2   3
BRANCH   1  20
ATOM     15  C   UNL     1       4.199   4.553  18.704  0.00  0.00    +0.000 A 
ATOM     16  C   UNL     1       4.499   3.202  18.499  0.00  0.00    +0.000 A 
ATOM     17  C   UNL     1       3.560   2.357  17.918  0.00  0.00    +0.000 A 
ATOM     18  C   UNL     1       2.316   2.859  17.549  0.00  0.00    +0.000 A 
ATOM     19  C   UNL     1       2.007   4.206  17.765  0.00  0.00    +0.000 A 
ATOM     20  C   UNL     1       2.941   5.076  18.354  0.00  0.00    +0.000 A 
BRANCH  15  21
ATOM     21  O   UNL     1       5.102   5.338  19.450  0.00  0.00    +0.000 OA
BRANCH  21  23
ATOM     22  C   UNL     1       6.321   6.261  17.654  0.00  0.00    +0.000 C 
ATOM     23  C   UNL     1       6.382   5.478  18.933  0.00  0.00    +0.000 C 
ATOM     24  O   UNL     1       7.419   5.043  19.416  0.00  0.00    +0.000 OA
ENDBRANCH  21  23
ENDBRANCH  15  21
ENDBRANCH   1  20
TORSDOF 4
ENDMDL
MODEL 7
REMARK VINA RESULT:      -8.1      1.508      1.824
REMARK  Name = 
REMARK  5 active torsions:
REMARK  status: ('A' for Active; 'I' for Inactive)
REMARK    1  A    between atoms: C_1  and  C_2
REMARK    2  A    between atoms: C_2  and  O_4
REMARK    3  A    between atoms: O_4  and  C_5
REMARK    4  A    between atoms: C_10  and  C_11
REMARK    5  A    between atoms: C_12  and  C_13
REMARK                            x       y       z     vdW  Elec       q    Type
REMARK                         _______ _______ _______ _____ _____    ______ ____
ROOT
ATOM      1  C   UNL     1       2.884   7.089  18.444  0.00  0.00    +0.000 C 
ATOM      2  C   UNL     1       2.386   7.249  19.680  0.00  0.00    +0.000 C 
ENDROOT
BRANCH   2   3
ATOM      3  C   UNL     1       1.513   8.389  20.070  0.00  0.00    +0.000 A 
ATOM      4  N   UNL     1       1.059   8.474  21.280  0.00  0.00    +0.000 NA
ATOM      5  C   UNL     1       0.187   9.533  21.588  0.00  0.00    +0.000 A 
ATOM      6  C   UNL     1      -0.249   9.698  22.903  0.00  0.00    +0.000 A 
ATOM      7  C   UNL     1      -1.111  10.748  23.239  0.00  0.00    +0.000 A 
ATOM      8  C   UNL     1      -1.564  11.630  22.256  0.00  0.00    +0.000 A 
ATOM      9  C   UNL     1      -1.153  11.467  20.936  0.00  0.00    +0.000 A 
ATOM     10  C   UNL     1      -0.274  10.430  20.619  0.00  0.00    +0.000 A 
ATOM     11  C   UNL     1       0.236  10.264  19.254  0.00  0.00    +0.000 A 
ATOM     12  O   UNL     1      -0.180  10.924  18.307  0.00  0.00    +0.000 OA
ATOM     13  N   UNL     1       1.198   9.299  19.096  0.00  0.00    +0.000 N 
ATOM     14  H   UNL     1       1.569   9.234  18.163  0.00  0.00    +0.000 HD
ENDBRANCH   2   3
BRANCH   1  20
ATOM     15  C   UNL     1       2.866   4.655  17.714  0.00  0.00    +0.000 A 
ATOM     16  C   UNL     1       3.490   3.604  17.031  0.00  0.00    +0.000 A 
ATOM     17  C   UNL     1       4.800   3.740  16.586  0.00  0.00    +0.000 A 
ATOM     18  C   UNL     1       5.486   4.928  16.814  0.00  0.00    +0.000 A 
ATOM     19  C   UNL     1       4.861   5.986  17.485  0.00  0.00    +0.000 A 
ATOM     20  C   UNL     1       3.536   5.870  17.939  0.00  0.00    +0.000 A 
BRANCH  15  21
ATOM     21  O   UNL     1       1.489   4.550  17.997  0.00  0.00    +0.000 OA
BRANCH  21  23
ATOM     22  C   UNL     1       1.193   3.857  20.232  0.00  0.00    +0.000 C 
ATOM     23  C   UNL     1       1.092   3.479  18.783  0.00  0.00    +0.000 C 
ATOM     24  O   UNL     1       0.715   2.382  18.391  0.00  0.00    +0.000 OA
ENDBRANCH  21  23
ENDBRANCH  15  21
ENDBRANCH   1  20
TORSDOF 4
ENDMDL
MODEL 8
REMARK VINA RESULT:      -8.0      2.137      3.441
REMARK  Name = 
REMARK  5 active torsions:
REMARK  status: ('A' for Active; 'I' for Inactive)
REMARK    1  A    between atoms: C_1  and  C_2
REMARK    2  A    between atoms: C_2  and  O_4
REMARK    3  A    between atoms: O_4  and  C_5
REMARK    4  A    between atoms: C_10  and  C_11
REMARK    5  A    between atoms: C_12  and  C_13
REMARK                            x       y       z     vdW  Elec       q    Type
REMARK                         _______ _______ _______ _____ _____    ______ ____
ROOT
ATOM      1  C   UNL     1       2.273   6.791  18.511  0.00  0.00    +0.000 C 
ATOM      2  C   UNL     1       2.267   7.143  19.806  0.00  0.00    +0.000 C 
ENDROOT
BRANCH   2   3
ATOM      3  C   UNL     1       1.492   8.296  20.337  0.00  0.00    +0.000 A 
ATOM      4  N   UNL     1       1.045   9.205  19.530  0.00  0.00    +0.000 NA
ATOM      5  C   UNL     1       0.372  10.309  20.081  0.00  0.00    +0.000 A 
ATOM      6  C   UNL     1      -0.195  11.259  19.230  0.00  0.00    +0.000 A 
ATOM      7  C   UNL     1      -0.876  12.364  19.752  0.00  0.00    +0.000 A 
ATOM      8  C   UNL     1      -0.976  12.542  21.133  0.00  0.00    +0.000 A 
ATOM      9  C   UNL     1      -0.400  11.614  21.995  0.00  0.00    +0.000 A 
ATOM     10  C   UNL     1       0.256  10.503  21.461  0.00  0.00    +0.000 A 
ATOM     11  C   UNL     1       0.819   9.468  22.334  0.00  0.00    +0.000 A 
ATOM     12  O   UNL     1       0.868   9.585  23.554  0.00  0.00    +0.000 OA
ATOM     13  N   UNL     1       1.313   8.360  21.694  0.00  0.00    +0.000 N 
ATOM     14  H   UNL     1       1.650   7.640  22.312  0.00  0.00    +0.000 HD
ENDBRANCH   2   3
BRANCH   1  20
ATOM     15  C   UNL     1       4.173   5.304  17.711  0.00  0.00    +0.000 A 
ATOM     16  C   UNL     1       4.645   4.021  17.410  0.00  0.00    +0.000 A 
ATOM     17  C   UNL     1       3.761   2.950  17.338  0.00  0.00    +0.000 A 
ATOM     18  C   UNL     1       2.406   3.157  17.576  0.00  0.00    +0.000 A 
ATOM     19  C   UNL     1       1.932   4.435  17.891  0.00  0.00    +0.000 A 
ATOM     20  C   UNL     1       2.810   5.530  17.973  0.00  0.00    +0.000 A 
BRANCH  15  21
ATOM     21  O   UNL     1       5.112   6.329  17.946  0.00  0.00    +0.000 OA
BRANCH  21  23
ATOM     22  C   UNL     1       7.357   6.787  17.385  0.00  0.00    +0.000 C 
ATOM     23  C   UNL     1       5.945   6.667  16.890  0.00  0.00    +0.000 C 
ATOM     24  O   UNL     1       5.614   6.850  15.725  0.00  0.00    +0.000 OA
ENDBRANCH  21  23
ENDBRANCH  15  21
ENDBRANCH   1  20
TORSDOF 4
ENDMDL
MODEL 9
REMARK VINA RESULT:      -7.9      1.655      2.700
REMARK  Name = 
REMARK  5 active torsions:
REMARK  status: ('A' for Active; 'I' for Inactive)
REMARK    1  A    between atoms: C_1  and  C_2
REMARK    2  A    between atoms: C_2  and  O_4
REMARK    3  A    between atoms: O_4  and  C_5
REMARK    4  A    between atoms: C_10  and  C_11
REMARK    5  A    between atoms: C_12  and  C_13
REMARK                            x       y       z     vdW  Elec       q    Type
REMARK                         _______ _______ _______ _____ _____    ______ ____
ROOT
ATOM      1  C   UNL     1       2.479   6.646  18.389  0.00  0.00    +0.000 C 
ATOM      2  C   UNL     1       2.273   6.965  19.676  0.00  0.00    +0.000 C 
ENDROOT
BRANCH   2   3
ATOM      3  C   UNL     1       1.559   8.195  20.110  0.00  0.00    +0.000 A 
ATOM      4  N   UNL     1       0.966   8.230  21.261  0.00  0.00    +0.000 NA
ATOM      5  C   UNL     1       0.250   9.391  21.604  0.00  0.00    +0.000 A 
ATOM      6  C   UNL     1      -0.326   9.489  22.871  0.00  0.00    +0.000 A 
ATOM      7  C   UNL     1      -1.038  10.635  23.241  0.00  0.00    +0.000 A 
ATOM      8  C   UNL     1      -1.200  11.687  22.337  0.00  0.00    +0.000 A 
ATOM      9  C   UNL     1      -0.647  11.596  21.062  0.00  0.00    +0.000 A 
ATOM     10  C   UNL     1       0.081  10.456  20.714  0.00  0.00    +0.000 A 
ATOM     11  C   UNL     1       0.735  10.350  19.406  0.00  0.00    +0.000 A 
ATOM     12  O   UNL     1       0.568  11.173  18.513  0.00  0.00    +0.000 OA
ATOM     13  N   UNL     1       1.535   9.249  19.234  0.00  0.00    +0.000 N 
ATOM     14  H   UNL     1       2.013   9.218  18.349  0.00  0.00    +0.000 HD
ENDBRANCH   2   3
BRANCH   1  20
ATOM     15  C   UNL     1       4.295   5.044  17.617  0.00  0.00    +0.000 A 
ATOM     16  C   UNL     1       4.707   3.730  17.367  0.00  0.00    +0.000 A 
ATOM     17  C   UNL     1       3.779   2.694  17.369  0.00  0.00    +0.000 A 
ATOM     18  C   UNL     1       2.441   2.968  17.630  0.00  0.00    +0.000 A 
ATOM     19  C   UNL     1       2.028   4.279  17.894  0.00  0.00    +0.000 A 
ATOM     20  C   UNL     1       2.950   5.339  17.900  0.00  0.00    +0.000 A 
BRANCH  15  21
ATOM     21  O   UNL     1       5.281   6.039  17.778  0.00  0.00    +0.000 OA
BRANCH  21  23
ATOM     22  C   UNL     1       5.200   6.627  15.495  0.00  0.00    +0.000 C 
ATOM     23  C   UNL     1       6.075   6.317  16.675  0.00  0.00    +0.000 C 
ATOM     24  O   UNL     1       7.298   6.316  16.634  0.00  0.00    +0.000 OA
ENDBRANCH  21  23
ENDBRANCH  15  21
ENDBRANCH   1  20
TORSDOF 4
ENDMDL
