MODEL 1
REMARK VINA RESULT:      -9.2      0.000      0.000
REMARK  Name = 
REMARK  8 active torsions:
REMARK  status: ('A' for Active; 'I' for Inactive)
REMARK    1  A    between atoms: C_1  and  C_2
REMARK    2  A    between atoms: C_4  and  C_5
REMARK    3  A    between atoms: N_6  and  C_7
REMARK    4  A    between atoms: C_11  and  S_12
REMARK    5  A    between atoms: S_12  and  C_15
REMARK    6  A    between atoms: C_18  and  N_19
REMARK    7  A    between atoms: C_20  and  C_22
REMARK    8  A    between atoms: C_23  and  C_24
REMARK                            x       y       z     vdW  Elec       q    Type
REMARK                         _______ _______ _______ _____ _____    ______ ____
ROOT
ATOM      1  C   UNL     1       1.425   8.099  20.408  0.00  0.00    +0.000 A 
ATOM      2  C   UNL     1       1.699   6.764  20.682  0.00  0.00    +0.000 A 
ATOM      3  C   UNL     1       2.405   6.006  19.749  0.00  0.00    +0.000 A 
ATOM      4  C   UNL     1       2.826   6.543  18.525  0.00  0.00    +0.000 A 
ATOM      5  C   UNL     1       2.541   7.891  18.264  0.00  0.00    +0.000 A 
ATOM      6  C   UNL     1       1.838   8.667  19.200  0.00  0.00    +0.000 A 
ENDROOT
BRANCH   4   7
ATOM      7  N   UNL     1       3.513   5.770  17.549  0.00  0.00    +0.000 N 
ATOM      8  C   UNL     1       4.763   5.203  17.733  0.00  0.00    +0.000 C 
ATOM      9  O   UNL     1       5.467   5.295  18.732  0.00  0.00    +0.000 OA
ATOM     10  H   UNL     1       3.033   5.614  16.674  0.00  0.00    +0.000 HD
BRANCH   8  11
ATOM     11  C   UNL     1       5.276   4.438  16.566  0.00  0.00    +0.000 C 
ATOM     12  C   UNL     1       5.517   5.136  15.438  0.00  0.00    +0.000 C 
BRANCH  12  13
ATOM     13  C   UNL     1       6.015   4.583  14.177  0.00  0.00    +0.000 A 
ATOM     14  C   UNL     1       5.289   3.663  13.420  0.00  0.00    +0.000 A 
ATOM     15  C   UNL     1       5.800   3.206  12.210  0.00  0.00    +0.000 A 
ATOM     16  C   UNL     1       7.023   3.694  11.782  0.00  0.00    +0.000 A 
ATOM     17  N   UNL     1       7.749   4.600  12.471  0.00  0.00    +0.000 NA
ATOM     18  C   UNL     1       7.225   5.029  13.645  0.00  0.00    +0.000 A 
ENDBRANCH  12  13
ENDBRANCH   8  11
ENDBRANCH   4   7
BRANCH   1  19
ATOM     19  S   UNL     1       0.467   9.062  21.553  0.00  0.00    +0.000 S 
ATOM     20  O   UNL     1       1.400   9.576  22.539  0.00  0.00    +0.000 OA
ATOM     21  O   UNL     1      -0.667   8.248  21.973  0.00  0.00    +0.000 OA
BRANCH  19  26
ATOM     22  C   UNL     1      -1.662  11.435  19.048  0.00  0.00    +0.000 A 
ATOM     23  C   UNL     1      -1.048  12.678  19.261  0.00  0.00    +0.000 A 
ATOM     24  C   UNL     1      -0.003  12.810  20.169  0.00  0.00    +0.000 A 
ATOM     25  C   UNL     1       0.433  11.699  20.878  0.00  0.00    +0.000 A 
ATOM     26  C   UNL     1      -0.211  10.467  20.707  0.00  0.00    +0.000 A 
ATOM     27  C   UNL     1      -1.288  10.331  19.824  0.00  0.00    +0.000 A 
BRANCH  22  33
ATOM     28  C   UNL     1      -3.280  10.327  14.625  0.00  0.00    +0.000 C 
ATOM     29  C   UNL     1      -3.313  10.799  16.031  0.00  0.00    +0.000 A 
ATOM     30  C   UNL     1      -4.441  11.208  16.765  0.00  0.00    +0.000 A 
ATOM     31  C   UNL     1      -3.968  11.529  18.019  0.00  0.00    +0.000 A 
ATOM     32  C   UNL     1      -4.696  12.164  19.147  0.00  0.00    +0.000 C 
ATOM     33  N   UNL     1      -2.604  11.263  17.996  0.00  0.00    +0.000 N 
ATOM     34  N   UNL     1      -2.191  10.903  16.750  0.00  0.00    +0.000 NA
ENDBRANCH  22  33
ENDBRANCH  19  26
ENDBRANCH   1  19
TORSDOF 6
ENDMDL
MODEL 2
REMARK VINA RESULT:      -8.5      0.715      1.713
REMARK  Name = 
REMARK  8 active torsions:
REMARK  status: ('A' for Active; 'I' for Inactive)
REMARK    1  A    between atoms: C_1  and  C_2
REMARK    2  A    between atoms: C_4  and  C_5
REMARK    3  A    between atoms: N_6  and  C_7
REMARK    4  A    between atoms: C_11  and  S_12
REMARK    5  A    between atoms: S_12  and  C_15
REMARK    6  A    between atoms: C_18  and  N_19
REMARK    7  A    between atoms: C_20  and  C_22
REMARK    8  A    between atoms: C_23  and  C_24
REMARK                            x       y       z     vdW  Elec       q    Type
REMARK                         _______ _______ _______ _____ _____    ______ ____
ROOT
ATOM      1  C   UNL     1       1.466   8.276  20.148  0.00  0.00    +0.000 A 
ATOM      2  C   UNL     1       1.812   8.853  18.932  0.00  0.00    +0.000 A 
ATOM      3  C   UNL     1       2.586   8.128  18.027  0.00  0.00    +0.000 A 
ATOM      4  C   UNL     1       3.052   6.839  18.318  0.00  0.00    +0.000 A 
ATOM      5  C   UNL     1       2.694   6.271  19.549  0.00  0.00    +0.000 A 
ATOM      6  C   UNL     1       1.908   6.988  20.465  0.00  0.00    +0.000 A 
ENDROOT
BRANCH   4   7
ATOM      7  N   UNL     1       3.874   6.105  17.419  0.00  0.00    +0.000 N 
ATOM      8  C   UNL     1       5.070   5.498  17.765  0.00  0.00    +0.000 C 
ATOM      9  O   UNL     1       5.607   5.517  18.866  0.00  0.00    +0.000 OA
ATOM     10  H   UNL     1       3.537   6.010  16.471  0.00  0.00    +0.000 HD
BRANCH   8  11
ATOM     11  C   UNL     1       5.751   4.787  16.650  0.00  0.00    +0.000 C 
ATOM     12  C   UNL     1       5.445   5.182  15.399  0.00  0.00    +0.000 C 
BRANCH  12  13
ATOM     13  C   UNL     1       5.991   4.617  14.163  0.00  0.00    +0.000 A 
ATOM     14  C   UNL     1       5.311   3.659  13.409  0.00  0.00    +0.000 A 
ATOM     15  C   UNL     1       5.867   3.191  12.223  0.00  0.00    +0.000 A 
ATOM     16  C   UNL     1       7.085   3.706  11.814  0.00  0.00    +0.000 A 
ATOM     17  N   UNL     1       7.765   4.649  12.500  0.00  0.00    +0.000 NA
ATOM     18  C   UNL     1       7.199   5.087  13.650  0.00  0.00    +0.000 A 
ENDBRANCH  12  13
ENDBRANCH   8  11
ENDBRANCH   4   7
BRANCH   1  19
ATOM     19  S   UNL     1       0.539   9.208  21.342  0.00  0.00    +0.000 S 
ATOM     20  O   UNL     1       1.490   9.652  22.345  0.00  0.00    +0.000 OA
ATOM     21  O   UNL     1      -0.613   8.404  21.731  0.00  0.00    +0.000 OA
BRANCH  19  26
ATOM     22  C   UNL     1      -1.813  11.812  19.312  0.00  0.00    +0.000 A 
ATOM     23  C   UNL     1      -0.949  12.908  19.170  0.00  0.00    +0.000 A 
ATOM     24  C   UNL     1       0.338  12.873  19.696  0.00  0.00    +0.000 A 
ATOM     25  C   UNL     1       0.769  11.743  20.377  0.00  0.00    +0.000 A 
ATOM     26  C   UNL     1      -0.108  10.667  20.567  0.00  0.00    +0.000 A 
ATOM     27  C   UNL     1      -1.417  10.707  20.074  0.00  0.00    +0.000 A 
BRANCH  22  33
ATOM     28  C   UNL     1      -6.567  12.392  18.627  0.00  0.00    +0.000 C 
ATOM     29  C   UNL     1      -5.164  12.009  18.332  0.00  0.00    +0.000 A 
ATOM     30  C   UNL     1      -4.661  11.487  17.128  0.00  0.00    +0.000 A 
ATOM     31  C   UNL     1      -3.309  11.317  17.336  0.00  0.00    +0.000 A 
ATOM     32  C   UNL     1      -2.313  10.653  16.456  0.00  0.00    +0.000 C 
ATOM     33  N   UNL     1      -3.057  11.778  18.623  0.00  0.00    +0.000 N 
ATOM     34  N   UNL     1      -4.210  12.116  19.262  0.00  0.00    +0.000 NA
ENDBRANCH  22  33
ENDBRANCH  19  26
ENDBRANCH   1  19
TORSDOF 6
ENDMDL
MODEL 3
REMARK VINA RESULT:      -8.4      5.798      8.196
REMARK  Name = 
REMARK  8 active torsions:
REMARK  status: ('A' for Active; 'I' for Inactive)
REMARK    1  A    between atoms: C_1  and  C_2
REMARK    2  A    between atoms: C_4  and  C_5
REMARK    3  A    between atoms: N_6  and  C_7
REMARK    4  A    between atoms: C_11  and  S_12
REMARK    5  A    between atoms: S_12  and  C_15
REMARK    6  A    between atoms: C_18  and  N_19
REMARK    7  A    between atoms: C_20  and  C_22
REMARK    8  A    between atoms: C_23  and  C_24
REMARK                            x       y       z     vdW  Elec       q    Type
REMARK                         _______ _______ _______ _____ _____    ______ ____
ROOT
ATOM      1  C   UNL     1       6.075   5.711  18.259  0.00  0.00    +0.000 A 
ATOM      2  C   UNL     1       7.322   5.819  18.865  0.00  0.00    +0.000 A 
ATOM      3  C   UNL     1       8.090   6.963  18.650  0.00  0.00    +0.000 A 
ATOM      4  C   UNL     1       7.653   8.001  17.816  0.00  0.00    +0.000 A 
ATOM      5  C   UNL     1       6.394   7.876  17.212  0.00  0.00    +0.000 A 
ATOM      6  C   UNL     1       5.608   6.733  17.427  0.00  0.00    +0.000 A 
ENDROOT
BRANCH   4   7
ATOM      7  N   UNL     1       8.444   9.155  17.558  0.00  0.00    +0.000 N 
ATOM      8  C   UNL     1       8.987   9.970  18.537  0.00  0.00    +0.000 C 
ATOM      9  O   UNL     1       8.857   9.842  19.749  0.00  0.00    +0.000 OA
ATOM     10  H   UNL     1       8.630   9.369  16.588  0.00  0.00    +0.000 HD
BRANCH   8  11
ATOM     11  C   UNL     1       9.777  11.119  18.020  0.00  0.00    +0.000 C 
ATOM     12  C   UNL     1       9.277  12.351  18.243  0.00  0.00    +0.000 C 
BRANCH  12  13
ATOM     13  C   UNL     1       9.885  13.613  17.817  0.00  0.00    +0.000 A 
ATOM     14  C   UNL     1      11.093  13.669  17.122  0.00  0.00    +0.000 A 
ATOM     15  C   UNL     1      11.599  14.898  16.710  0.00  0.00    +0.000 A 
ATOM     16  C   UNL     1      10.870  16.041  16.993  0.00  0.00    +0.000 A 
ATOM     17  N   UNL     1       9.687  16.031  17.642  0.00  0.00    +0.000 NA
ATOM     18  C   UNL     1       9.219  14.820  18.030  0.00  0.00    +0.000 A 
ENDBRANCH  12  13
ENDBRANCH   8  11
ENDBRANCH   4   7
BRANCH   1  19
ATOM     19  S   UNL     1       5.113   4.233  18.465  0.00  0.00    +0.000 S 
ATOM     20  O   UNL     1       5.839   3.397  19.403  0.00  0.00    +0.000 OA
ATOM     21  O   UNL     1       4.789   3.730  17.135  0.00  0.00    +0.000 OA
BRANCH  19  26
ATOM     22  C   UNL     1       1.957   6.261  20.002  0.00  0.00    +0.000 A 
ATOM     23  C   UNL     1       1.265   5.233  20.660  0.00  0.00    +0.000 A 
ATOM     24  C   UNL     1       1.737   3.925  20.632  0.00  0.00    +0.000 A 
ATOM     25  C   UNL     1       2.903   3.633  19.937  0.00  0.00    +0.000 A 
ATOM     26  C   UNL     1       3.568   4.646  19.235  0.00  0.00    +0.000 A 
ATOM     27  C   UNL     1       3.082   5.958  19.226  0.00  0.00    +0.000 A 
BRANCH  22  33
ATOM     28  C   UNL     1       0.227  10.162  22.281  0.00  0.00    +0.000 C 
ATOM     29  C   UNL     1       0.784   9.338  21.181  0.00  0.00    +0.000 A 
ATOM     30  C   UNL     1       1.148   9.771  19.894  0.00  0.00    +0.000 A 
ATOM     31  C   UNL     1       1.631   8.652  19.251  0.00  0.00    +0.000 A 
ATOM     32  C   UNL     1       2.009   8.496  17.822  0.00  0.00    +0.000 C 
ATOM     33  N   UNL     1       1.575   7.620  20.180  0.00  0.00    +0.000 N 
ATOM     34  N   UNL     1       0.971   8.023  21.331  0.00  0.00    +0.000 NA
ENDBRANCH  22  33
ENDBRANCH  19  26
ENDBRANCH   1  19
TORSDOF 6
ENDMDL
MODEL 4
REMARK VINA RESULT:      -8.1      3.616     10.832
REMARK  Name = 
REMARK  8 active torsions:
REMARK  status: ('A' for Active; 'I' for Inactive)
REMARK    1  A    between atoms: C_1  and  C_2
REMARK    2  A    between atoms: C_4  and  C_5
REMARK    3  A    between atoms: N_6  and  C_7
REMARK    4  A    between atoms: C_11  and  S_12
REMARK    5  A    between atoms: S_12  and  C_15
REMARK    6  A    between atoms: C_18  and  N_19
REMARK    7  A    between atoms: C_20  and  C_22
REMARK    8  A    between atoms: C_23  and  C_24
REMARK                            x       y       z     vdW  Elec       q    Type
REMARK                         _______ _______ _______ _____ _____    ______ ____
ROOT
ATOM      1  C   UNL     1       2.317   5.343  18.947  0.00  0.00    +0.000 A 
ATOM      2  C   UNL     1       1.771   5.094  20.201  0.00  0.00    +0.000 A 
ATOM      3  C   UNL     1       1.353   6.165  20.989  0.00  0.00    +0.000 A 
ATOM      4  C   UNL     1       1.492   7.494  20.568  0.00  0.00    +0.000 A 
ATOM      5  C   UNL     1       2.046   7.728  19.301  0.00  0.00    +0.000 A 
ATOM      6  C   UNL     1       2.464   6.658  18.494  0.00  0.00    +0.000 A 
ENDROOT
BRANCH   4   7
ATOM      7  N   UNL     1       1.105   8.595  21.379  0.00  0.00    +0.000 N 
ATOM      8  C   UNL     1       0.097   9.490  21.061  0.00  0.00    +0.000 C 
ATOM      9  O   UNL     1      -0.588   9.488  20.045  0.00  0.00    +0.000 OA
ATOM     10  H   UNL     1       1.596   8.707  22.256  0.00  0.00    +0.000 HD
BRANCH   8  11
ATOM     11  C   UNL     1      -0.123  10.562  22.069  0.00  0.00    +0.000 C 
ATOM     12  C   UNL     1      -1.107  11.446  21.812  0.00  0.00    +0.000 C 
BRANCH  12  13
ATOM     13  C   UNL     1      -1.487  12.577  22.662  0.00  0.00    +0.000 A 
ATOM     14  C   UNL     1      -2.700  12.628  23.348  0.00  0.00    +0.000 A 
ATOM     15  C   UNL     1      -2.985  13.713  24.171  0.00  0.00    +0.000 A 
ATOM     16  C   UNL     1      -2.037  14.714  24.297  0.00  0.00    +0.000 A 
ATOM     17  N   UNL     1      -0.841  14.694  23.670  0.00  0.00    +0.000 NA
ATOM     18  C   UNL     1      -0.592  13.624  22.877  0.00  0.00    +0.000 A 
ENDBRANCH  12  13
ENDBRANCH   8  11
ENDBRANCH   4   7
BRANCH   1  19
ATOM     19  S   UNL     1       2.919   3.998  17.956  0.00  0.00    +0.000 S 
ATOM     20  O   UNL     1       1.960   3.817  16.882  0.00  0.00    +0.000 OA
ATOM     21  O   UNL     1       3.229   2.893  18.855  0.00  0.00    +0.000 OA
BRANCH  19  26
ATOM     22  C   UNL     1       6.457   5.803  17.144  0.00  0.00    +0.000 A 
ATOM     23  C   UNL     1       6.709   5.340  15.844  0.00  0.00    +0.000 A 
ATOM     24  C   UNL     1       5.824   4.473  15.213  0.00  0.00    +0.000 A 
ATOM     25  C   UNL     1       4.681   4.054  15.882  0.00  0.00    +0.000 A 
ATOM     26  C   UNL     1       4.453   4.472  17.199  0.00  0.00    +0.000 A 
ATOM     27  C   UNL     1       5.355   5.316  17.857  0.00  0.00    +0.000 A 
BRANCH  22  33
ATOM     28  C   UNL     1       8.483  10.171  17.617  0.00  0.00    +0.000 C 
ATOM     29  C   UNL     1       8.181   8.749  17.910  0.00  0.00    +0.000 A 
ATOM     30  C   UNL     1       8.657   7.983  18.988  0.00  0.00    +0.000 A 
ATOM     31  C   UNL     1       8.082   6.739  18.839  0.00  0.00    +0.000 A 
ATOM     32  C   UNL     1       8.355   5.496  19.605  0.00  0.00    +0.000 C 
ATOM     33  N   UNL     1       7.265   6.824  17.718  0.00  0.00    +0.000 N 
ATOM     34  N   UNL     1       7.399   8.029  17.099  0.00  0.00    +0.000 NA
ENDBRANCH  22  33
ENDBRANCH  19  26
ENDBRANCH   1  19
TORSDOF 6
ENDMDL
MODEL 5
REMARK VINA RESULT:      -8.0      5.799      8.228
REMARK  Name = 
REMARK  8 active torsions:
REMARK  status: ('A' for Active; 'I' for Inactive)
REMARK    1  A    between atoms: C_1  and  C_2
REMARK    2  A    between atoms: C_4  and  C_5
REMARK    3  A    between atoms: N_6  and  C_7
REMARK    4  A    between atoms: C_11  and  S_12
REMARK    5  A    between atoms: S_12  and  C_15
REMARK    6  A    between atoms: C_18  and  N_19
REMARK    7  A    between atoms: C_20  and  C_22
REMARK    8  A    between atoms: C_23  and  C_24
REMARK                            x       y       z     vdW  Elec       q    Type
REMARK                         _______ _______ _______ _____ _____    ______ ____
ROOT
ATOM      1  C   UNL     1       6.225   5.958  17.935  0.00  0.00    +0.000 A 
ATOM      2  C   UNL     1       5.798   7.040  17.174  0.00  0.00    +0.000 A 
ATOM      3  C   UNL     1       6.584   8.190  17.120  0.00  0.00    +0.000 A 
ATOM      4  C   UNL     1       7.783   8.301  17.836  0.00  0.00    +0.000 A 
ATOM      5  C   UNL     1       8.200   7.201  18.600  0.00  0.00    +0.000 A 
ATOM      6  C   UNL     1       7.421   6.034  18.655  0.00  0.00    +0.000 A 
ENDROOT
BRANCH   4   7
ATOM      7  N   UNL     1       8.573   9.484  17.820  0.00  0.00    +0.000 N 
ATOM      8  C   UNL     1       9.107  10.088  18.946  0.00  0.00    +0.000 C 
ATOM      9  O   UNL     1       8.966   9.722  20.107  0.00  0.00    +0.000 OA
ATOM     10  H   UNL     1       8.768   9.886  16.913  0.00  0.00    +0.000 HD
BRANCH   8  11
ATOM     11  C   UNL     1       9.899  11.318  18.675  0.00  0.00    +0.000 C 
ATOM     12  C   UNL     1       9.262  12.327  18.050  0.00  0.00    +0.000 C 
BRANCH  12  13
ATOM     13  C   UNL     1       9.851  13.616  17.683  0.00  0.00    +0.000 A 
ATOM     14  C   UNL     1       9.269  14.836  18.030  0.00  0.00    +0.000 A 
ATOM     15  C   UNL     1       9.900  16.027  17.685  0.00  0.00    +0.000 A 
ATOM     16  C   UNL     1      11.108  15.964  17.012  0.00  0.00    +0.000 A 
ATOM     17  N   UNL     1      11.719  14.808  16.678  0.00  0.00    +0.000 NA
ATOM     18  C   UNL     1      11.081  13.664  17.027  0.00  0.00    +0.000 A 
ENDBRANCH  12  13
ENDBRANCH   8  11
ENDBRANCH   4   7
BRANCH   1  19
ATOM     19  S   UNL     1       5.206   4.510  18.072  0.00  0.00    +0.000 S 
ATOM     20  O   UNL     1       5.982   3.528  18.807  0.00  0.00    +0.000 OA
ATOM     21  O   UNL     1       4.703   4.198  16.739  0.00  0.00    +0.000 OA
BRANCH  19  26
ATOM     22  C   UNL     1       2.182   6.453  19.949  0.00  0.00    +0.000 A 
ATOM     23  C   UNL     1       1.719   5.459  20.823  0.00  0.00    +0.000 A 
ATOM     24  C   UNL     1       2.304   4.197  20.841  0.00  0.00    +0.000 A 
ATOM     25  C   UNL     1       3.354   3.917  19.977  0.00  0.00    +0.000 A 
ATOM     26  C   UNL     1       3.785   4.889  19.066  0.00  0.00    +0.000 A 
ATOM     27  C   UNL     1       3.180   6.150  19.014  0.00  0.00    +0.000 A 
BRANCH  22  33
ATOM     28  C   UNL     1       0.160  10.333  22.014  0.00  0.00    +0.000 C 
ATOM     29  C   UNL     1       0.787   9.496  20.962  0.00  0.00    +0.000 A 
ATOM     30  C   UNL     1       1.139   9.890  19.659  0.00  0.00    +0.000 A 
ATOM     31  C   UNL     1       1.706   8.777  19.077  0.00  0.00    +0.000 A 
ATOM     32  C   UNL     1       2.114   8.579  17.662  0.00  0.00    +0.000 C 
ATOM     33  N   UNL     1       1.707   7.790  20.055  0.00  0.00    +0.000 N 
ATOM     34  N   UNL     1       1.060   8.206  21.179  0.00  0.00    +0.000 NA
ENDBRANCH  22  33
ENDBRANCH  19  26
ENDBRANCH   1  19
TORSDOF 6
ENDMDL
MODEL 6
REMARK VINA RESULT:      -8.0      3.386     11.005
REMARK  Name = 
REMARK  8 active torsions:
REMARK  status: ('A' for Active; 'I' for Inactive)
REMARK    1  A    between atoms: C_1  and  C_2
REMARK    2  A    between atoms: C_4  and  C_5
REMARK    3  A    between atoms: N_6  and  C_7
REMARK    4  A    between atoms: C_11  and  S_12
REMARK    5  A    between atoms: S_12  and  C_15
REMARK    6  A    between atoms: C_18  and  N_19
REMARK    7  A    between atoms: C_20  and  C_22
REMARK    8  A    between atoms: C_23  and  C_24
REMARK                            x       y       z     vdW  Elec       q    Type
REMARK                         _______ _______ _______ _____ _____    ______ ____
ROOT
ATOM      1  C   UNL     1       2.850   5.529  18.973  0.00  0.00    +0.000 A 
ATOM      2  C   UNL     1       2.149   5.557  20.174  0.00  0.00    +0.000 A 
ATOM      3  C   UNL     1       1.545   6.745  20.584  0.00  0.00    +0.000 A 
ATOM      4  C   UNL     1       1.648   7.925  19.835  0.00  0.00    +0.000 A 
ATOM      5  C   UNL     1       2.359   7.880  18.628  0.00  0.00    +0.000 A 
ATOM      6  C   UNL     1       2.964   6.688  18.199  0.00  0.00    +0.000 A 
ENDROOT
BRANCH   4   7
ATOM      7  N   UNL     1       1.069   9.152  20.263  0.00  0.00    +0.000 N 
ATOM      8  C   UNL     1       1.057   9.601  21.573  0.00  0.00    +0.000 C 
ATOM      9  O   UNL     1       1.510   9.015  22.550  0.00  0.00    +0.000 OA
ATOM     10  H   UNL     1       0.662   9.736  19.545  0.00  0.00    +0.000 HD
BRANCH   8  11
ATOM     11  C   UNL     1       0.391  10.916  21.773  0.00  0.00    +0.000 C 
ATOM     12  C   UNL     1      -0.757  10.916  22.479  0.00  0.00    +0.000 C 
BRANCH  12  13
ATOM     13  C   UNL     1      -1.574  12.092  22.786  0.00  0.00    +0.000 A 
ATOM     14  C   UNL     1      -2.775  12.009  23.491  0.00  0.00    +0.000 A 
ATOM     15  C   UNL     1      -3.486  13.169  23.786  0.00  0.00    +0.000 A 
ATOM     16  C   UNL     1      -2.964  14.385  23.379  0.00  0.00    +0.000 A 
ATOM     17  N   UNL     1      -1.795  14.513  22.716  0.00  0.00    +0.000 NA
ATOM     18  C   UNL     1      -1.125  13.367  22.444  0.00  0.00    +0.000 A 
ENDBRANCH  12  13
ENDBRANCH   8  11
ENDBRANCH   4   7
BRANCH   1  19
ATOM     19  S   UNL     1       3.684   4.045  18.467  0.00  0.00    +0.000 S 
ATOM     20  O   UNL     1       2.781   3.354  17.564  0.00  0.00    +0.000 OA
ATOM     21  O   UNL     1       4.169   3.379  19.670  0.00  0.00    +0.000 OA
BRANCH  19  26
ATOM     22  C   UNL     1       6.345   4.544  15.448  0.00  0.00    +0.000 A 
ATOM     23  C   UNL     1       7.484   4.958  16.154  0.00  0.00    +0.000 A 
ATOM     24  C   UNL     1       7.453   5.103  17.537  0.00  0.00    +0.000 A 
ATOM     25  C   UNL     1       6.276   4.841  18.226  0.00  0.00    +0.000 A 
ATOM     26  C   UNL     1       5.122   4.479  17.520  0.00  0.00    +0.000 A 
ATOM     27  C   UNL     1       5.132   4.366  16.126  0.00  0.00    +0.000 A 
BRANCH  22  33
ATOM     28  C   UNL     1       5.291   2.269  11.311  0.00  0.00    +0.000 C 
ATOM     29  C   UNL     1       5.978   3.198  12.241  0.00  0.00    +0.000 A 
ATOM     30  C   UNL     1       6.979   4.133  11.925  0.00  0.00    +0.000 A 
ATOM     31  C   UNL     1       7.278   4.769  13.110  0.00  0.00    +0.000 A 
ATOM     32  C   UNL     1       8.370   5.737  13.392  0.00  0.00    +0.000 C 
ATOM     33  N   UNL     1       6.426   4.225  14.064  0.00  0.00    +0.000 N 
ATOM     34  N   UNL     1       5.695   3.199  13.548  0.00  0.00    +0.000 NA
ENDBRANCH  22  33
ENDBRANCH  19  26
ENDBRANCH   1  19
TORSDOF 6
ENDMDL
MODEL 7
REMARK VINA RESULT:      -7.8      3.608     10.982
REMARK  Name = 
REMARK  8 active torsions:
REMARK  status: ('A' for Active; 'I' for Inactive)
REMARK    1  A    between atoms: C_1  and  C_2
REMARK    2  A    between atoms: C_4  and  C_5
REMARK    3  A    between atoms: N_6  and  C_7
REMARK    4  A    between atoms: C_11  and  S_12
REMARK    5  A    between atoms: S_12  and  C_15
REMARK    6  A    between atoms: C_18  and  N_19
REMARK    7  A    between atoms: C_20  and  C_22
REMARK    8  A    between atoms: C_23  and  C_24
REMARK                            x       y       z     vdW  Elec       q    Type
REMARK                         _______ _______ _______ _____ _____    ______ ____
ROOT
ATOM      1  C   UNL     1       3.253   5.036  19.411  0.00  0.00    +0.000 A 
ATOM      2  C   UNL     1       3.228   6.330  18.903  0.00  0.00    +0.000 A 
ATOM      3  C   UNL     1       2.340   7.259  19.443  0.00  0.00    +0.000 A 
ATOM      4  C   UNL     1       1.447   6.920  20.469  0.00  0.00    +0.000 A 
ATOM      5  C   UNL     1       1.485   5.610  20.970  0.00  0.00    +0.000 A 
ATOM      6  C   UNL     1       2.381   4.668  20.440  0.00  0.00    +0.000 A 
ENDROOT
BRANCH   4   7
ATOM      7  N   UNL     1       0.510   7.848  21.001  0.00  0.00    +0.000 N 
ATOM      8  C   UNL     1       0.836   8.903  21.836  0.00  0.00    +0.000 C 
ATOM      9  O   UNL     1       1.953   9.184  22.257  0.00  0.00    +0.000 OA
ATOM     10  H   UNL     1      -0.455   7.727  20.724  0.00  0.00    +0.000 HD
BRANCH   8  11
ATOM     11  C   UNL     1      -0.318   9.737  22.264  0.00  0.00    +0.000 C 
ATOM     12  C   UNL     1      -0.105  11.063  22.374  0.00  0.00    +0.000 C 
BRANCH  12  13
ATOM     13  C   UNL     1      -1.095  12.060  22.784  0.00  0.00    +0.000 A 
ATOM     14  C   UNL     1      -0.896  13.431  22.618  0.00  0.00    +0.000 A 
ATOM     15  C   UNL     1      -1.893  14.326  22.993  0.00  0.00    +0.000 A 
ATOM     16  C   UNL     1      -3.073  13.821  23.511  0.00  0.00    +0.000 A 
ATOM     17  N   UNL     1      -3.318  12.503  23.667  0.00  0.00    +0.000 NA
ATOM     18  C   UNL     1      -2.329  11.655  23.293  0.00  0.00    +0.000 A 
ENDBRANCH  12  13
ENDBRANCH   8  11
ENDBRANCH   4   7
BRANCH   1  19
ATOM     19  S   UNL     1       4.328   3.820  18.691  0.00  0.00    +0.000 S 
ATOM     20  O   UNL     1       3.484   2.935  17.910  0.00  0.00    +0.000 OA
ATOM     21  O   UNL     1       5.163   3.282  19.758  0.00  0.00    +0.000 OA
BRANCH  19  26
ATOM     22  C   UNL     1       6.372   4.864  15.349  0.00  0.00    +0.000 A 
ATOM     23  C   UNL     1       7.336   5.736  15.878  0.00  0.00    +0.000 A 
ATOM     24  C   UNL     1       7.366   6.023  17.238  0.00  0.00    +0.000 A 
ATOM     25  C   UNL     1       6.424   5.446  18.081  0.00  0.00    +0.000 A 
ATOM     26  C   UNL     1       5.428   4.618  17.549  0.00  0.00    +0.000 A 
ATOM     27  C   UNL     1       5.367   4.351  16.177  0.00  0.00    +0.000 A 
BRANCH  22  33
ATOM     28  C   UNL     1       5.250   2.321  11.389  0.00  0.00    +0.000 C 
ATOM     29  C   UNL     1       5.972   3.287  12.253  0.00  0.00    +0.000 A 
ATOM     30  C   UNL     1       7.022   4.143  11.878  0.00  0.00    +0.000 A 
ATOM     31  C   UNL     1       7.340   4.856  13.014  0.00  0.00    +0.000 A 
ATOM     32  C   UNL     1       8.476   5.788  13.234  0.00  0.00    +0.000 C 
ATOM     33  N   UNL     1       6.452   4.432  13.995  0.00  0.00    +0.000 N 
ATOM     34  N   UNL     1       5.676   3.406  13.551  0.00  0.00    +0.000 NA
ENDBRANCH  22  33
ENDBRANCH  19  26
ENDBRANCH   1  19
TORSDOF 6
ENDMDL
MODEL 8
REMARK VINA RESULT:      -7.8      3.991      4.988
REMARK  Name = 
REMARK  8 active torsions:
REMARK  status: ('A' for Active; 'I' for Inactive)
REMARK    1  A    between atoms: C_1  and  C_2
REMARK    2  A    between atoms: C_4  and  C_5
REMARK    3  A    between atoms: N_6  and  C_7
REMARK    4  A    between atoms: C_11  and  S_12
REMARK    5  A    between atoms: S_12  and  C_15
REMARK    6  A    between atoms: C_18  and  N_19
REMARK    7  A    between atoms: C_20  and  C_22
REMARK    8  A    between atoms: C_23  and  C_24
REMARK                            x       y       z     vdW  Elec       q    Type
REMARK                         _______ _______ _______ _____ _____    ______ ____
ROOT
ATOM      1  C   UNL     1      -0.449  11.904  20.718  0.00  0.00    +0.000 A 
ATOM      2  C   UNL     1       0.202  11.069  21.620  0.00  0.00    +0.000 A 
ATOM      3  C   UNL     1       0.812   9.905  21.155  0.00  0.00    +0.000 A 
ATOM      4  C   UNL     1       0.766   9.534  19.804  0.00  0.00    +0.000 A 
ATOM      5  C   UNL     1       0.105  10.387  18.908  0.00  0.00    +0.000 A 
ATOM      6  C   UNL     1      -0.506  11.566  19.363  0.00  0.00    +0.000 A 
ENDROOT
BRANCH   4   7
ATOM      7  N   UNL     1       1.351   8.330  19.325  0.00  0.00    +0.000 N 
ATOM      8  C   UNL     1       2.205   8.249  18.237  0.00  0.00    +0.000 C 
ATOM      9  O   UNL     1       2.564   9.176  17.520  0.00  0.00    +0.000 OA
ATOM     10  H   UNL     1       1.135   7.485  19.837  0.00  0.00    +0.000 HD
BRANCH   8  11
ATOM     11  C   UNL     1       2.688   6.877  17.927  0.00  0.00    +0.000 C 
ATOM     12  C   UNL     1       2.330   5.898  18.781  0.00  0.00    +0.000 C 
BRANCH  12  13
ATOM     13  C   UNL     1       2.701   4.486  18.669  0.00  0.00    +0.000 A 
ATOM     14  C   UNL     1       2.171   3.644  17.690  0.00  0.00    +0.000 A 
ATOM     15  C   UNL     1       2.594   2.321  17.612  0.00  0.00    +0.000 A 
ATOM     16  C   UNL     1       3.550   1.879  18.511  0.00  0.00    +0.000 A 
ATOM     17  N   UNL     1       4.105   2.663  19.458  0.00  0.00    +0.000 NA
ATOM     18  C   UNL     1       3.675   3.947  19.509  0.00  0.00    +0.000 A 
ENDBRANCH  12  13
ENDBRANCH   8  11
ENDBRANCH   4   7
BRANCH   1  19
ATOM     19  S   UNL     1      -1.291  13.356  21.300  0.00  0.00    +0.000 S 
ATOM     20  O   UNL     1      -1.084  14.382  20.296  0.00  0.00    +0.000 OA
ATOM     21  O   UNL     1      -0.873  13.585  22.678  0.00  0.00    +0.000 OA
BRANCH  19  26
ATOM     22  C   UNL     1      -5.189  12.891  20.287  0.00  0.00    +0.000 A 
ATOM     23  C   UNL     1      -5.787  12.761  21.550  0.00  0.00    +0.000 A 
ATOM     24  C   UNL     1      -5.019  12.799  22.709  0.00  0.00    +0.000 A 
ATOM     25  C   UNL     1      -3.642  12.958  22.613  0.00  0.00    +0.000 A 
ATOM     26  C   UNL     1      -3.036  13.035  21.353  0.00  0.00    +0.000 A 
ATOM     27  C   UNL     1      -3.795  12.962  20.180  0.00  0.00    +0.000 A 
BRANCH  22  33
ATOM     28  C   UNL     1      -7.515  15.161  16.703  0.00  0.00    +0.000 C 
ATOM     29  C   UNL     1      -7.039  14.040  17.551  0.00  0.00    +0.000 A 
ATOM     30  C   UNL     1      -7.266  12.667  17.351  0.00  0.00    +0.000 A 
ATOM     31  C   UNL     1      -6.608  12.031  18.381  0.00  0.00    +0.000 A 
ATOM     32  C   UNL     1      -6.641  10.592  18.751  0.00  0.00    +0.000 C 
ATOM     33  N   UNL     1      -5.989  13.032  19.119  0.00  0.00    +0.000 N 
ATOM     34  N   UNL     1      -6.330  14.268  18.661  0.00  0.00    +0.000 NA
ENDBRANCH  22  33
ENDBRANCH  19  26
ENDBRANCH   1  19
TORSDOF 6
ENDMDL
MODEL 9
REMARK VINA RESULT:      -7.7      2.368      4.302
REMARK  Name = 
REMARK  8 active torsions:
REMARK  status: ('A' for Active; 'I' for Inactive)
REMARK    1  A    between atoms: C_1  and  C_2
REMARK    2  A    between atoms: C_4  and  C_5
REMARK    3  A    between atoms: N_6  and  C_7
REMARK    4  A    between atoms: C_11  and  S_12
REMARK    5  A    between atoms: S_12  and  C_15
REMARK    6  A    between atoms: C_18  and  N_19
REMARK    7  A    between atoms: C_20  and  C_22
REMARK    8  A    between atoms: C_23  and  C_24
REMARK                            x       y       z     vdW  Elec       q    Type
REMARK                         _______ _______ _______ _____ _____    ______ ____
ROOT
ATOM      1  C   UNL     1       1.469   8.224  20.374  0.00  0.00    +0.000 A 
ATOM      2  C   UNL     1       1.790   8.790  19.145  0.00  0.00    +0.000 A 
ATOM      3  C   UNL     1       2.488   8.032  18.206  0.00  0.00    +0.000 A 
ATOM      4  C   UNL     1       2.904   6.721  18.473  0.00  0.00    +0.000 A 
ATOM      5  C   UNL     1       2.573   6.166  19.718  0.00  0.00    +0.000 A 
ATOM      6  C   UNL     1       1.863   6.916  20.669  0.00  0.00    +0.000 A 
ENDROOT
BRANCH   4   7
ATOM      7  N   UNL     1       3.650   5.952  17.538  0.00  0.00    +0.000 N 
ATOM      8  C   UNL     1       4.789   5.226  17.848  0.00  0.00    +0.000 C 
ATOM      9  O   UNL     1       5.333   5.153  18.944  0.00  0.00    +0.000 OA
ATOM     10  H   UNL     1       3.300   5.926  16.590  0.00  0.00    +0.000 HD
BRANCH   8  11
ATOM     11  C   UNL     1       5.395   4.502  16.699  0.00  0.00    +0.000 C 
ATOM     12  C   UNL     1       5.439   5.156  15.521  0.00  0.00    +0.000 C 
BRANCH  12  13
ATOM     13  C   UNL     1       5.984   4.630  14.268  0.00  0.00    +0.000 A 
ATOM     14  C   UNL     1       5.294   3.713  13.474  0.00  0.00    +0.000 A 
ATOM     15  C   UNL     1       5.849   3.281  12.274  0.00  0.00    +0.000 A 
ATOM     16  C   UNL     1       7.078   3.792  11.893  0.00  0.00    +0.000 A 
ATOM     17  N   UNL     1       7.769   4.697  12.618  0.00  0.00    +0.000 NA
ATOM     18  C   UNL     1       7.203   5.100  13.781  0.00  0.00    +0.000 A 
ENDBRANCH  12  13
ENDBRANCH   8  11
ENDBRANCH   4   7
BRANCH   1  19
ATOM     19  S   UNL     1       0.641   9.195  21.609  0.00  0.00    +0.000 S 
ATOM     20  O   UNL     1       1.595   9.392  22.685  0.00  0.00    +0.000 OA
ATOM     21  O   UNL     1      -0.645   8.562  21.877  0.00  0.00    +0.000 OA
BRANCH  19  26
ATOM     22  C   UNL     1       0.782  13.140  20.685  0.00  0.00    +0.000 A 
ATOM     23  C   UNL     1      -0.469  13.324  20.077  0.00  0.00    +0.000 A 
ATOM     24  C   UNL     1      -1.353  12.260  19.930  0.00  0.00    +0.000 A 
ATOM     25  C   UNL     1      -0.988  10.999  20.384  0.00  0.00    +0.000 A 
ATOM     26  C   UNL     1       0.281  10.800  20.943  0.00  0.00    +0.000 A 
ATOM     27  C   UNL     1       1.191  11.856  21.063  0.00  0.00    +0.000 A 
BRANCH  22  33
ATOM     28  C   UNL     1       2.498  16.857  23.263  0.00  0.00    +0.000 C 
ATOM     29  C   UNL     1       2.346  15.917  22.126  0.00  0.00    +0.000 A 
ATOM     30  C   UNL     1       3.107  15.881  20.945  0.00  0.00    +0.000 A 
ATOM     31  C   UNL     1       2.605  14.825  20.215  0.00  0.00    +0.000 A 
ATOM     32  C   UNL     1       2.931  14.427  18.821  0.00  0.00    +0.000 C 
ATOM     33  N   UNL     1       1.607  14.257  20.996  0.00  0.00    +0.000 N 
ATOM     34  N   UNL     1       1.388  14.984  22.126  0.00  0.00    +0.000 NA
ENDBRANCH  22  33
ENDBRANCH  19  26
ENDBRANCH   1  19
TORSDOF 6
ENDMDL
