MODEL 1
REMARK VINA RESULT:      -5.8      0.000      0.000
REMARK  Name = 
REMARK  3 active torsions:
REMARK  status: ('A' for Active; 'I' for Inactive)
REMARK    1  A    between atoms: C_1  and  N_2
REMARK    2  A    between atoms: N_5  and  C_6
REMARK    3  A    between atoms: N_5  and  C_7
REMARK                            x       y       z     vdW  Elec       q    Type
REMARK                         _______ _______ _______ _____ _____    ______ ____
ROOT
ATOM      1  C   UNL     1       3.736   1.395  18.204  0.00  0.00    +0.000 C 
ATOM      2  N   UNL     1       3.624   2.831  18.001  0.00  0.00    +0.000 N 
ATOM      3  C   UNL     1       4.094   3.449  16.769  0.00  0.00    +0.000 C 
ATOM      4  C   UNL     1       5.330   4.343  16.952  0.00  0.00    +0.000 C 
ATOM      5  N   UNL     1       5.198   5.520  17.861  0.00  0.00    +0.000 N 
ATOM      6  C   UNL     1       6.499   6.238  17.824  0.00  0.00    +0.000 C 
ATOM      7  C   UNL     1       4.157   6.471  17.389  0.00  0.00    +0.000 C 
ATOM      8  C   UNL     1       4.957   5.104  19.273  0.00  0.00    +0.000 C 
ATOM      9  C   UNL     1       3.519   4.731  19.562  0.00  0.00    +0.000 A 
ATOM     10  C   UNL     1       2.779   5.506  20.473  0.00  0.00    +0.000 A 
ATOM     11  C   UNL     1       1.451   5.196  20.757  0.00  0.00    +0.000 A 
ATOM     12  C   UNL     1       0.848   4.094  20.147  0.00  0.00    +0.000 A 
ATOM     13  C   UNL     1       1.579   3.301  19.262  0.00  0.00    +0.000 A 
ATOM     14  C   UNL     1       2.914   3.620  18.948  0.00  0.00    +0.000 A 
ENDROOT
TORSDOF 0
ENDMDL
MODEL 2
REMARK VINA RESULT:      -5.7      1.561      4.612
REMARK  Name = 
REMARK  3 active torsions:
REMARK  status: ('A' for Active; 'I' for Inactive)
REMARK    1  A    between atoms: C_1  and  N_2
REMARK    2  A    between atoms: N_5  and  C_6
REMARK    3  A    between atoms: N_5  and  C_7
REMARK                            x       y       z     vdW  Elec       q    Type
REMARK                         _______ _______ _______ _____ _____    ______ ____
ROOT
ATOM      1  C   UNL     1       2.895   7.555  17.962  0.00  0.00    +0.000 C 
ATOM      2  N   UNL     1       3.177   6.135  17.815  0.00  0.00    +0.000 N 
ATOM      3  C   UNL     1       2.114   5.147  17.939  0.00  0.00    +0.000 C 
ATOM      4  C   UNL     1       2.230   4.259  19.187  0.00  0.00    +0.000 C 
ATOM      5  N   UNL     1       3.457   3.418  19.320  0.00  0.00    +0.000 N 
ATOM      6  C   UNL     1       3.300   2.629  20.570  0.00  0.00    +0.000 C 
ATOM      7  C   UNL     1       3.588   2.449  18.200  0.00  0.00    +0.000 C 
ATOM      8  C   UNL     1       4.685   4.251  19.468  0.00  0.00    +0.000 C 
ATOM      9  C   UNL     1       5.213   4.796  18.159  0.00  0.00    +0.000 A 
ATOM     10  C   UNL     1       6.478   4.384  17.703  0.00  0.00    +0.000 A 
ATOM     11  C   UNL     1       6.992   4.860  16.499  0.00  0.00    +0.000 A 
ATOM     12  C   UNL     1       6.255   5.773  15.742  0.00  0.00    +0.000 A 
ATOM     13  C   UNL     1       5.011   6.212  16.195  0.00  0.00    +0.000 A 
ATOM     14  C   UNL     1       4.470   5.717  17.398  0.00  0.00    +0.000 A 
ENDROOT
TORSDOF 0
ENDMDL
MODEL 3
REMARK VINA RESULT:      -5.5      1.590      3.904
REMARK  Name = 
REMARK  3 active torsions:
REMARK  status: ('A' for Active; 'I' for Inactive)
REMARK    1  A    between atoms: C_1  and  N_2
REMARK    2  A    between atoms: N_5  and  C_6
REMARK    3  A    between atoms: N_5  and  C_7
REMARK                            x       y       z     vdW  Elec       q    Type
REMARK                         _______ _______ _______ _____ _____    ______ ____
ROOT
ATOM      1  C   UNL     1       5.130   3.710  16.569  0.00  0.00    +0.000 C 
ATOM      2  N   UNL     1       4.479   4.178  17.783  0.00  0.00    +0.000 N 
ATOM      3  C   UNL     1       4.627   3.451  19.036  0.00  0.00    +0.000 C 
ATOM      4  C   UNL     1       3.337   2.770  19.520  0.00  0.00    +0.000 C 
ATOM      5  N   UNL     1       2.163   3.648  19.804  0.00  0.00    +0.000 N 
ATOM      6  C   UNL     1       1.076   2.761  20.297  0.00  0.00    +0.000 C 
ATOM      7  C   UNL     1       2.453   4.631  20.882  0.00  0.00    +0.000 C 
ATOM      8  C   UNL     1       1.665   4.322  18.570  0.00  0.00    +0.000 C 
ATOM      9  C   UNL     1       2.468   5.542  18.175  0.00  0.00    +0.000 A 
ATOM     10  C   UNL     1       1.850   6.805  18.189  0.00  0.00    +0.000 A 
ATOM     11  C   UNL     1       2.562   7.950  17.838  0.00  0.00    +0.000 A 
ATOM     12  C   UNL     1       3.899   7.846  17.450  0.00  0.00    +0.000 A 
ATOM     13  C   UNL     1       4.516   6.596  17.405  0.00  0.00    +0.000 A 
ATOM     14  C   UNL     1       3.814   5.435  17.782  0.00  0.00    +0.000 A 
ENDROOT
TORSDOF 0
ENDMDL
MODEL 4
REMARK VINA RESULT:      -5.5      1.470      3.090
REMARK  Name = 
REMARK  3 active torsions:
REMARK  status: ('A' for Active; 'I' for Inactive)
REMARK    1  A    between atoms: C_1  and  N_2
REMARK    2  A    between atoms: N_5  and  C_6
REMARK    3  A    between atoms: N_5  and  C_7
REMARK                            x       y       z     vdW  Elec       q    Type
REMARK                         _______ _______ _______ _____ _____    ______ ____
ROOT
ATOM      1  C   UNL     1       2.126   7.883  17.763  0.00  0.00    +0.000 C 
ATOM      2  N   UNL     1       3.138   6.881  18.060  0.00  0.00    +0.000 N 
ATOM      3  C   UNL     1       4.531   7.095  17.692  0.00  0.00    +0.000 C 
ATOM      4  C   UNL     1       5.032   6.165  16.577  0.00  0.00    +0.000 C 
ATOM      5  N   UNL     1       5.001   4.696  16.844  0.00  0.00    +0.000 N 
ATOM      6  C   UNL     1       5.577   4.032  15.644  0.00  0.00    +0.000 C 
ATOM      7  C   UNL     1       5.853   4.325  18.004  0.00  0.00    +0.000 C 
ATOM      8  C   UNL     1       3.607   4.192  17.007  0.00  0.00    +0.000 C 
ATOM      9  C   UNL     1       3.025   4.444  18.381  0.00  0.00    +0.000 A 
ATOM     10  C   UNL     1       2.697   3.347  19.199  0.00  0.00    +0.000 A 
ATOM     11  C   UNL     1       2.167   3.542  20.472  0.00  0.00    +0.000 A 
ATOM     12  C   UNL     1       1.938   4.838  20.939  0.00  0.00    +0.000 A 
ATOM     13  C   UNL     1       2.233   5.933  20.128  0.00  0.00    +0.000 A 
ATOM     14  C   UNL     1       2.793   5.749  18.849  0.00  0.00    +0.000 A 
ENDROOT
TORSDOF 0
ENDMDL
MODEL 5
REMARK VINA RESULT:      -5.4      1.441      3.084
REMARK  Name = 
REMARK  3 active torsions:
REMARK  status: ('A' for Active; 'I' for Inactive)
REMARK    1  A    between atoms: C_1  and  N_2
REMARK    2  A    between atoms: N_5  and  C_6
REMARK    3  A    between atoms: N_5  and  C_7
REMARK                            x       y       z     vdW  Elec       q    Type
REMARK                         _______ _______ _______ _____ _____    ______ ____
ROOT
ATOM      1  C   UNL     1       2.217   7.317  19.618  0.00  0.00    +0.000 C 
ATOM      2  N   UNL     1       2.920   6.062  19.398  0.00  0.00    +0.000 N 
ATOM      3  C   UNL     1       4.375   6.024  19.335  0.00  0.00    +0.000 C 
ATOM      4  C   UNL     1       4.931   5.697  17.940  0.00  0.00    +0.000 C 
ATOM      5  N   UNL     1       4.557   4.380  17.344  0.00  0.00    +0.000 N 
ATOM      6  C   UNL     1       5.255   4.290  16.034  0.00  0.00    +0.000 C 
ATOM      7  C   UNL     1       5.030   3.241  18.174  0.00  0.00    +0.000 C 
ATOM      8  C   UNL     1       3.092   4.290  17.077  0.00  0.00    +0.000 C 
ATOM      9  C   UNL     1       2.269   3.957  18.302  0.00  0.00    +0.000 A 
ATOM     10  C   UNL     1       1.556   2.745  18.342  0.00  0.00    +0.000 A 
ATOM     11  C   UNL     1       0.793   2.404  19.457  0.00  0.00    +0.000 A 
ATOM     12  C   UNL     1       0.717   3.280  20.542  0.00  0.00    +0.000 A 
ATOM     13  C   UNL     1       1.397   4.497  20.504  0.00  0.00    +0.000 A 
ATOM     14  C   UNL     1       2.191   4.842  19.393  0.00  0.00    +0.000 A 
ENDROOT
TORSDOF 0
ENDMDL
MODEL 6
REMARK VINA RESULT:      -5.4      1.476      4.059
REMARK  Name = 
REMARK  3 active torsions:
REMARK  status: ('A' for Active; 'I' for Inactive)
REMARK    1  A    between atoms: C_1  and  N_2
REMARK    2  A    between atoms: N_5  and  C_6
REMARK    3  A    between atoms: N_5  and  C_7
REMARK                            x       y       z     vdW  Elec       q    Type
REMARK                         _______ _______ _______ _____ _____    ______ ____
ROOT
ATOM      1  C   UNL     1       1.614   5.754  21.032  0.00  0.00    +0.000 C 
ATOM      2  N   UNL     1       1.920   5.076  19.782  0.00  0.00    +0.000 N 
ATOM      3  C   UNL     1       1.183   3.885  19.380  0.00  0.00    +0.000 C 
ATOM      4  C   UNL     1       2.020   2.597  19.397  0.00  0.00    +0.000 C 
ATOM      5  N   UNL     1       3.214   2.543  18.502  0.00  0.00    +0.000 N 
ATOM      6  C   UNL     1       3.812   1.192  18.668  0.00  0.00    +0.000 C 
ATOM      7  C   UNL     1       2.842   2.687  17.070  0.00  0.00    +0.000 C 
ATOM      8  C   UNL     1       4.249   3.541  18.900  0.00  0.00    +0.000 C 
ATOM      9  C   UNL     1       3.961   4.944  18.413  0.00  0.00    +0.000 A 
ATOM     10  C   UNL     1       4.839   5.546  17.493  0.00  0.00    +0.000 A 
ATOM     11  C   UNL     1       4.600   6.834  17.019  0.00  0.00    +0.000 A 
ATOM     12  C   UNL     1       3.489   7.547  17.473  0.00  0.00    +0.000 A 
ATOM     13  C   UNL     1       2.626   6.973  18.406  0.00  0.00    +0.000 A 
ATOM     14  C   UNL     1       2.843   5.662  18.873  0.00  0.00    +0.000 A 
ENDROOT
TORSDOF 0
ENDMDL
MODEL 7
REMARK VINA RESULT:      -5.3      1.438      4.775
REMARK  Name = 
REMARK  3 active torsions:
REMARK  status: ('A' for Active; 'I' for Inactive)
REMARK    1  A    between atoms: C_1  and  N_2
REMARK    2  A    between atoms: N_5  and  C_6
REMARK    3  A    between atoms: N_5  and  C_7
REMARK                            x       y       z     vdW  Elec       q    Type
REMARK                         _______ _______ _______ _____ _____    ______ ____
ROOT
ATOM      1  C   UNL     1       6.756   5.499  19.472  0.00  0.00    +0.000 C 
ATOM      2  N   UNL     1       5.488   5.306  18.787  0.00  0.00    +0.000 N 
ATOM      3  C   UNL     1       4.226   5.575  19.463  0.00  0.00    +0.000 C 
ATOM      4  C   UNL     1       3.390   4.319  19.750  0.00  0.00    +0.000 C 
ATOM      5  N   UNL     1       2.949   3.507  18.577  0.00  0.00    +0.000 N 
ATOM      6  C   UNL     1       2.125   2.392  19.115  0.00  0.00    +0.000 C 
ATOM      7  C   UNL     1       2.083   4.288  17.655  0.00  0.00    +0.000 C 
ATOM      8  C   UNL     1       4.105   2.901  17.857  0.00  0.00    +0.000 C 
ATOM      9  C   UNL     1       4.807   3.857  16.917  0.00  0.00    +0.000 A 
ATOM     10  C   UNL     1       4.797   3.594  15.536  0.00  0.00    +0.000 A 
ATOM     11  C   UNL     1       5.427   4.457  14.642  0.00  0.00    +0.000 A 
ATOM     12  C   UNL     1       6.093   5.587  15.119  0.00  0.00    +0.000 A 
ATOM     13  C   UNL     1       6.135   5.845  16.488  0.00  0.00    +0.000 A 
ATOM     14  C   UNL     1       5.480   4.994  17.400  0.00  0.00    +0.000 A 
ENDROOT
TORSDOF 0
ENDMDL
MODEL 8
REMARK VINA RESULT:      -5.2      1.639      2.393
REMARK  Name = 
REMARK  3 active torsions:
REMARK  status: ('A' for Active; 'I' for Inactive)
REMARK    1  A    between atoms: C_1  and  N_2
REMARK    2  A    between atoms: N_5  and  C_6
REMARK    3  A    between atoms: N_5  and  C_7
REMARK                            x       y       z     vdW  Elec       q    Type
REMARK                         _______ _______ _______ _____ _____    ______ ____
ROOT
ATOM      1  C   UNL     1       1.067   4.743  17.314  0.00  0.00    +0.000 C 
ATOM      2  N   UNL     1       2.273   4.904  18.110  0.00  0.00    +0.000 N 
ATOM      3  C   UNL     1       3.183   6.015  17.869  0.00  0.00    +0.000 C 
ATOM      4  C   UNL     1       4.542   5.595  17.287  0.00  0.00    +0.000 C 
ATOM      5  N   UNL     1       5.383   4.674  18.107  0.00  0.00    +0.000 N 
ATOM      6  C   UNL     1       6.648   4.466  17.353  0.00  0.00    +0.000 C 
ATOM      7  C   UNL     1       5.746   5.273  19.418  0.00  0.00    +0.000 C 
ATOM      8  C   UNL     1       4.740   3.339  18.275  0.00  0.00    +0.000 C 
ATOM      9  C   UNL     1       3.676   3.308  19.351  0.00  0.00    +0.000 A 
ATOM     10  C   UNL     1       3.871   2.501  20.487  0.00  0.00    +0.000 A 
ATOM     11  C   UNL     1       2.916   2.453  21.499  0.00  0.00    +0.000 A 
ATOM     12  C   UNL     1       1.741   3.198  21.382  0.00  0.00    +0.000 A 
ATOM     13  C   UNL     1       1.522   3.981  20.249  0.00  0.00    +0.000 A 
ATOM     14  C   UNL     1       2.492   4.057  19.231  0.00  0.00    +0.000 A 
ENDROOT
TORSDOF 0
ENDMDL
MODEL 9
REMARK VINA RESULT:      -5.0      9.868     11.254
REMARK  Name = 
REMARK  3 active torsions:
REMARK  status: ('A' for Active; 'I' for Inactive)
REMARK    1  A    between atoms: C_1  and  N_2
REMARK    2  A    between atoms: N_5  and  C_6
REMARK    3  A    between atoms: N_5  and  C_7
REMARK                            x       y       z     vdW  Elec       q    Type
REMARK                         _______ _______ _______ _____ _____    ______ ____
ROOT
ATOM      1  C   UNL     1       8.616  11.862  21.949  0.00  0.00    +0.000 C 
ATOM      2  N   UNL     1       9.011  12.838  20.946  0.00  0.00    +0.000 N 
ATOM      3  C   UNL     1       8.563  14.222  21.035  0.00  0.00    +0.000 C 
ATOM      4  C   UNL     1       7.570  14.629  19.936  0.00  0.00    +0.000 C 
ATOM      5  N   UNL     1       8.039  14.542  18.522  0.00  0.00    +0.000 N 
ATOM      6  C   UNL     1       6.923  15.033  17.670  0.00  0.00    +0.000 C 
ATOM      7  C   UNL     1       9.207  15.428  18.269  0.00  0.00    +0.000 C 
ATOM      8  C   UNL     1       8.323  13.135  18.118  0.00  0.00    +0.000 C 
ATOM      9  C   UNL     1       9.670  12.628  18.584  0.00  0.00    +0.000 A 
ATOM     10  C   UNL     1      10.644  12.286  17.629  0.00  0.00    +0.000 A 
ATOM     11  C   UNL     1      11.897  11.823  18.023  0.00  0.00    +0.000 A 
ATOM     12  C   UNL     1      12.189  11.676  19.380  0.00  0.00    +0.000 A 
ATOM     13  C   UNL     1      11.223  11.984  20.338  0.00  0.00    +0.000 A 
ATOM     14  C   UNL     1       9.961  12.477  19.952  0.00  0.00    +0.000 A 
ENDROOT
TORSDOF 0
ENDMDL
