MODEL 1
REMARK VINA RESULT:      -7.3      0.000      0.000
REMARK  Name = 
REMARK  4 active torsions:
REMARK  status: ('A' for Active; 'I' for Inactive)
REMARK    1  A    between atoms: C_1  and  C_2
REMARK    2  A    between atoms: C_5  and  C_6
REMARK    3  A    between atoms: C_11  and  O_12
REMARK    4  A    between atoms: C_14  and  O_15
REMARK                            x       y       z     vdW  Elec       q    Type
REMARK                         _______ _______ _______ _____ _____    ______ ____
ROOT
ATOM      1  C   UNL     1       2.616   7.372  18.828  0.00  0.00    +0.000 A 
ATOM      2  C   UNL     1       2.497   6.297  19.623  0.00  0.00    +0.000 A 
ATOM      3  C   UNL     1       3.437   5.182  19.460  0.00  0.00    +0.000 A 
ATOM      4  O   UNL     1       3.359   4.170  20.145  0.00  0.00    +0.000 OA
ATOM      5  C   UNL     1       4.480   5.330  18.442  0.00  0.00    +0.000 A 
ATOM      6  C   UNL     1       5.445   4.336  18.236  0.00  0.00    +0.000 A 
ATOM      7  C   UNL     1       6.435   4.510  17.274  0.00  0.00    +0.000 A 
ATOM      8  C   UNL     1       6.445   5.679  16.517  0.00  0.00    +0.000 A 
ATOM      9  C   UNL     1       5.483   6.669  16.705  0.00  0.00    +0.000 A 
ATOM     10  C   UNL     1       4.497   6.493  17.676  0.00  0.00    +0.000 A 
ATOM     11  O   UNL     1       3.574   7.500  17.831  0.00  0.00    +0.000 OA
ENDROOT
BRANCH   1  16
ATOM     12  C   UNL     1      -0.760  11.096  20.549  0.00  0.00    +0.000 C 
ATOM     13  C   UNL     1       0.128  10.246  19.707  0.00  0.00    +0.000 A 
ATOM     14  C   UNL     1       0.356  10.318  18.352  0.00  0.00    +0.000 A 
ATOM     15  C   UNL     1       1.273   9.321  17.908  0.00  0.00    +0.000 A 
ATOM     16  C   UNL     1       1.715   8.483  18.923  0.00  0.00    +0.000 A 
ATOM     17  S   UNL     1       1.030   8.992  20.427  0.00  0.00    +0.000 S 
ENDBRANCH   1  16
BRANCH   6  18
ATOM     18  O   UNL     1       5.477   3.168  18.949  0.00  0.00    +0.000 OA
ATOM     19  H   UNL     1       4.797   3.223  19.661  0.00  0.00    +0.000 HD
ENDBRANCH   6  18
BRANCH   8  20
ATOM     20  O   UNL     1       7.400   5.894  15.566  0.00  0.00    +0.000 OA
ATOM     21  H   UNL     1       6.962   6.125  14.728  0.00  0.00    +0.000 HD
ENDBRANCH   8  20
TORSDOF 3
ENDMDL
MODEL 2
REMARK VINA RESULT:      -7.2      1.044      1.044
REMARK  Name = 
REMARK  4 active torsions:
REMARK  status: ('A' for Active; 'I' for Inactive)
REMARK    1  A    between atoms: C_1  and  C_2
REMARK    2  A    between atoms: C_5  and  C_6
REMARK    3  A    between atoms: C_11  and  O_12
REMARK    4  A    between atoms: C_14  and  O_15
REMARK                            x       y       z     vdW  Elec       q    Type
REMARK                         _______ _______ _______ _____ _____    ______ ____
ROOT
ATOM      1  C   UNL     1       2.693   7.104  18.293  0.00  0.00    +0.000 A 
ATOM      2  C   UNL     1       2.263   5.901  18.704  0.00  0.00    +0.000 A 
ATOM      3  C   UNL     1       2.976   4.698  18.257  0.00  0.00    +0.000 A 
ATOM      4  O   UNL     1       2.613   3.575  18.586  0.00  0.00    +0.000 OA
ATOM      5  C   UNL     1       4.149   4.895  17.401  0.00  0.00    +0.000 A 
ATOM      6  C   UNL     1       4.916   3.813  16.953  0.00  0.00    +0.000 A 
ATOM      7  C   UNL     1       6.035   4.030  16.155  0.00  0.00    +0.000 A 
ATOM      8  C   UNL     1       6.372   5.334  15.803  0.00  0.00    +0.000 A 
ATOM      9  C   UNL     1       5.609   6.418  16.233  0.00  0.00    +0.000 A 
ATOM     10  C   UNL     1       4.493   6.196  17.040  0.00  0.00    +0.000 A 
ATOM     11  O   UNL     1       3.776   7.296  17.447  0.00  0.00    +0.000 OA
ENDROOT
BRANCH   1  16
ATOM     12  C   UNL     1       0.048  10.877  20.939  0.00  0.00    +0.000 C 
ATOM     13  C   UNL     1       0.785  10.105  19.900  0.00  0.00    +0.000 A 
ATOM     14  C   UNL     1       1.080  10.468  18.605  0.00  0.00    +0.000 A 
ATOM     15  C   UNL     1       1.800   9.450  17.914  0.00  0.00    +0.000 A 
ATOM     16  C   UNL     1       2.026   8.313  18.677  0.00  0.00    +0.000 A 
ATOM     17  S   UNL     1       1.392   8.555  20.268  0.00  0.00    +0.000 S 
ENDBRANCH   1  16
BRANCH   6  18
ATOM     18  O   UNL     1       4.624   2.513  17.266  0.00  0.00    +0.000 OA
ATOM     19  H   UNL     1       5.059   2.297  18.124  0.00  0.00    +0.000 HD
ENDBRANCH   6  18
BRANCH   8  20
ATOM     20  O   UNL     1       7.463   5.595  15.027  0.00  0.00    +0.000 OA
ATOM     21  H   UNL     1       7.303   6.413  14.525  0.00  0.00    +0.000 HD
ENDBRANCH   8  20
TORSDOF 3
ENDMDL
MODEL 3
REMARK VINA RESULT:      -7.2      3.584      5.297
REMARK  Name = 
REMARK  4 active torsions:
REMARK  status: ('A' for Active; 'I' for Inactive)
REMARK    1  A    between atoms: C_1  and  C_2
REMARK    2  A    between atoms: C_5  and  C_6
REMARK    3  A    between atoms: C_11  and  O_12
REMARK    4  A    between atoms: C_14  and  O_15
REMARK                            x       y       z     vdW  Elec       q    Type
REMARK                         _______ _______ _______ _____ _____    ______ ____
ROOT
ATOM      1  C   UNL     1       4.850   4.776  17.217  0.00  0.00    +0.000 A 
ATOM      2  C   UNL     1       5.898   5.605  17.338  0.00  0.00    +0.000 A 
ATOM      3  C   UNL     1       6.839   5.733  16.219  0.00  0.00    +0.000 A 
ATOM      4  O   UNL     1       7.823   6.460  16.286  0.00  0.00    +0.000 OA
ATOM      5  C   UNL     1       6.551   4.957  15.010  0.00  0.00    +0.000 A 
ATOM      6  C   UNL     1       7.369   5.040  13.877  0.00  0.00    +0.000 A 
ATOM      7  C   UNL     1       7.063   4.304  12.736  0.00  0.00    +0.000 A 
ATOM      8  C   UNL     1       5.939   3.481  12.744  0.00  0.00    +0.000 A 
ATOM      9  C   UNL     1       5.125   3.382  13.870  0.00  0.00    +0.000 A 
ATOM     10  C   UNL     1       5.432   4.128  15.008  0.00  0.00    +0.000 A 
ATOM     11  O   UNL     1       4.595   4.004  16.092  0.00  0.00    +0.000 OA
ENDROOT
BRANCH   1  16
ATOM     12  C   UNL     1       2.216   2.991  21.472  0.00  0.00    +0.000 C 
ATOM     13  C   UNL     1       2.653   3.773  20.281  0.00  0.00    +0.000 A 
ATOM     14  C   UNL     1       2.039   4.852  19.688  0.00  0.00    +0.000 A 
ATOM     15  C   UNL     1       2.765   5.327  18.556  0.00  0.00    +0.000 A 
ATOM     16  C   UNL     1       3.909   4.591  18.282  0.00  0.00    +0.000 A 
ATOM     17  S   UNL     1       4.098   3.357  19.478  0.00  0.00    +0.000 S 
ENDBRANCH   1  16
BRANCH   6  18
ATOM     18  O   UNL     1       8.487   5.828  13.820  0.00  0.00    +0.000 OA
ATOM     19  H   UNL     1       8.468   6.329  12.971  0.00  0.00    +0.000 HD
ENDBRANCH   6  18
BRANCH   8  20
ATOM     20  O   UNL     1       5.598   2.746  11.647  0.00  0.00    +0.000 OA
ATOM     21  H   UNL     1       5.896   3.215  10.848  0.00  0.00    +0.000 HD
ENDBRANCH   8  20
TORSDOF 3
ENDMDL
MODEL 4
REMARK VINA RESULT:      -7.2      1.815      3.183
REMARK  Name = 
REMARK  4 active torsions:
REMARK  status: ('A' for Active; 'I' for Inactive)
REMARK    1  A    between atoms: C_1  and  C_2
REMARK    2  A    between atoms: C_5  and  C_6
REMARK    3  A    between atoms: C_11  and  O_12
REMARK    4  A    between atoms: C_14  and  O_15
REMARK                            x       y       z     vdW  Elec       q    Type
REMARK                         _______ _______ _______ _____ _____    ______ ____
ROOT
ATOM      1  C   UNL     1       2.657   7.215  18.261  0.00  0.00    +0.000 A 
ATOM      2  C   UNL     1       3.805   7.232  17.566  0.00  0.00    +0.000 A 
ATOM      3  C   UNL     1       4.438   5.958  17.205  0.00  0.00    +0.000 A 
ATOM      4  O   UNL     1       5.497   5.918  16.590  0.00  0.00    +0.000 OA
ATOM      5  C   UNL     1       3.749   4.730  17.607  0.00  0.00    +0.000 A 
ATOM      6  C   UNL     1       4.255   3.467  17.278  0.00  0.00    +0.000 A 
ATOM      7  C   UNL     1       3.570   2.317  17.658  0.00  0.00    +0.000 A 
ATOM      8  C   UNL     1       2.384   2.442  18.376  0.00  0.00    +0.000 A 
ATOM      9  C   UNL     1       1.877   3.694  18.720  0.00  0.00    +0.000 A 
ATOM     10  C   UNL     1       2.563   4.844  18.329  0.00  0.00    +0.000 A 
ATOM     11  O   UNL     1       2.021   6.057  18.684  0.00  0.00    +0.000 OA
ENDROOT
BRANCH   1  16
ATOM     12  C   UNL     1       0.027  10.965  20.953  0.00  0.00    +0.000 C 
ATOM     13  C   UNL     1       0.769  10.207  19.908  0.00  0.00    +0.000 A 
ATOM     14  C   UNL     1       1.089  10.595  18.627  0.00  0.00    +0.000 A 
ATOM     15  C   UNL     1       1.806   9.583  17.922  0.00  0.00    +0.000 A 
ATOM     16  C   UNL     1       2.002   8.425  18.662  0.00  0.00    +0.000 A 
ATOM     17  S   UNL     1       1.347   8.639  20.248  0.00  0.00    +0.000 S 
ENDBRANCH   1  16
BRANCH   6  18
ATOM     18  O   UNL     1       5.418   3.289  16.579  0.00  0.00    +0.000 OA
ATOM     19  H   UNL     1       5.270   3.589  15.652  0.00  0.00    +0.000 HD
ENDBRANCH   6  18
BRANCH   8  20
ATOM     20  O   UNL     1       1.676   1.342  18.766  0.00  0.00    +0.000 OA
ATOM     21  H   UNL     1       2.064   0.555  18.347  0.00  0.00    +0.000 HD
ENDBRANCH   8  20
TORSDOF 3
ENDMDL
MODEL 5
REMARK VINA RESULT:      -7.1      1.776      3.475
REMARK  Name = 
REMARK  4 active torsions:
REMARK  status: ('A' for Active; 'I' for Inactive)
REMARK    1  A    between atoms: C_1  and  C_2
REMARK    2  A    between atoms: C_5  and  C_6
REMARK    3  A    between atoms: C_11  and  O_12
REMARK    4  A    between atoms: C_14  and  O_15
REMARK                            x       y       z     vdW  Elec       q    Type
REMARK                         _______ _______ _______ _____ _____    ______ ____
ROOT
ATOM      1  C   UNL     1       2.316   7.421  18.991  0.00  0.00    +0.000 A 
ATOM      2  C   UNL     1       3.144   7.089  17.988  0.00  0.00    +0.000 A 
ATOM      3  C   UNL     1       3.731   5.744  17.964  0.00  0.00    +0.000 A 
ATOM      4  O   UNL     1       4.509   5.397  17.083  0.00  0.00    +0.000 OA
ATOM      5  C   UNL     1       3.345   4.826  19.038  0.00  0.00    +0.000 A 
ATOM      6  C   UNL     1       3.823   3.511  19.082  0.00  0.00    +0.000 A 
ATOM      7  C   UNL     1       3.426   2.655  20.106  0.00  0.00    +0.000 A 
ATOM      8  C   UNL     1       2.557   3.128  21.085  0.00  0.00    +0.000 A 
ATOM      9  C   UNL     1       2.084   4.439  21.058  0.00  0.00    +0.000 A 
ATOM     10  C   UNL     1       2.479   5.291  20.026  0.00  0.00    +0.000 A 
ATOM     11  O   UNL     1       1.980   6.572  20.036  0.00  0.00    +0.000 OA
ENDROOT
BRANCH   1  16
ATOM     12  C   UNL     1      -0.291  11.764  20.595  0.00  0.00    +0.000 C 
ATOM     13  C   UNL     1       0.512  10.782  19.814  0.00  0.00    +0.000 A 
ATOM     14  C   UNL     1       1.038  10.912  18.549  0.00  0.00    +0.000 A 
ATOM     15  C   UNL     1       1.745   9.743  18.139  0.00  0.00    +0.000 A 
ATOM     16  C   UNL     1       1.729   8.726  19.082  0.00  0.00    +0.000 A 
ATOM     17  S   UNL     1       0.888   9.264  20.494  0.00  0.00    +0.000 S 
ENDBRANCH   1  16
BRANCH   6  18
ATOM     18  O   UNL     1       4.682   2.998  18.148  0.00  0.00    +0.000 OA
ATOM     19  H   UNL     1       4.793   3.666  17.432  0.00  0.00    +0.000 HD
ENDBRANCH   6  18
BRANCH   8  20
ATOM     20  O   UNL     1       2.138   2.323  22.103  0.00  0.00    +0.000 OA
ATOM     21  H   UNL     1       2.658   2.529  22.900  0.00  0.00    +0.000 HD
ENDBRANCH   8  20
TORSDOF 3
ENDMDL
MODEL 6
REMARK VINA RESULT:      -7.1      3.020      7.081
REMARK  Name = 
REMARK  4 active torsions:
REMARK  status: ('A' for Active; 'I' for Inactive)
REMARK    1  A    between atoms: C_1  and  C_2
REMARK    2  A    between atoms: C_5  and  C_6
REMARK    3  A    between atoms: C_11  and  O_12
REMARK    4  A    between atoms: C_14  and  O_15
REMARK                            x       y       z     vdW  Elec       q    Type
REMARK                         _______ _______ _______ _____ _____    ______ ____
ROOT
ATOM      1  C   UNL     1       2.539   6.845  19.150  0.00  0.00    +0.000 A 
ATOM      2  C   UNL     1       2.488   7.693  18.111  0.00  0.00    +0.000 A 
ATOM      3  C   UNL     1       1.852   9.003  18.291  0.00  0.00    +0.000 A 
ATOM      4  O   UNL     1       1.762   9.806  17.370  0.00  0.00    +0.000 OA
ATOM      5  C   UNL     1       1.331   9.317  19.623  0.00  0.00    +0.000 A 
ATOM      6  C   UNL     1       0.739  10.555  19.903  0.00  0.00    +0.000 A 
ATOM      7  C   UNL     1       0.268  10.833  21.182  0.00  0.00    +0.000 A 
ATOM      8  C   UNL     1       0.385   9.861  22.172  0.00  0.00    +0.000 A 
ATOM      9  C   UNL     1       0.961   8.621  21.903  0.00  0.00    +0.000 A 
ATOM     10  C   UNL     1       1.439   8.350  20.620  0.00  0.00    +0.000 A 
ATOM     11  O   UNL     1       2.007   7.117  20.403  0.00  0.00    +0.000 OA
ENDROOT
BRANCH   1  16
ATOM     12  C   UNL     1       3.419   1.687  18.226  0.00  0.00    +0.000 C 
ATOM     13  C   UNL     1       3.567   3.120  18.604  0.00  0.00    +0.000 A 
ATOM     14  C   UNL     1       4.658   3.759  19.147  0.00  0.00    +0.000 A 
ATOM     15  C   UNL     1       4.410   5.144  19.377  0.00  0.00    +0.000 A 
ATOM     16  C   UNL     1       3.126   5.543  19.032  0.00  0.00    +0.000 A 
ATOM     17  S   UNL     1       2.267   4.198  18.365  0.00  0.00    +0.000 S 
ENDBRANCH   1  16
BRANCH   6  18
ATOM     18  O   UNL     1       0.595  11.541  18.965  0.00  0.00    +0.000 OA
ATOM     19  H   UNL     1       0.258  12.349  19.417  0.00  0.00    +0.000 HD
ENDBRANCH   6  18
BRANCH   8  20
ATOM     20  O   UNL     1      -0.059  10.091  23.442  0.00  0.00    +0.000 OA
ATOM     21  H   UNL     1       0.094  11.026  23.664  0.00  0.00    +0.000 HD
ENDBRANCH   8  20
TORSDOF 3
ENDMDL
MODEL 7
REMARK VINA RESULT:      -7.0      1.273      1.495
REMARK  Name = 
REMARK  4 active torsions:
REMARK  status: ('A' for Active; 'I' for Inactive)
REMARK    1  A    between atoms: C_1  and  C_2
REMARK    2  A    between atoms: C_5  and  C_6
REMARK    3  A    between atoms: C_11  and  O_12
REMARK    4  A    between atoms: C_14  and  O_15
REMARK                            x       y       z     vdW  Elec       q    Type
REMARK                         _______ _______ _______ _____ _____    ______ ____
ROOT
ATOM      1  C   UNL     1       2.491   6.854  19.134  0.00  0.00    +0.000 A 
ATOM      2  C   UNL     1       2.271   5.615  19.599  0.00  0.00    +0.000 A 
ATOM      3  C   UNL     1       2.955   4.482  18.964  0.00  0.00    +0.000 A 
ATOM      4  O   UNL     1       2.773   3.329  19.337  0.00  0.00    +0.000 OA
ATOM      5  C   UNL     1       3.872   4.787  17.863  0.00  0.00    +0.000 A 
ATOM      6  C   UNL     1       4.598   3.779  17.217  0.00  0.00    +0.000 A 
ATOM      7  C   UNL     1       5.476   4.099  16.186  0.00  0.00    +0.000 A 
ATOM      8  C   UNL     1       5.612   5.430  15.802  0.00  0.00    +0.000 A 
ATOM      9  C   UNL     1       4.886   6.440  16.429  0.00  0.00    +0.000 A 
ATOM     10  C   UNL     1       4.013   6.115  17.468  0.00  0.00    +0.000 A 
ATOM     11  O   UNL     1       3.324   7.146  18.063  0.00  0.00    +0.000 OA
ENDROOT
BRANCH   1  16
ATOM     12  C   UNL     1       0.222  11.597  19.899  0.00  0.00    +0.000 C 
ATOM     13  C   UNL     1       0.762  10.221  20.083  0.00  0.00    +0.000 A 
ATOM     14  C   UNL     1       0.815   9.464  21.230  0.00  0.00    +0.000 A 
ATOM     15  C   UNL     1       1.415   8.189  21.006  0.00  0.00    +0.000 A 
ATOM     16  C   UNL     1       1.836   7.998  19.697  0.00  0.00    +0.000 A 
ATOM     17  S   UNL     1       1.420   9.384  18.751  0.00  0.00    +0.000 S 
ENDBRANCH   1  16
BRANCH   6  18
ATOM     18  O   UNL     1       4.497   2.456  17.553  0.00  0.00    +0.000 OA
ATOM     19  H   UNL     1       3.554   2.184  17.455  0.00  0.00    +0.000 HD
ENDBRANCH   6  18
BRANCH   8  20
ATOM     20  O   UNL     1       6.464   5.790  14.799  0.00  0.00    +0.000 OA
ATOM     21  H   UNL     1       7.258   6.193  15.191  0.00  0.00    +0.000 HD
ENDBRANCH   8  20
TORSDOF 3
ENDMDL
MODEL 8
REMARK VINA RESULT:      -6.9      3.351      7.153
REMARK  Name = 
REMARK  4 active torsions:
REMARK  status: ('A' for Active; 'I' for Inactive)
REMARK    1  A    between atoms: C_1  and  C_2
REMARK    2  A    between atoms: C_5  and  C_6
REMARK    3  A    between atoms: C_11  and  O_12
REMARK    4  A    between atoms: C_14  and  O_15
REMARK                            x       y       z     vdW  Elec       q    Type
REMARK                         _______ _______ _______ _____ _____    ______ ____
ROOT
ATOM      1  C   UNL     1       2.090   6.781  19.814  0.00  0.00    +0.000 A 
ATOM      2  C   UNL     1       2.312   7.364  18.626  0.00  0.00    +0.000 A 
ATOM      3  C   UNL     1       1.899   8.758  18.427  0.00  0.00    +0.000 A 
ATOM      4  O   UNL     1       2.061   9.331  17.356  0.00  0.00    +0.000 OA
ATOM      5  C   UNL     1       1.287   9.444  19.568  0.00  0.00    +0.000 A 
ATOM      6  C   UNL     1       0.893  10.785  19.489  0.00  0.00    +0.000 A 
ATOM      7  C   UNL     1       0.330  11.416  20.594  0.00  0.00    +0.000 A 
ATOM      8  C   UNL     1       0.157  10.693  21.770  0.00  0.00    +0.000 A 
ATOM      9  C   UNL     1       0.534   9.354  21.858  0.00  0.00    +0.000 A 
ATOM     10  C   UNL     1       1.106   8.728  20.750  0.00  0.00    +0.000 A 
ATOM     11  O   UNL     1       1.470   7.409  20.885  0.00  0.00    +0.000 OA
ENDROOT
BRANCH   1  16
ATOM     12  C   UNL     1       4.463   2.027  19.809  0.00  0.00    +0.000 C 
ATOM     13  C   UNL     1       3.548   3.171  20.080  0.00  0.00    +0.000 A 
ATOM     14  C   UNL     1       2.427   3.207  20.876  0.00  0.00    +0.000 A 
ATOM     15  C   UNL     1       1.809   4.492  20.876  0.00  0.00    +0.000 A 
ATOM     16  C   UNL     1       2.450   5.416  20.062  0.00  0.00    +0.000 A 
ATOM     17  S   UNL     1       3.850   4.686  19.358  0.00  0.00    +0.000 S 
ENDBRANCH   1  16
BRANCH   6  18
ATOM     18  O   UNL     1       1.036  11.538  18.355  0.00  0.00    +0.000 OA
ATOM     19  H   UNL     1       1.067  10.927  17.581  0.00  0.00    +0.000 HD
ENDBRANCH   6  18
BRANCH   8  20
ATOM     20  O   UNL     1      -0.387  11.272  22.880  0.00  0.00    +0.000 OA
ATOM     21  H   UNL     1       0.139  11.015  23.658  0.00  0.00    +0.000 HD
ENDBRANCH   8  20
TORSDOF 3
ENDMDL
MODEL 9
REMARK VINA RESULT:      -6.9      1.970      3.616
REMARK  Name = 
REMARK  4 active torsions:
REMARK  status: ('A' for Active; 'I' for Inactive)
REMARK    1  A    between atoms: C_1  and  C_2
REMARK    2  A    between atoms: C_5  and  C_6
REMARK    3  A    between atoms: C_11  and  O_12
REMARK    4  A    between atoms: C_14  and  O_15
REMARK                            x       y       z     vdW  Elec       q    Type
REMARK                         _______ _______ _______ _____ _____    ______ ____
ROOT
ATOM      1  C   UNL     1       2.211   7.439  19.217  0.00  0.00    +0.000 A 
ATOM      2  C   UNL     1       2.958   7.179  18.132  0.00  0.00    +0.000 A 
ATOM      3  C   UNL     1       3.586   5.860  17.998  0.00  0.00    +0.000 A 
ATOM      4  O   UNL     1       4.294   5.579  17.038  0.00  0.00    +0.000 OA
ATOM      5  C   UNL     1       3.330   4.886  19.062  0.00  0.00    +0.000 A 
ATOM      6  C   UNL     1       3.856   3.589  19.006  0.00  0.00    +0.000 A 
ATOM      7  C   UNL     1       3.583   2.678  20.023  0.00  0.00    +0.000 A 
ATOM      8  C   UNL     1       2.789   3.078  21.094  0.00  0.00    +0.000 A 
ATOM      9  C   UNL     1       2.270   4.370  21.166  0.00  0.00    +0.000 A 
ATOM     10  C   UNL     1       2.540   5.277  20.141  0.00  0.00    +0.000 A 
ATOM     11  O   UNL     1       2.000   6.536  20.250  0.00  0.00    +0.000 OA
ENDROOT
BRANCH   1  16
ATOM     12  C   UNL     1       0.419  12.408  18.647  0.00  0.00    +0.000 C 
ATOM     13  C   UNL     1       0.733  11.050  19.172  0.00  0.00    +0.000 A 
ATOM     14  C   UNL     1       0.435  10.513  20.403  0.00  0.00    +0.000 A 
ATOM     15  C   UNL     1       0.911   9.175  20.536  0.00  0.00    +0.000 A 
ATOM     16  C   UNL     1       1.590   8.715  19.416  0.00  0.00    +0.000 A 
ATOM     17  S   UNL     1       1.568   9.934  18.189  0.00  0.00    +0.000 S 
ENDBRANCH   1  16
BRANCH   6  18
ATOM     18  O   UNL     1       4.646   3.148  17.979  0.00  0.00    +0.000 OA
ATOM     19  H   UNL     1       4.066   2.958  17.205  0.00  0.00    +0.000 HD
ENDBRANCH   6  18
BRANCH   8  20
ATOM     20  O   UNL     1       2.491   2.218  22.110  0.00  0.00    +0.000 OA
ATOM     21  H   UNL     1       3.199   1.554  22.177  0.00  0.00    +0.000 HD
ENDBRANCH   8  20
TORSDOF 3
ENDMDL
