MODEL 1
REMARK VINA RESULT:      -7.7      0.000      0.000
REMARK  Name = 
REMARK  1 active torsions:
REMARK  status: ('A' for Active; 'I' for Inactive)
REMARK    1  A    between atoms: C_2  and  C_3
REMARK                            x       y       z     vdW  Elec       q    Type
REMARK                         _______ _______ _______ _____ _____    ______ ____
ROOT
ATOM      1  O   UNL     1       2.049  11.322  18.485  0.00  0.00    +0.000 OA
ATOM      2  C   UNL     1       1.282  10.377  18.670  0.00  0.00    +0.000 C 
ATOM      3  N   UNL     1      -0.103  10.617  18.778  0.00  0.00    +0.000 N 
ATOM      4  C   UNL     1      -1.172   9.619  18.824  0.00  0.00    +0.000 C 
ATOM      5  C   UNL     1      -2.174   9.820  17.704  0.00  0.00    +0.000 C 
ATOM      6  C   UNL     1      -2.696  11.250  17.669  0.00  0.00    +0.000 C 
ATOM      7  C   UNL     1      -1.555  12.267  17.678  0.00  0.00    +0.000 C 
ATOM      8  C   UNL     1      -0.575  11.998  18.813  0.00  0.00    +0.000 C 
ATOM      9  O   UNL     1      -3.552  11.454  18.808  0.00  0.00    +0.000 OA
ATOM     10  C   UNL     1      -4.744  12.024  18.268  0.00  0.00    +0.000 C 
ATOM     11  C   UNL     1      -4.818  11.440  16.884  0.00  0.00    +0.000 C 
ATOM     12  O   UNL     1      -3.458  11.429  16.463  0.00  0.00    +0.000 OA
ENDROOT
BRANCH   2  13
ATOM     13  C   UNL     1       1.784   9.004  18.772  0.00  0.00    +0.000 A 
ATOM     14  C   UNL     1       2.366   8.172  17.839  0.00  0.00    +0.000 A 
ATOM     15  C   UNL     1       2.810   6.911  18.359  0.00  0.00    +0.000 A 
ATOM     16  C   UNL     1       2.310   6.732  19.638  0.00  0.00    +0.000 A 
ATOM     17  S   UNL     1       1.577   8.157  20.247  0.00  0.00    +0.000 S 
ATOM     18  C   UNL     1       2.286   5.500  20.496  0.00  0.00    +0.000 C 
ATOM     19  C   UNL     1       1.313   4.447  19.954  0.00  0.00    +0.000 C 
ATOM     20  C   UNL     1       1.459   4.058  18.480  0.00  0.00    +0.000 C 
ATOM     21  C   UNL     1       2.846   3.578  18.053  0.00  0.00    +0.000 C 
ATOM     22  C   UNL     1       3.980   4.607  18.029  0.00  0.00    +0.000 C 
ATOM     23  C   UNL     1       3.606   5.976  17.480  0.00  0.00    +0.000 C 
ENDBRANCH   2  13
TORSDOF 1
ENDMDL
MODEL 2
REMARK VINA RESULT:      -7.2      0.866      1.005
REMARK  Name = 
REMARK  1 active torsions:
REMARK  status: ('A' for Active; 'I' for Inactive)
REMARK    1  A    between atoms: C_2  and  C_3
REMARK                            x       y       z     vdW  Elec       q    Type
REMARK                         _______ _______ _______ _____ _____    ______ ____
ROOT
ATOM      1  O   UNL     1       2.421  10.782  17.668  0.00  0.00    +0.000 OA
ATOM      2  C   UNL     1       1.701  10.051  18.348  0.00  0.00    +0.000 C 
ATOM      3  N   UNL     1       0.518  10.570  18.912  0.00  0.00    +0.000 N 
ATOM      4  C   UNL     1      -0.539   9.822  19.594  0.00  0.00    +0.000 C 
ATOM      5  C   UNL     1      -1.884  10.016  18.924  0.00  0.00    +0.000 C 
ATOM      6  C   UNL     1      -2.216  11.491  18.750  0.00  0.00    +0.000 C 
ATOM      7  C   UNL     1      -1.071  12.253  18.086  0.00  0.00    +0.000 C 
ATOM      8  C   UNL     1       0.254  12.001  18.794  0.00  0.00    +0.000 C 
ATOM      9  O   UNL     1      -2.501  12.052  20.045  0.00  0.00    +0.000 OA
ATOM     10  C   UNL     1      -3.741  12.740  19.878  0.00  0.00    +0.000 C 
ATOM     11  C   UNL     1      -4.440  11.950  18.805  0.00  0.00    +0.000 C 
ATOM     12  O   UNL     1      -3.383  11.602  17.918  0.00  0.00    +0.000 OA
ENDROOT
BRANCH   2  13
ATOM     13  C   UNL     1       2.050   8.645  18.575  0.00  0.00    +0.000 A 
ATOM     14  C   UNL     1       2.519   7.671  17.720  0.00  0.00    +0.000 A 
ATOM     15  C   UNL     1       2.829   6.421  18.352  0.00  0.00    +0.000 A 
ATOM     16  C   UNL     1       2.336   6.419  19.648  0.00  0.00    +0.000 A 
ATOM     17  S   UNL     1       1.778   7.967  20.125  0.00  0.00    +0.000 S 
ATOM     18  C   UNL     1       2.192   5.282  20.618  0.00  0.00    +0.000 C 
ATOM     19  C   UNL     1       1.098   4.300  20.185  0.00  0.00    +0.000 C 
ATOM     20  C   UNL     1       1.173   3.762  18.753  0.00  0.00    +0.000 C 
ATOM     21  C   UNL     1       2.490   3.092  18.362  0.00  0.00    +0.000 C 
ATOM     22  C   UNL     1       3.731   3.980  18.232  0.00  0.00    +0.000 C 
ATOM     23  C   UNL     1       3.500   5.326  17.559  0.00  0.00    +0.000 C 
ENDBRANCH   2  13
TORSDOF 1
ENDMDL
MODEL 3
REMARK VINA RESULT:      -7.1      2.622      4.194
REMARK  Name = 
REMARK  1 active torsions:
REMARK  status: ('A' for Active; 'I' for Inactive)
REMARK    1  A    between atoms: C_2  and  C_3
REMARK                            x       y       z     vdW  Elec       q    Type
REMARK                         _______ _______ _______ _____ _____    ______ ____
ROOT
ATOM      1  O   UNL     1      -1.047  10.676  19.231  0.00  0.00    +0.000 OA
ATOM      2  C   UNL     1       0.151  10.777  18.970  0.00  0.00    +0.000 C 
ATOM      3  N   UNL     1       0.706  12.050  18.726  0.00  0.00    +0.000 N 
ATOM      4  C   UNL     1       2.123  12.383  18.575  0.00  0.00    +0.000 C 
ATOM      5  C   UNL     1       2.567  13.417  19.592  0.00  0.00    +0.000 C 
ATOM      6  C   UNL     1       1.663  14.641  19.578  0.00  0.00    +0.000 C 
ATOM      7  C   UNL     1       0.188  14.255  19.682  0.00  0.00    +0.000 C 
ATOM      8  C   UNL     1      -0.188  13.201  18.648  0.00  0.00    +0.000 C 
ATOM      9  O   UNL     1       1.900  15.372  18.360  0.00  0.00    +0.000 OA
ATOM     10  C   UNL     1       2.109  16.720  18.782  0.00  0.00    +0.000 C 
ATOM     11  C   UNL     1       2.713  16.571  20.152  0.00  0.00    +0.000 C 
ATOM     12  O   UNL     1       1.999  15.470  20.703  0.00  0.00    +0.000 OA
ENDROOT
BRANCH   2  13
ATOM     13  C   UNL     1       1.016   9.594  18.915  0.00  0.00    +0.000 A 
ATOM     14  C   UNL     1       1.762   9.055  17.889  0.00  0.00    +0.000 A 
ATOM     15  C   UNL     1       2.558   7.921  18.262  0.00  0.00    +0.000 A 
ATOM     16  C   UNL     1       2.183   7.482  19.522  0.00  0.00    +0.000 A 
ATOM     17  S   UNL     1       1.114   8.579  20.293  0.00  0.00    +0.000 S 
ATOM     18  C   UNL     1       2.536   6.212  20.240  0.00  0.00    +0.000 C 
ATOM     19  C   UNL     1       1.866   4.991  19.601  0.00  0.00    +0.000 C 
ATOM     20  C   UNL     1       2.048   4.808  18.092  0.00  0.00    +0.000 C 
ATOM     21  C   UNL     1       3.494   4.777  17.595  0.00  0.00    +0.000 C 
ATOM     22  C   UNL     1       4.300   6.078  17.667  0.00  0.00    +0.000 C 
ATOM     23  C   UNL     1       3.540   7.337  17.275  0.00  0.00    +0.000 C 
ENDBRANCH   2  13
TORSDOF 1
ENDMDL
MODEL 4
REMARK VINA RESULT:      -7.1      2.468      2.963
REMARK  Name = 
REMARK  1 active torsions:
REMARK  status: ('A' for Active; 'I' for Inactive)
REMARK    1  A    between atoms: C_2  and  C_3
REMARK                            x       y       z     vdW  Elec       q    Type
REMARK                         _______ _______ _______ _____ _____    ______ ____
ROOT
ATOM      1  O   UNL     1       1.955   9.677  17.358  0.00  0.00    +0.000 OA
ATOM      2  C   UNL     1       1.818   9.179  18.475  0.00  0.00    +0.000 C 
ATOM      3  N   UNL     1       1.385   9.985  19.547  0.00  0.00    +0.000 N 
ATOM      4  C   UNL     1       1.002   9.542  20.888  0.00  0.00    +0.000 C 
ATOM      5  C   UNL     1      -0.416   9.954  21.231  0.00  0.00    +0.000 C 
ATOM      6  C   UNL     1      -0.635  11.444  21.012  0.00  0.00    +0.000 C 
ATOM      7  C   UNL     1      -0.174  11.884  19.622  0.00  0.00    +0.000 C 
ATOM      8  C   UNL     1       1.249  11.423  19.334  0.00  0.00    +0.000 C 
ATOM      9  O   UNL     1       0.086  12.168  22.026  0.00  0.00    +0.000 OA
ATOM     10  C   UNL     1      -0.867  13.083  22.565  0.00  0.00    +0.000 C 
ATOM     11  C   UNL     1      -2.179  12.365  22.400  0.00  0.00    +0.000 C 
ATOM     12  O   UNL     1      -2.040  11.723  21.137  0.00  0.00    +0.000 OA
ENDROOT
BRANCH   2  13
ATOM     13  C   UNL     1       2.092   7.758  18.708  0.00  0.00    +0.000 A 
ATOM     14  C   UNL     1       2.346   6.721  17.836  0.00  0.00    +0.000 A 
ATOM     15  C   UNL     1       2.659   5.472  18.468  0.00  0.00    +0.000 A 
ATOM     16  C   UNL     1       2.377   5.552  19.822  0.00  0.00    +0.000 A 
ATOM     17  S   UNL     1       2.018   7.155  20.311  0.00  0.00    +0.000 S 
ATOM     18  C   UNL     1       2.303   4.463  20.853  0.00  0.00    +0.000 C 
ATOM     19  C   UNL     1       1.084   3.558  20.639  0.00  0.00    +0.000 C 
ATOM     20  C   UNL     1       0.892   2.969  19.239  0.00  0.00    +0.000 C 
ATOM     21  C   UNL     1       2.077   2.183  18.679  0.00  0.00    +0.000 C 
ATOM     22  C   UNL     1       3.345   2.963  18.320  0.00  0.00    +0.000 C 
ATOM     23  C   UNL     1       3.113   4.300  17.630  0.00  0.00    +0.000 C 
ENDBRANCH   2  13
TORSDOF 1
ENDMDL
MODEL 5
REMARK VINA RESULT:      -6.9      9.899     11.123
REMARK  Name = 
REMARK  1 active torsions:
REMARK  status: ('A' for Active; 'I' for Inactive)
REMARK    1  A    between atoms: C_2  and  C_3
REMARK                            x       y       z     vdW  Elec       q    Type
REMARK                         _______ _______ _______ _____ _____    ______ ____
ROOT
ATOM      1  O   UNL     1       8.697  15.022  24.159  0.00  0.00    +0.000 OA
ATOM      2  C   UNL     1       8.477  13.884  23.745  0.00  0.00    +0.000 C 
ATOM      3  N   UNL     1       7.951  12.914  24.623  0.00  0.00    +0.000 N 
ATOM      4  C   UNL     1       7.467  11.577  24.275  0.00  0.00    +0.000 C 
ATOM      5  C   UNL     1       6.023  11.379  24.690  0.00  0.00    +0.000 C 
ATOM      6  C   UNL     1       5.807  11.729  26.156  0.00  0.00    +0.000 C 
ATOM      7  C   UNL     1       6.373  13.107  26.496  0.00  0.00    +0.000 C 
ATOM      8  C   UNL     1       7.818  13.247  26.037  0.00  0.00    +0.000 C 
ATOM      9  O   UNL     1       6.438  10.719  26.965  0.00  0.00    +0.000 OA
ATOM     10  C   UNL     1       5.436  10.328  27.904  0.00  0.00    +0.000 C 
ATOM     11  C   UNL     1       4.149  10.540  27.154  0.00  0.00    +0.000 C 
ATOM     12  O   UNL     1       4.394  11.735  26.421  0.00  0.00    +0.000 OA
ENDROOT
BRANCH   2  13
ATOM     13  C   UNL     1       8.745  13.521  22.349  0.00  0.00    +0.000 A 
ATOM     14  C   UNL     1       9.608  12.599  21.796  0.00  0.00    +0.000 A 
ATOM     15  C   UNL     1       9.514  12.476  20.370  0.00  0.00    +0.000 A 
ATOM     16  C   UNL     1       8.745  13.511  19.862  0.00  0.00    +0.000 A 
ATOM     17  S   UNL     1       7.968  14.403  21.103  0.00  0.00    +0.000 S 
ATOM     18  C   UNL     1       8.554  13.958  18.441  0.00  0.00    +0.000 C 
ATOM     19  C   UNL     1       9.822  14.603  17.872  0.00  0.00    +0.000 C 
ATOM     20  C   UNL     1      11.126  13.809  18.002  0.00  0.00    +0.000 C 
ATOM     21  C   UNL     1      11.103  12.394  17.425  0.00  0.00    +0.000 C 
ATOM     22  C   UNL     1      10.241  11.347  18.137  0.00  0.00    +0.000 C 
ATOM     23  C   UNL     1      10.287  11.392  19.658  0.00  0.00    +0.000 C 
ENDBRANCH   2  13
TORSDOF 1
ENDMDL
MODEL 6
REMARK VINA RESULT:      -6.8      4.796      8.577
REMARK  Name = 
REMARK  1 active torsions:
REMARK  status: ('A' for Active; 'I' for Inactive)
REMARK    1  A    between atoms: C_2  and  C_3
REMARK                            x       y       z     vdW  Elec       q    Type
REMARK                         _______ _______ _______ _____ _____    ______ ____
ROOT
ATOM      1  O   UNL     1       5.462   4.580  19.265  0.00  0.00    +0.000 OA
ATOM      2  C   UNL     1       5.085   5.418  18.445  0.00  0.00    +0.000 C 
ATOM      3  N   UNL     1       5.782   5.561  17.228  0.00  0.00    +0.000 N 
ATOM      4  C   UNL     1       5.385   6.368  16.073  0.00  0.00    +0.000 C 
ATOM      5  C   UNL     1       5.255   5.526  14.819  0.00  0.00    +0.000 C 
ATOM      6  C   UNL     1       6.508   4.699  14.566  0.00  0.00    +0.000 C 
ATOM      7  C   UNL     1       6.925   3.912  15.808  0.00  0.00    +0.000 C 
ATOM      8  C   UNL     1       7.019   4.812  17.034  0.00  0.00    +0.000 C 
ATOM      9  O   UNL     1       7.568   5.585  14.161  0.00  0.00    +0.000 OA
ATOM     10  C   UNL     1       8.100   4.995  12.975  0.00  0.00    +0.000 C 
ATOM     11  C   UNL     1       6.917   4.290  12.370  0.00  0.00    +0.000 C 
ATOM     12  O   UNL     1       6.235   3.768  13.505  0.00  0.00    +0.000 OA
ENDROOT
BRANCH   2  13
ATOM     13  C   UNL     1       3.919   6.265  18.711  0.00  0.00    +0.000 A 
ATOM     14  C   UNL     1       3.487   7.435  18.123  0.00  0.00    +0.000 A 
ATOM     15  C   UNL     1       2.229   7.920  18.614  0.00  0.00    +0.000 A 
ATOM     16  C   UNL     1       1.872   7.220  19.755  0.00  0.00    +0.000 A 
ATOM     17  S   UNL     1       2.894   5.870  20.026  0.00  0.00    +0.000 S 
ATOM     18  C   UNL     1       0.792   7.505  20.758  0.00  0.00    +0.000 C 
ATOM     19  C   UNL     1       1.112   8.744  21.602  0.00  0.00    +0.000 C 
ATOM     20  C   UNL     1       1.479  10.025  20.847  0.00  0.00    +0.000 C 
ATOM     21  C   UNL     1       0.462  10.499  19.809  0.00  0.00    +0.000 C 
ATOM     22  C   UNL     1       0.282   9.650  18.546  0.00  0.00    +0.000 C 
ATOM     23  C   UNL     1       1.568   9.100  17.944  0.00  0.00    +0.000 C 
ENDBRANCH   2  13
TORSDOF 1
ENDMDL
MODEL 7
REMARK VINA RESULT:      -6.8      3.748      8.215
REMARK  Name = 
REMARK  1 active torsions:
REMARK  status: ('A' for Active; 'I' for Inactive)
REMARK    1  A    between atoms: C_2  and  C_3
REMARK                            x       y       z     vdW  Elec       q    Type
REMARK                         _______ _______ _______ _____ _____    ______ ____
ROOT
ATOM      1  O   UNL     1       2.012   4.793  19.753  0.00  0.00    +0.000 OA
ATOM      2  C   UNL     1       2.606   5.787  19.336  0.00  0.00    +0.000 C 
ATOM      3  N   UNL     1       3.806   5.627  18.613  0.00  0.00    +0.000 N 
ATOM      4  C   UNL     1       4.551   6.664  17.897  0.00  0.00    +0.000 C 
ATOM      5  C   UNL     1       4.717   6.321  16.429  0.00  0.00    +0.000 C 
ATOM      6  C   UNL     1       5.303   4.929  16.241  0.00  0.00    +0.000 C 
ATOM      7  C   UNL     1       4.536   3.880  17.045  0.00  0.00    +0.000 C 
ATOM      8  C   UNL     1       4.387   4.293  18.504  0.00  0.00    +0.000 C 
ATOM      9  O   UNL     1       6.684   4.954  16.648  0.00  0.00    +0.000 OA
ATOM     10  C   UNL     1       7.393   4.353  15.564  0.00  0.00    +0.000 C 
ATOM     11  C   UNL     1       6.558   4.701  14.362  0.00  0.00    +0.000 C 
ATOM     12  O   UNL     1       5.225   4.585  14.848  0.00  0.00    +0.000 OA
ENDROOT
BRANCH   2  13
ATOM     13  C   UNL     1       2.082   7.136  19.571  0.00  0.00    +0.000 A 
ATOM     14  C   UNL     1       1.477   7.701  20.674  0.00  0.00    +0.000 A 
ATOM     15  C   UNL     1       1.182   9.098  20.541  0.00  0.00    +0.000 A 
ATOM     16  C   UNL     1       1.350   9.488  19.222  0.00  0.00    +0.000 A 
ATOM     17  S   UNL     1       2.093   8.263  18.280  0.00  0.00    +0.000 S 
ATOM     18  C   UNL     1       0.942  10.760  18.537  0.00  0.00    +0.000 C 
ATOM     19  C   UNL     1      -0.580  10.863  18.388  0.00  0.00    +0.000 C 
ATOM     20  C   UNL     1      -1.419  10.655  19.652  0.00  0.00    +0.000 C 
ATOM     21  C   UNL     1      -1.071  11.556  20.837  0.00  0.00    +0.000 C 
ATOM     22  C   UNL     1       0.274  11.329  21.534  0.00  0.00    +0.000 C 
ATOM     23  C   UNL     1       0.667   9.872  21.731  0.00  0.00    +0.000 C 
ENDBRANCH   2  13
TORSDOF 1
ENDMDL
MODEL 8
REMARK VINA RESULT:      -6.7      2.657      3.604
REMARK  Name = 
REMARK  1 active torsions:
REMARK  status: ('A' for Active; 'I' for Inactive)
REMARK    1  A    between atoms: C_2  and  C_3
REMARK                            x       y       z     vdW  Elec       q    Type
REMARK                         _______ _______ _______ _____ _____    ______ ____
ROOT
ATOM      1  O   UNL     1       1.070   7.768  21.133  0.00  0.00    +0.000 OA
ATOM      2  C   UNL     1       1.501   8.128  20.038  0.00  0.00    +0.000 C 
ATOM      3  N   UNL     1       1.037   9.334  19.471  0.00  0.00    +0.000 N 
ATOM      4  C   UNL     1       1.554  10.005  18.278  0.00  0.00    +0.000 C 
ATOM      5  C   UNL     1       2.013  11.417  18.585  0.00  0.00    +0.000 C 
ATOM      6  C   UNL     1       0.931  12.216  19.297  0.00  0.00    +0.000 C 
ATOM      7  C   UNL     1       0.375  11.463  20.505  0.00  0.00    +0.000 C 
ATOM      8  C   UNL     1      -0.049  10.048  20.133  0.00  0.00    +0.000 C 
ATOM      9  O   UNL     1      -0.124  12.497  18.358  0.00  0.00    +0.000 OA
ATOM     10  C   UNL     1      -0.353  13.901  18.479  0.00  0.00    +0.000 C 
ATOM     11  C   UNL     1       0.995  14.446  18.867  0.00  0.00    +0.000 C 
ATOM     12  O   UNL     1       1.502  13.454  19.753  0.00  0.00    +0.000 OA
ENDROOT
BRANCH   2  13
ATOM     13  C   UNL     1       2.494   7.329  19.314  0.00  0.00    +0.000 A 
ATOM     14  C   UNL     1       3.064   7.489  18.069  0.00  0.00    +0.000 A 
ATOM     15  C   UNL     1       4.079   6.527  17.750  0.00  0.00    +0.000 A 
ATOM     16  C   UNL     1       4.063   5.504  18.684  0.00  0.00    +0.000 A 
ATOM     17  S   UNL     1       3.044   5.865  20.015  0.00  0.00    +0.000 S 
ATOM     18  C   UNL     1       4.749   4.168  18.657  0.00  0.00    +0.000 C 
ATOM     19  C   UNL     1       4.139   3.236  17.605  0.00  0.00    +0.000 C 
ATOM     20  C   UNL     1       4.005   3.786  16.182  0.00  0.00    +0.000 C 
ATOM     21  C   UNL     1       5.292   4.315  15.549  0.00  0.00    +0.000 C 
ATOM     22  C   UNL     1       5.895   5.599  16.129  0.00  0.00    +0.000 C 
ATOM     23  C   UNL     1       4.892   6.686  16.487  0.00  0.00    +0.000 C 
ENDBRANCH   2  13
TORSDOF 1
ENDMDL
MODEL 9
REMARK VINA RESULT:      -6.7      2.619      3.763
REMARK  Name = 
REMARK  1 active torsions:
REMARK  status: ('A' for Active; 'I' for Inactive)
REMARK    1  A    between atoms: C_2  and  C_3
REMARK                            x       y       z     vdW  Elec       q    Type
REMARK                         _______ _______ _______ _____ _____    ______ ____
ROOT
ATOM      1  O   UNL     1       1.591   8.306  22.234  0.00  0.00    +0.000 OA
ATOM      2  C   UNL     1       1.412   8.272  21.017  0.00  0.00    +0.000 C 
ATOM      3  N   UNL     1       0.923   9.417  20.354  0.00  0.00    +0.000 N 
ATOM      4  C   UNL     1       0.813   9.622  18.910  0.00  0.00    +0.000 C 
ATOM      5  C   UNL     1       1.592  10.841  18.456  0.00  0.00    +0.000 C 
ATOM      6  C   UNL     1       1.219  12.076  19.263  0.00  0.00    +0.000 C 
ATOM      7  C   UNL     1       1.292  11.811  20.767  0.00  0.00    +0.000 C 
ATOM      8  C   UNL     1       0.506  10.565  21.153  0.00  0.00    +0.000 C 
ATOM      9  O   UNL     1      -0.112  12.481  18.894  0.00  0.00    +0.000 OA
ATOM     10  C   UNL     1      -0.002  13.876  18.612  0.00  0.00    +0.000 C 
ATOM     11  C   UNL     1       1.409  14.024  18.111  0.00  0.00    +0.000 C 
ATOM     12  O   UNL     1       2.143  13.129  18.939  0.00  0.00    +0.000 OA
ENDROOT
BRANCH   2  13
ATOM     13  C   UNL     1       1.705   7.062  20.242  0.00  0.00    +0.000 A 
ATOM     14  C   UNL     1       1.345   5.746  20.434  0.00  0.00    +0.000 A 
ATOM     15  C   UNL     1       1.761   4.855  19.389  0.00  0.00    +0.000 A 
ATOM     16  C   UNL     1       2.656   5.503  18.553  0.00  0.00    +0.000 A 
ATOM     17  S   UNL     1       2.748   7.182  18.888  0.00  0.00    +0.000 S 
ATOM     18  C   UNL     1       3.545   4.944  17.480  0.00  0.00    +0.000 C 
ATOM     19  C   UNL     1       4.682   4.100  18.065  0.00  0.00    +0.000 C 
ATOM     20  C   UNL     1       4.292   2.996  19.052  0.00  0.00    +0.000 C 
ATOM     21  C   UNL     1       3.263   1.985  18.546  0.00  0.00    +0.000 C 
ATOM     22  C   UNL     1       1.828   2.477  18.327  0.00  0.00    +0.000 C 
ATOM     23  C   UNL     1       1.293   3.419  19.396  0.00  0.00    +0.000 C 
ENDBRANCH   2  13
TORSDOF 1
ENDMDL
