MODEL 1
REMARK VINA RESULT:      -7.8      0.000      0.000
REMARK  Name = 
REMARK  9 active torsions:
REMARK  status: ('A' for Active; 'I' for Inactive)
REMARK    1  A    between atoms: C_1  and  O_2
REMARK    2  A    between atoms: O_2  and  C_3
REMARK    3  A    between atoms: C_3  and  C_4
REMARK    4  A    between atoms: C_4  and  N_5
REMARK    5  A    between atoms: N_5  and  C_6
REMARK    6  A    between atoms: C_6  and  C_7
REMARK    7  A    between atoms: N_11  and  C_12
REMARK    8  A    between atoms: C_22  and  C_24
REMARK    9  A    between atoms: C_24  and  O_25
REMARK                            x       y       z     vdW  Elec       q    Type
REMARK                         _______ _______ _______ _____ _____    ______ ____
ROOT
ATOM      1  C   UNL     1       4.627   3.822  18.341  0.00  0.00    +0.000 C 
ATOM      2  C   UNL     1       3.283   3.048  18.258  0.00  0.00    +0.000 C 
ATOM      3  C   UNL     1       2.266   3.821  17.416  0.00  0.00    +0.000 C 
ATOM      4  C   UNL     1       2.020   5.196  18.027  0.00  0.00    +0.000 C 
ATOM      5  N   UNL     1       3.268   5.964  18.205  0.00  0.00    +0.000 NA
ATOM      6  C   UNL     1       4.295   5.200  18.946  0.00  0.00    +0.000 C 
ENDROOT
BRANCH   5   7
ATOM      7  C   UNL     1       2.970   7.265  18.867  0.00  0.00    +0.000 C 
ATOM      8  C   UNL     1       2.154   8.247  17.983  0.00  0.00    +0.000 C 
ATOM      9  C   UNL     1       1.301   8.973  18.969  0.00  0.00    +0.000 A 
ATOM     10  C   UNL     1       0.494  10.073  18.727  0.00  0.00    +0.000 A 
ATOM     11  C   UNL     1      -0.324  10.532  19.757  0.00  0.00    +0.000 A 
ATOM     12  C   UNL     1      -0.325   9.892  21.007  0.00  0.00    +0.000 A 
ATOM     13  C   UNL     1       0.492   8.785  21.240  0.00  0.00    +0.000 A 
ATOM     14  C   UNL     1       1.301   8.335  20.209  0.00  0.00    +0.000 A 
ATOM     15  C   UNL     1       2.165   7.116  20.192  0.00  0.00    +0.000 C 
ENDBRANCH   5   7
BRANCH   1  16
ATOM     16  C   UNL     1       5.258   3.837  16.927  0.00  0.00    +0.000 C 
BRANCH  16  17
ATOM     17  N   UNL     1       6.554   4.424  16.561  0.00  0.00    +0.000 N 
ATOM     18  C   UNL     1       6.821   4.665  15.194  0.00  0.00    +0.000 C 
ATOM     19  O   UNL     1       7.811   5.283  14.787  0.00  0.00    +0.000 OA
BRANCH  17  20
ATOM     20  C   UNL     1       7.423   5.116  17.522  0.00  0.00    +0.000 C 
BRANCH  20  21
ATOM     21  C   UNL     1       7.079   6.581  17.811  0.00  0.00    +0.000 C 
BRANCH  21  23
ATOM     22  C   UNL     1       8.119   8.730  17.903  0.00  0.00    +0.000 C 
ATOM     23  O   UNL     1       8.174   7.362  18.289  0.00  0.00    +0.000 OA
ENDBRANCH  21  23
ENDBRANCH  20  21
ENDBRANCH  17  20
BRANCH  18  24
ATOM     24  C   UNL     1       5.782   4.189  14.160  0.00  0.00    +0.000 C 
BRANCH  24  25
ATOM     25  O   UNL     1       6.318   3.242  13.242  0.00  0.00    +0.000 OA
ATOM     26  H   UNL     1       6.879   3.760  12.630  0.00  0.00    +0.000 HD
ENDBRANCH  24  25
ENDBRANCH  18  24
ENDBRANCH  16  17
ENDBRANCH   1  16
TORSDOF 8
ENDMDL
MODEL 2
REMARK VINA RESULT:      -7.5      1.035      2.898
REMARK  Name = 
REMARK  9 active torsions:
REMARK  status: ('A' for Active; 'I' for Inactive)
REMARK    1  A    between atoms: C_1  and  O_2
REMARK    2  A    between atoms: O_2  and  C_3
REMARK    3  A    between atoms: C_3  and  C_4
REMARK    4  A    between atoms: C_4  and  N_5
REMARK    5  A    between atoms: N_5  and  C_6
REMARK    6  A    between atoms: C_6  and  C_7
REMARK    7  A    between atoms: N_11  and  C_12
REMARK    8  A    between atoms: C_22  and  C_24
REMARK    9  A    between atoms: C_24  and  O_25
REMARK                            x       y       z     vdW  Elec       q    Type
REMARK                         _______ _______ _______ _____ _____    ______ ____
ROOT
ATOM      1  C   UNL     1       4.505   4.103  18.842  0.00  0.00    +0.000 C 
ATOM      2  C   UNL     1       3.179   3.335  18.581  0.00  0.00    +0.000 C 
ATOM      3  C   UNL     1       2.340   4.052  17.523  0.00  0.00    +0.000 C 
ATOM      4  C   UNL     1       2.020   5.471  17.983  0.00  0.00    +0.000 C 
ATOM      5  N   UNL     1       3.234   6.240  18.321  0.00  0.00    +0.000 NA
ATOM      6  C   UNL     1       4.101   5.524  19.281  0.00  0.00    +0.000 C 
ENDROOT
BRANCH   5   7
ATOM      7  C   UNL     1       2.853   7.588  18.828  0.00  0.00    +0.000 C 
ATOM      8  C   UNL     1       1.994   8.413  17.831  0.00  0.00    +0.000 C 
ATOM      9  C   UNL     1       1.086   9.195  18.721  0.00  0.00    +0.000 A 
ATOM     10  C   UNL     1       0.221  10.212  18.349  0.00  0.00    +0.000 A 
ATOM     11  C   UNL     1      -0.636  10.736  19.314  0.00  0.00    +0.000 A 
ATOM     12  C   UNL     1      -0.617  10.244  20.629  0.00  0.00    +0.000 A 
ATOM     13  C   UNL     1       0.259   9.220  20.993  0.00  0.00    +0.000 A 
ATOM     14  C   UNL     1       1.106   8.705  20.026  0.00  0.00    +0.000 A 
ATOM     15  C   UNL     1       2.039   7.544  20.155  0.00  0.00    +0.000 C 
ENDBRANCH   5   7
BRANCH   1  16
ATOM     16  C   UNL     1       5.370   4.009  17.562  0.00  0.00    +0.000 C 
BRANCH  16  17
ATOM     17  N   UNL     1       5.864   5.140  16.763  0.00  0.00    +0.000 N 
ATOM     18  C   UNL     1       7.077   5.755  17.146  0.00  0.00    +0.000 C 
ATOM     19  O   UNL     1       7.655   6.613  16.470  0.00  0.00    +0.000 OA
BRANCH  17  20
ATOM     20  C   UNL     1       5.394   5.428  15.402  0.00  0.00    +0.000 C 
BRANCH  20  21
ATOM     21  C   UNL     1       5.357   4.239  14.434  0.00  0.00    +0.000 C 
BRANCH  21  23
ATOM     22  C   UNL     1       6.412   3.547  12.406  0.00  0.00    +0.000 C 
ATOM     23  O   UNL     1       6.583   4.001  13.743  0.00  0.00    +0.000 OA
ENDBRANCH  21  23
ENDBRANCH  20  21
ENDBRANCH  17  20
BRANCH  18  24
ATOM     24  C   UNL     1       7.749   5.278  18.449  0.00  0.00    +0.000 C 
BRANCH  24  25
ATOM     25  O   UNL     1       8.273   6.353  19.221  0.00  0.00    +0.000 OA
ATOM     26  H   UNL     1       8.541   5.956  20.074  0.00  0.00    +0.000 HD
ENDBRANCH  24  25
ENDBRANCH  18  24
ENDBRANCH  16  17
ENDBRANCH   1  16
TORSDOF 8
ENDMDL
MODEL 3
REMARK VINA RESULT:      -7.3      1.214      3.356
REMARK  Name = 
REMARK  9 active torsions:
REMARK  status: ('A' for Active; 'I' for Inactive)
REMARK    1  A    between atoms: C_1  and  O_2
REMARK    2  A    between atoms: O_2  and  C_3
REMARK    3  A    between atoms: C_3  and  C_4
REMARK    4  A    between atoms: C_4  and  N_5
REMARK    5  A    between atoms: N_5  and  C_6
REMARK    6  A    between atoms: C_6  and  C_7
REMARK    7  A    between atoms: N_11  and  C_12
REMARK    8  A    between atoms: C_22  and  C_24
REMARK    9  A    between atoms: C_24  and  O_25
REMARK                            x       y       z     vdW  Elec       q    Type
REMARK                         _______ _______ _______ _____ _____    ______ ____
ROOT
ATOM      1  C   UNL     1       5.219   4.365  19.261  0.00  0.00    +0.000 C 
ATOM      2  C   UNL     1       4.496   2.998  19.114  0.00  0.00    +0.000 C 
ATOM      3  C   UNL     1       3.561   3.009  17.904  0.00  0.00    +0.000 C 
ATOM      4  C   UNL     1       2.524   4.116  18.055  0.00  0.00    +0.000 C 
ATOM      5  N   UNL     1       3.141   5.440  18.274  0.00  0.00    +0.000 NA
ATOM      6  C   UNL     1       4.112   5.428  19.389  0.00  0.00    +0.000 C 
ENDROOT
BRANCH   5   7
ATOM      7  C   UNL     1       2.079   6.464  18.483  0.00  0.00    +0.000 C 
ATOM      8  C   UNL     1       1.890   6.878  19.968  0.00  0.00    +0.000 C 
ATOM      9  C   UNL     1       1.521   8.321  19.880  0.00  0.00    +0.000 A 
ATOM     10  C   UNL     1       1.088   9.138  20.912  0.00  0.00    +0.000 A 
ATOM     11  C   UNL     1       0.912  10.495  20.651  0.00  0.00    +0.000 A 
ATOM     12  C   UNL     1       1.166  11.015  19.371  0.00  0.00    +0.000 A 
ATOM     13  C   UNL     1       1.601  10.183  18.338  0.00  0.00    +0.000 A 
ATOM     14  C   UNL     1       1.775   8.836  18.609  0.00  0.00    +0.000 A 
ATOM     15  C   UNL     1       2.332   7.787  17.701  0.00  0.00    +0.000 C 
ENDBRANCH   5   7
BRANCH   1  16
ATOM     16  C   UNL     1       6.180   4.528  18.058  0.00  0.00    +0.000 C 
BRANCH  16  17
ATOM     17  N   UNL     1       6.281   5.702  17.181  0.00  0.00    +0.000 N 
ATOM     18  C   UNL     1       7.229   6.701  17.498  0.00  0.00    +0.000 C 
ATOM     19  O   UNL     1       7.498   7.653  16.757  0.00  0.00    +0.000 OA
BRANCH  17  20
ATOM     20  C   UNL     1       5.742   5.733  15.815  0.00  0.00    +0.000 C 
BRANCH  20  21
ATOM     21  C   UNL     1       6.441   4.830  14.792  0.00  0.00    +0.000 C 
BRANCH  21  23
ATOM     22  C   UNL     1       6.214   3.561  12.781  0.00  0.00    +0.000 C 
ATOM     23  O   UNL     1       5.558   4.168  13.888  0.00  0.00    +0.000 OA
ENDBRANCH  21  23
ENDBRANCH  20  21
ENDBRANCH  17  20
BRANCH  18  24
ATOM     24  C   UNL     1       8.021   6.552  18.813  0.00  0.00    +0.000 C 
BRANCH  24  25
ATOM     25  O   UNL     1       8.757   7.725  19.144  0.00  0.00    +0.000 OA
ATOM     26  H   UNL     1       8.214   8.195  19.808  0.00  0.00    +0.000 HD
ENDBRANCH  24  25
ENDBRANCH  18  24
ENDBRANCH  16  17
ENDBRANCH   1  16
TORSDOF 8
ENDMDL
MODEL 4
REMARK VINA RESULT:      -7.2      0.897      1.576
REMARK  Name = 
REMARK  9 active torsions:
REMARK  status: ('A' for Active; 'I' for Inactive)
REMARK    1  A    between atoms: C_1  and  O_2
REMARK    2  A    between atoms: O_2  and  C_3
REMARK    3  A    between atoms: C_3  and  C_4
REMARK    4  A    between atoms: C_4  and  N_5
REMARK    5  A    between atoms: N_5  and  C_6
REMARK    6  A    between atoms: C_6  and  C_7
REMARK    7  A    between atoms: N_11  and  C_12
REMARK    8  A    between atoms: C_22  and  C_24
REMARK    9  A    between atoms: C_24  and  O_25
REMARK                            x       y       z     vdW  Elec       q    Type
REMARK                         _______ _______ _______ _____ _____    ______ ____
ROOT
ATOM      1  C   UNL     1       5.122   4.205  18.945  0.00  0.00    +0.000 C 
ATOM      2  C   UNL     1       4.489   2.836  19.318  0.00  0.00    +0.000 C 
ATOM      3  C   UNL     1       3.194   2.609  18.538  0.00  0.00    +0.000 C 
ATOM      4  C   UNL     1       2.199   3.725  18.842  0.00  0.00    +0.000 C 
ATOM      5  N   UNL     1       2.760   5.065  18.579  0.00  0.00    +0.000 NA
ATOM      6  C   UNL     1       4.057   5.273  19.258  0.00  0.00    +0.000 C 
ENDROOT
BRANCH   5   7
ATOM      7  C   UNL     1       1.769   6.111  18.959  0.00  0.00    +0.000 C 
ATOM      8  C   UNL     1       1.804   6.491  20.465  0.00  0.00    +0.000 C 
ATOM      9  C   UNL     1       1.469   7.945  20.462  0.00  0.00    +0.000 A 
ATOM     10  C   UNL     1       1.210   8.746  21.563  0.00  0.00    +0.000 A 
ATOM     11  C   UNL     1       1.039  10.114  21.359  0.00  0.00    +0.000 A 
ATOM     12  C   UNL     1       1.125  10.660  20.068  0.00  0.00    +0.000 A 
ATOM     13  C   UNL     1       1.385   9.844  18.966  0.00  0.00    +0.000 A 
ATOM     14  C   UNL     1       1.556   8.486  19.179  0.00  0.00    +0.000 A 
ATOM     15  C   UNL     1       1.948   7.447  18.179  0.00  0.00    +0.000 C 
ENDBRANCH   5   7
BRANCH   1  16
ATOM     16  C   UNL     1       5.590   4.128  17.471  0.00  0.00    +0.000 C 
BRANCH  16  17
ATOM     17  N   UNL     1       6.764   4.800  16.896  0.00  0.00    +0.000 N 
ATOM     18  C   UNL     1       6.891   4.848  15.490  0.00  0.00    +0.000 C 
ATOM     19  O   UNL     1       7.755   5.507  14.901  0.00  0.00    +0.000 OA
BRANCH  17  20
ATOM     20  C   UNL     1       7.604   5.737  17.654  0.00  0.00    +0.000 C 
BRANCH  20  21
ATOM     21  C   UNL     1       7.068   7.166  17.791  0.00  0.00    +0.000 C 
BRANCH  21  23
ATOM     22  C   UNL     1       8.233   9.243  17.982  0.00  0.00    +0.000 C 
ATOM     23  O   UNL     1       7.861   8.159  17.140  0.00  0.00    +0.000 OA
ENDBRANCH  21  23
ENDBRANCH  20  21
ENDBRANCH  17  20
BRANCH  18  24
ATOM     24  C   UNL     1       5.848   4.089  14.645  0.00  0.00    +0.000 C 
BRANCH  24  25
ATOM     25  O   UNL     1       6.437   3.365  13.570  0.00  0.00    +0.000 OA
ATOM     26  H   UNL     1       6.549   4.014  12.847  0.00  0.00    +0.000 HD
ENDBRANCH  24  25
ENDBRANCH  18  24
ENDBRANCH  16  17
ENDBRANCH   1  16
TORSDOF 8
ENDMDL
MODEL 5
REMARK VINA RESULT:      -7.0      3.311      7.467
REMARK  Name = 
REMARK  9 active torsions:
REMARK  status: ('A' for Active; 'I' for Inactive)
REMARK    1  A    between atoms: C_1  and  O_2
REMARK    2  A    between atoms: O_2  and  C_3
REMARK    3  A    between atoms: C_3  and  C_4
REMARK    4  A    between atoms: C_4  and  N_5
REMARK    5  A    between atoms: N_5  and  C_6
REMARK    6  A    between atoms: C_6  and  C_7
REMARK    7  A    between atoms: N_11  and  C_12
REMARK    8  A    between atoms: C_22  and  C_24
REMARK    9  A    between atoms: C_24  and  O_25
REMARK                            x       y       z     vdW  Elec       q    Type
REMARK                         _______ _______ _______ _____ _____    ______ ____
ROOT
ATOM      1  C   UNL     1       1.592   5.836  19.525  0.00  0.00    +0.000 C 
ATOM      2  C   UNL     1       1.229   4.710  20.532  0.00  0.00    +0.000 C 
ATOM      3  C   UNL     1       2.481   4.201  21.247  0.00  0.00    +0.000 C 
ATOM      4  C   UNL     1       3.482   3.665  20.229  0.00  0.00    +0.000 C 
ATOM      5  N   UNL     1       3.820   4.661  19.194  0.00  0.00    +0.000 NA
ATOM      6  C   UNL     1       2.616   5.227  18.548  0.00  0.00    +0.000 C 
ENDROOT
BRANCH   5   7
ATOM      7  C   UNL     1       4.745   4.057  18.194  0.00  0.00    +0.000 C 
ATOM      8  C   UNL     1       4.082   3.768  16.819  0.00  0.00    +0.000 C 
ATOM      9  C   UNL     1       5.187   4.007  15.845  0.00  0.00    +0.000 A 
ATOM     10  C   UNL     1       5.177   3.738  14.486  0.00  0.00    +0.000 A 
ATOM     11  C   UNL     1       6.266   4.150  13.723  0.00  0.00    +0.000 A 
ATOM     12  C   UNL     1       7.346   4.819  14.322  0.00  0.00    +0.000 A 
ATOM     13  C   UNL     1       7.347   5.085  15.693  0.00  0.00    +0.000 A 
ATOM     14  C   UNL     1       6.257   4.672  16.442  0.00  0.00    +0.000 A 
ATOM     15  C   UNL     1       5.990   4.941  17.888  0.00  0.00    +0.000 C 
ENDBRANCH   5   7
BRANCH   1  16
ATOM     16  C   UNL     1       2.076   7.063  20.336  0.00  0.00    +0.000 C 
BRANCH  16  17
ATOM     17  N   UNL     1       1.340   8.321  20.528  0.00  0.00    +0.000 N 
ATOM     18  C   UNL     1       1.212   9.201  19.430  0.00  0.00    +0.000 C 
ATOM     19  O   UNL     1       0.498  10.209  19.438  0.00  0.00    +0.000 OA
BRANCH  17  20
ATOM     20  C   UNL     1       0.422   8.551  21.652  0.00  0.00    +0.000 C 
BRANCH  20  21
ATOM     21  C   UNL     1       1.033   9.192  22.903  0.00  0.00    +0.000 C 
BRANCH  21  23
ATOM     22  C   UNL     1      -0.954  10.516  22.973  0.00  0.00    +0.000 C 
ATOM     23  O   UNL     1       0.104   9.914  23.710  0.00  0.00    +0.000 OA
ENDBRANCH  21  23
ENDBRANCH  20  21
ENDBRANCH  17  20
BRANCH  18  24
ATOM     24  C   UNL     1       1.953   8.841  18.127  0.00  0.00    +0.000 C 
BRANCH  24  25
ATOM     25  O   UNL     1       2.090   9.954  17.250  0.00  0.00    +0.000 OA
ATOM     26  H   UNL     1       2.746  10.542  17.675  0.00  0.00    +0.000 HD
ENDBRANCH  24  25
ENDBRANCH  18  24
ENDBRANCH  16  17
ENDBRANCH   1  16
TORSDOF 8
ENDMDL
MODEL 6
REMARK VINA RESULT:      -7.0      3.516      4.802
REMARK  Name = 
REMARK  9 active torsions:
REMARK  status: ('A' for Active; 'I' for Inactive)
REMARK    1  A    between atoms: C_1  and  O_2
REMARK    2  A    between atoms: O_2  and  C_3
REMARK    3  A    between atoms: C_3  and  C_4
REMARK    4  A    between atoms: C_4  and  N_5
REMARK    5  A    between atoms: N_5  and  C_6
REMARK    6  A    between atoms: C_6  and  C_7
REMARK    7  A    between atoms: N_11  and  C_12
REMARK    8  A    between atoms: C_22  and  C_24
REMARK    9  A    between atoms: C_24  and  O_25
REMARK                            x       y       z     vdW  Elec       q    Type
REMARK                         _______ _______ _______ _____ _____    ______ ____
ROOT
ATOM      1  C   UNL     1       3.179   3.606  17.200  0.00  0.00    +0.000 C 
ATOM      2  C   UNL     1       4.466   3.831  16.359  0.00  0.00    +0.000 C 
ATOM      3  C   UNL     1       5.578   4.429  17.222  0.00  0.00    +0.000 C 
ATOM      4  C   UNL     1       5.121   5.759  17.814  0.00  0.00    +0.000 C 
ATOM      5  N   UNL     1       3.859   5.635  18.569  0.00  0.00    +0.000 NA
ATOM      6  C   UNL     1       2.794   4.982  17.778  0.00  0.00    +0.000 C 
ENDROOT
BRANCH   5   7
ATOM      7  C   UNL     1       3.431   6.975  19.061  0.00  0.00    +0.000 C 
ATOM      8  C   UNL     1       2.763   7.859  17.974  0.00  0.00    +0.000 C 
ATOM      9  C   UNL     1       1.742   8.634  18.738  0.00  0.00    +0.000 A 
ATOM     10  C   UNL     1       0.971   9.688  18.273  0.00  0.00    +0.000 A 
ATOM     11  C   UNL     1      -0.019  10.201  19.108  0.00  0.00    +0.000 A 
ATOM     12  C   UNL     1      -0.223   9.662  20.389  0.00  0.00    +0.000 A 
ATOM     13  C   UNL     1       0.560   8.601  20.848  0.00  0.00    +0.000 A 
ATOM     14  C   UNL     1       1.540   8.097  20.009  0.00  0.00    +0.000 A 
ATOM     15  C   UNL     1       2.414   6.906  20.239  0.00  0.00    +0.000 C 
ENDBRANCH   5   7
BRANCH   1  16
ATOM     16  C   UNL     1       3.476   2.495  18.237  0.00  0.00    +0.000 C 
BRANCH  16  17
ATOM     17  N   UNL     1       3.302   2.597  19.692  0.00  0.00    +0.000 N 
ATOM     18  C   UNL     1       2.017   2.368  20.234  0.00  0.00    +0.000 C 
ATOM     19  O   UNL     1       1.788   2.287  21.446  0.00  0.00    +0.000 OA
BRANCH  17  20
ATOM     20  C   UNL     1       4.422   2.548  20.641  0.00  0.00    +0.000 C 
BRANCH  20  21
ATOM     21  C   UNL     1       5.084   1.179  20.835  0.00  0.00    +0.000 C 
BRANCH  21  23
ATOM     22  C   UNL     1       6.427  -0.229  22.219  0.00  0.00    +0.000 C 
ATOM     23  O   UNL     1       5.815   1.044  22.053  0.00  0.00    +0.000 OA
ENDBRANCH  21  23
ENDBRANCH  20  21
ENDBRANCH  17  20
BRANCH  18  24
ATOM     24  C   UNL     1       0.850   2.140  19.253  0.00  0.00    +0.000 C 
BRANCH  24  25
ATOM     25  O   UNL     1      -0.216   3.063  19.446  0.00  0.00    +0.000 OA
ATOM     26  H   UNL     1      -0.565   2.877  20.341  0.00  0.00    +0.000 HD
ENDBRANCH  24  25
ENDBRANCH  18  24
ENDBRANCH  16  17
ENDBRANCH   1  16
TORSDOF 8
ENDMDL
MODEL 7
REMARK VINA RESULT:      -6.7      0.988      1.187
REMARK  Name = 
REMARK  9 active torsions:
REMARK  status: ('A' for Active; 'I' for Inactive)
REMARK    1  A    between atoms: C_1  and  O_2
REMARK    2  A    between atoms: O_2  and  C_3
REMARK    3  A    between atoms: C_3  and  C_4
REMARK    4  A    between atoms: C_4  and  N_5
REMARK    5  A    between atoms: N_5  and  C_6
REMARK    6  A    between atoms: C_6  and  C_7
REMARK    7  A    between atoms: N_11  and  C_12
REMARK    8  A    between atoms: C_22  and  C_24
REMARK    9  A    between atoms: C_24  and  O_25
REMARK                            x       y       z     vdW  Elec       q    Type
REMARK                         _______ _______ _______ _____ _____    ______ ____
ROOT
ATOM      1  C   UNL     1       4.361   4.154  18.681  0.00  0.00    +0.000 C 
ATOM      2  C   UNL     1       3.013   3.393  18.552  0.00  0.00    +0.000 C 
ATOM      3  C   UNL     1       2.076   4.115  17.582  0.00  0.00    +0.000 C 
ATOM      4  C   UNL     1       1.811   5.535  18.071  0.00  0.00    +0.000 C 
ATOM      5  N   UNL     1       3.056   6.297  18.287  0.00  0.00    +0.000 NA
ATOM      6  C   UNL     1       4.010   5.577  19.157  0.00  0.00    +0.000 C 
ENDROOT
BRANCH   5   7
ATOM      7  C   UNL     1       2.734   7.648  18.828  0.00  0.00    +0.000 C 
ATOM      8  C   UNL     1       1.871   8.517  17.873  0.00  0.00    +0.000 C 
ATOM      9  C   UNL     1       1.017   9.310  18.805  0.00  0.00    +0.000 A 
ATOM     10  C   UNL     1       0.173  10.360  18.478  0.00  0.00    +0.000 A 
ATOM     11  C   UNL     1      -0.637  10.893  19.478  0.00  0.00    +0.000 A 
ATOM     12  C   UNL     1      -0.593  10.377  20.783  0.00  0.00    +0.000 A 
ATOM     13  C   UNL     1       0.261   9.320  21.102  0.00  0.00    +0.000 A 
ATOM     14  C   UNL     1       1.061   8.796  20.100  0.00  0.00    +0.000 A 
ATOM     15  C   UNL     1       1.961   7.605  20.180  0.00  0.00    +0.000 C 
ENDBRANCH   5   7
BRANCH   1  16
ATOM     16  C   UNL     1       5.096   4.056  17.321  0.00  0.00    +0.000 C 
BRANCH  16  17
ATOM     17  N   UNL     1       6.193   4.920  16.864  0.00  0.00    +0.000 N 
ATOM     18  C   UNL     1       6.656   4.774  15.536  0.00  0.00    +0.000 C 
ATOM     19  O   UNL     1       7.468   5.539  15.005  0.00  0.00    +0.000 OA
BRANCH  17  20
ATOM     20  C   UNL     1       6.581   6.159  17.552  0.00  0.00    +0.000 C 
BRANCH  20  21
ATOM     21  C   UNL     1       7.756   6.050  18.529  0.00  0.00    +0.000 C 
BRANCH  21  23
ATOM     22  C   UNL     1       8.522   5.159  20.609  0.00  0.00    +0.000 C 
ATOM     23  O   UNL     1       7.406   5.555  19.821  0.00  0.00    +0.000 OA
ENDBRANCH  21  23
ENDBRANCH  20  21
ENDBRANCH  17  20
BRANCH  18  24
ATOM     24  C   UNL     1       6.059   3.636  14.685  0.00  0.00    +0.000 C 
BRANCH  24  25
ATOM     25  O   UNL     1       6.616   3.581  13.376  0.00  0.00    +0.000 OA
ATOM     26  H   UNL     1       6.761   4.513  13.116  0.00  0.00    +0.000 HD
ENDBRANCH  24  25
ENDBRANCH  18  24
ENDBRANCH  16  17
ENDBRANCH   1  16
TORSDOF 8
ENDMDL
MODEL 8
REMARK VINA RESULT:      -6.7      3.079      7.588
REMARK  Name = 
REMARK  9 active torsions:
REMARK  status: ('A' for Active; 'I' for Inactive)
REMARK    1  A    between atoms: C_1  and  O_2
REMARK    2  A    between atoms: O_2  and  C_3
REMARK    3  A    between atoms: C_3  and  C_4
REMARK    4  A    between atoms: C_4  and  N_5
REMARK    5  A    between atoms: N_5  and  C_6
REMARK    6  A    between atoms: C_6  and  C_7
REMARK    7  A    between atoms: N_11  and  C_12
REMARK    8  A    between atoms: C_22  and  C_24
REMARK    9  A    between atoms: C_24  and  O_25
REMARK                            x       y       z     vdW  Elec       q    Type
REMARK                         _______ _______ _______ _____ _____    ______ ____
ROOT
ATOM      1  C   UNL     1       6.718   4.595  18.534  0.00  0.00    +0.000 C 
ATOM      2  C   UNL     1       7.826   5.663  18.749  0.00  0.00    +0.000 C 
ATOM      3  C   UNL     1       7.436   6.986  18.089  0.00  0.00    +0.000 C 
ATOM      4  C   UNL     1       7.216   6.780  16.594  0.00  0.00    +0.000 C 
ATOM      5  N   UNL     1       6.225   5.723  16.312  0.00  0.00    +0.000 NA
ATOM      6  C   UNL     1       6.540   4.458  17.009  0.00  0.00    +0.000 C 
ENDROOT
BRANCH   5   7
ATOM      7  C   UNL     1       6.106   5.522  14.840  0.00  0.00    +0.000 C 
ATOM      8  C   UNL     1       7.356   4.866  14.194  0.00  0.00    +0.000 C 
ATOM      9  C   UNL     1       6.781   4.035  13.095  0.00  0.00    +0.000 A 
ATOM     10  C   UNL     1       7.477   3.362  12.103  0.00  0.00    +0.000 A 
ATOM     11  C   UNL     1       6.762   2.536  11.240  0.00  0.00    +0.000 A 
ATOM     12  C   UNL     1       5.371   2.394  11.375  0.00  0.00    +0.000 A 
ATOM     13  C   UNL     1       4.680   3.077  12.377  0.00  0.00    +0.000 A 
ATOM     14  C   UNL     1       5.401   3.895  13.232  0.00  0.00    +0.000 A 
ATOM     15  C   UNL     1       4.897   4.628  14.433  0.00  0.00    +0.000 C 
ENDBRANCH   5   7
BRANCH   1  16
ATOM     16  C   UNL     1       5.465   5.043  19.325  0.00  0.00    +0.000 C 
BRANCH  16  17
ATOM     17  N   UNL     1       4.093   4.555  19.126  0.00  0.00    +0.000 N 
ATOM     18  C   UNL     1       3.119   5.462  18.648  0.00  0.00    +0.000 C 
ATOM     19  O   UNL     1       1.979   5.128  18.309  0.00  0.00    +0.000 OA
BRANCH  17  20
ATOM     20  C   UNL     1       3.753   3.130  19.028  0.00  0.00    +0.000 C 
BRANCH  20  21
ATOM     21  C   UNL     1       3.385   2.431  20.342  0.00  0.00    +0.000 C 
BRANCH  21  23
ATOM     22  C   UNL     1       1.413   3.037  21.547  0.00  0.00    +0.000 C 
ATOM     23  O   UNL     1       1.985   2.224  20.529  0.00  0.00    +0.000 OA
ENDBRANCH  21  23
ENDBRANCH  20  21
ENDBRANCH  17  20
BRANCH  18  24
ATOM     24  C   UNL     1       3.530   6.937  18.476  0.00  0.00    +0.000 C 
BRANCH  24  25
ATOM     25  O   UNL     1       3.796   7.277  17.119  0.00  0.00    +0.000 OA
ATOM     26  H   UNL     1       4.425   6.599  16.799  0.00  0.00    +0.000 HD
ENDBRANCH  24  25
ENDBRANCH  18  24
ENDBRANCH  16  17
ENDBRANCH   1  16
TORSDOF 8
ENDMDL
MODEL 9
REMARK VINA RESULT:      -6.6      1.283      3.038
REMARK  Name = 
REMARK  9 active torsions:
REMARK  status: ('A' for Active; 'I' for Inactive)
REMARK    1  A    between atoms: C_1  and  O_2
REMARK    2  A    between atoms: O_2  and  C_3
REMARK    3  A    between atoms: C_3  and  C_4
REMARK    4  A    between atoms: C_4  and  N_5
REMARK    5  A    between atoms: N_5  and  C_6
REMARK    6  A    between atoms: C_6  and  C_7
REMARK    7  A    between atoms: N_11  and  C_12
REMARK    8  A    between atoms: C_22  and  C_24
REMARK    9  A    between atoms: C_24  and  O_25
REMARK                            x       y       z     vdW  Elec       q    Type
REMARK                         _______ _______ _______ _____ _____    ______ ____
ROOT
ATOM      1  C   UNL     1       5.366   4.451  19.245  0.00  0.00    +0.000 C 
ATOM      2  C   UNL     1       4.724   3.042  19.369  0.00  0.00    +0.000 C 
ATOM      3  C   UNL     1       3.596   2.872  18.350  0.00  0.00    +0.000 C 
ATOM      4  C   UNL     1       2.526   3.936  18.572  0.00  0.00    +0.000 C 
ATOM      5  N   UNL     1       3.080   5.304  18.540  0.00  0.00    +0.000 NA
ATOM      6  C   UNL     1       4.227   5.466  19.459  0.00  0.00    +0.000 C 
ENDROOT
BRANCH   5   7
ATOM      7  C   UNL     1       2.002   6.291  18.831  0.00  0.00    +0.000 C 
ATOM      8  C   UNL     1       1.900   6.687  20.329  0.00  0.00    +0.000 C 
ATOM      9  C   UNL     1       1.480   8.118  20.281  0.00  0.00    +0.000 A 
ATOM     10  C   UNL     1       1.092   8.912  21.349  0.00  0.00    +0.000 A 
ATOM     11  C   UNL     1       0.855  10.265  21.114  0.00  0.00    +0.000 A 
ATOM     12  C   UNL     1       1.005  10.803  19.825  0.00  0.00    +0.000 A 
ATOM     13  C   UNL     1       1.396   9.994  18.757  0.00  0.00    +0.000 A 
ATOM     14  C   UNL     1       1.631   8.651  19.002  0.00  0.00    +0.000 A 
ATOM     15  C   UNL     1       2.159   7.628  18.048  0.00  0.00    +0.000 C 
ENDBRANCH   5   7
BRANCH   1  16
ATOM     16  C   UNL     1       6.092   4.526  17.879  0.00  0.00    +0.000 C 
BRANCH  16  17
ATOM     17  N   UNL     1       5.528   5.042  16.624  0.00  0.00    +0.000 N 
ATOM     18  C   UNL     1       5.707   6.410  16.318  0.00  0.00    +0.000 C 
ATOM     19  O   UNL     1       5.403   6.916  15.232  0.00  0.00    +0.000 OA
BRANCH  17  20
ATOM     20  C   UNL     1       5.130   4.176  15.506  0.00  0.00    +0.000 C 
BRANCH  20  21
ATOM     21  C   UNL     1       6.268   3.613  14.648  0.00  0.00    +0.000 C 
BRANCH  21  23
ATOM     22  C   UNL     1       7.576   5.054  13.263  0.00  0.00    +0.000 C 
ATOM     23  O   UNL     1       6.414   4.241  13.375  0.00  0.00    +0.000 OA
ENDBRANCH  21  23
ENDBRANCH  20  21
ENDBRANCH  17  20
BRANCH  18  24
ATOM     24  C   UNL     1       6.381   7.304  17.377  0.00  0.00    +0.000 C 
BRANCH  24  25
ATOM     25  O   UNL     1       7.717   7.652  17.030  0.00  0.00    +0.000 OA
ATOM     26  H   UNL     1       8.266   6.892  17.309  0.00  0.00    +0.000 HD
ENDBRANCH  24  25
ENDBRANCH  18  24
ENDBRANCH  16  17
ENDBRANCH   1  16
TORSDOF 8
ENDMDL
