MODEL 1
REMARK VINA RESULT:      -8.1      0.000      0.000
REMARK  Name = 
REMARK  7 active torsions:
REMARK  status: ('A' for Active; 'I' for Inactive)
REMARK    1  A    between atoms: C_1  and  C_2
REMARK    2  A    between atoms: C_2  and  O_3
REMARK    3  A    between atoms: C_4  and  O_5
REMARK    4  A    between atoms: C_6  and  C_7
REMARK    5  A    between atoms: C_7  and  O_8
REMARK    6  A    between atoms: C_10  and  N_11
REMARK    7  A    between atoms: C_13  and  C_14
REMARK                            x       y       z     vdW  Elec       q    Type
REMARK                         _______ _______ _______ _____ _____    ______ ____
ROOT
ATOM      1  N   UNL     1       4.738   4.838  18.980  0.00  0.00    +0.000 N 
ATOM      2  C   UNL     1       4.263   6.115  19.106  0.00  0.00    +0.000 A 
ATOM      3  C   UNL     1       2.944   6.068  19.519  0.00  0.00    +0.000 A 
ATOM      4  C   UNL     1       2.627   4.681  19.721  0.00  0.00    +0.000 A 
ATOM      5  C   UNL     1       1.515   3.914  20.118  0.00  0.00    +0.000 A 
ATOM      6  N   UNL     1       0.256   4.427  20.402  0.00  0.00    +0.000 N 
ATOM      7  N   UNL     1       1.636   2.575  20.214  0.00  0.00    +0.000 NA
ATOM      8  C   UNL     1       2.814   2.013  19.895  0.00  0.00    +0.000 A 
ATOM      9  N   UNL     1       3.921   2.623  19.450  0.00  0.00    +0.000 NA
ATOM     10  C   UNL     1       3.773   3.956  19.394  0.00  0.00    +0.000 A 
ATOM     11  H   UNL     1       0.011   5.232  19.838  0.00  0.00    +0.000 HD
ATOM     12  H   UNL     1      -0.427   3.678  20.416  0.00  0.00    +0.000 HD
ENDROOT
BRANCH   1  18
ATOM     13  C   UNL     1       4.918   4.315  16.091  0.00  0.00    +0.000 C 
ATOM     14  C   UNL     1       6.192   4.526  16.906  0.00  0.00    +0.000 C 
ATOM     15  C   UNL     1       6.837   5.897  16.711  0.00  0.00    +0.000 C 
ATOM     16  C   UNL     1       7.740   5.993  17.942  0.00  0.00    +0.000 C 
ATOM     17  O   UNL     1       7.029   5.356  19.022  0.00  0.00    +0.000 OA
ATOM     18  C   UNL     1       6.039   4.458  18.449  0.00  0.00    +0.000 C 
BRANCH  14  19
ATOM     19  O   UNL     1       7.153   3.528  16.467  0.00  0.00    +0.000 OA
ATOM     20  H   UNL     1       7.533   3.844  15.625  0.00  0.00    +0.000 HD
ENDBRANCH  14  19
BRANCH  15  21
ATOM     21  O   UNL     1       7.561   5.975  15.483  0.00  0.00    +0.000 OA
ATOM     22  H   UNL     1       7.509   6.897  15.176  0.00  0.00    +0.000 HD
ENDBRANCH  15  21
BRANCH  16  23
ATOM     23  C   UNL     1       8.082   7.424  18.351  0.00  0.00    +0.000 C 
BRANCH  23  24
ATOM     24  O   UNL     1       7.705   8.344  17.328  0.00  0.00    +0.000 OA
ATOM     25  H   UNL     1       8.331   8.193  16.593  0.00  0.00    +0.000 HD
ENDBRANCH  23  24
ENDBRANCH  16  23
ENDBRANCH   1  18
BRANCH   3  26
ATOM     26  C   UNL     1       2.161   7.290  19.679  0.00  0.00    +0.000 A 
ATOM     27  C   UNL     1       2.031   8.199  18.615  0.00  0.00    +0.000 A 
ATOM     28  C   UNL     1       1.285   9.371  18.759  0.00  0.00    +0.000 A 
ATOM     29  C   UNL     1       0.639   9.641  19.961  0.00  0.00    +0.000 A 
ATOM     30  C   UNL     1       0.763   8.753  21.027  0.00  0.00    +0.000 A 
ATOM     31  C   UNL     1       1.539   7.598  20.895  0.00  0.00    +0.000 A 
ENDBRANCH   3  26
TORSDOF 6
ENDMDL
MODEL 2
REMARK VINA RESULT:      -7.8      0.933      1.239
REMARK  Name = 
REMARK  7 active torsions:
REMARK  status: ('A' for Active; 'I' for Inactive)
REMARK    1  A    between atoms: C_1  and  C_2
REMARK    2  A    between atoms: C_2  and  O_3
REMARK    3  A    between atoms: C_4  and  O_5
REMARK    4  A    between atoms: C_6  and  C_7
REMARK    5  A    between atoms: C_7  and  O_8
REMARK    6  A    between atoms: C_10  and  N_11
REMARK    7  A    between atoms: C_13  and  C_14
REMARK                            x       y       z     vdW  Elec       q    Type
REMARK                         _______ _______ _______ _____ _____    ______ ____
ROOT
ATOM      1  N   UNL     1       4.501   4.722  18.438  0.00  0.00    +0.000 N 
ATOM      2  C   UNL     1       4.071   5.972  18.794  0.00  0.00    +0.000 A 
ATOM      3  C   UNL     1       2.791   5.880  19.308  0.00  0.00    +0.000 A 
ATOM      4  C   UNL     1       2.456   4.483  19.327  0.00  0.00    +0.000 A 
ATOM      5  C   UNL     1       1.361   3.680  19.700  0.00  0.00    +0.000 A 
ATOM      6  N   UNL     1       0.144   4.160  20.165  0.00  0.00    +0.000 N 
ATOM      7  N   UNL     1       1.455   2.340  19.584  0.00  0.00    +0.000 NA
ATOM      8  C   UNL     1       2.587   1.817  19.085  0.00  0.00    +0.000 A 
ATOM      9  N   UNL     1       3.669   2.472  18.641  0.00  0.00    +0.000 NA
ATOM     10  C   UNL     1       3.551   3.801  18.798  0.00  0.00    +0.000 A 
ATOM     11  H   UNL     1      -0.126   5.044  19.751  0.00  0.00    +0.000 HD
ATOM     12  H   UNL     1      -0.555   3.427  20.126  0.00  0.00    +0.000 HD
ENDROOT
BRANCH   1  18
ATOM     13  C   UNL     1       5.011   6.099  15.890  0.00  0.00    +0.000 C 
ATOM     14  C   UNL     1       6.152   5.381  16.607  0.00  0.00    +0.000 C 
ATOM     15  C   UNL     1       7.125   6.317  17.322  0.00  0.00    +0.000 C 
ATOM     16  C   UNL     1       7.817   5.361  18.295  0.00  0.00    +0.000 C 
ATOM     17  O   UNL     1       6.813   4.424  18.731  0.00  0.00    +0.000 OA
ATOM     18  C   UNL     1       5.743   4.410  17.746  0.00  0.00    +0.000 C 
BRANCH  14  19
ATOM     19  O   UNL     1       6.906   4.658  15.598  0.00  0.00    +0.000 OA
ATOM     20  H   UNL     1       6.614   3.727  15.631  0.00  0.00    +0.000 HD
ENDBRANCH  14  19
BRANCH  15  21
ATOM     21  O   UNL     1       8.033   6.936  16.411  0.00  0.00    +0.000 OA
ATOM     22  H   UNL     1       8.559   6.228  16.000  0.00  0.00    +0.000 HD
ENDBRANCH  15  21
BRANCH  16  23
ATOM     23  C   UNL     1       8.418   6.048  19.518  0.00  0.00    +0.000 C 
BRANCH  23  24
ATOM     24  O   UNL     1       8.143   5.301  20.702  0.00  0.00    +0.000 OA
ATOM     25  H   UNL     1       7.270   5.612  21.013  0.00  0.00    +0.000 HD
ENDBRANCH  23  24
ENDBRANCH  16  23
ENDBRANCH   1  18
BRANCH   3  26
ATOM     26  C   UNL     1       2.056   7.075  19.716  0.00  0.00    +0.000 A 
ATOM     27  C   UNL     1       1.904   8.156  18.831  0.00  0.00    +0.000 A 
ATOM     28  C   UNL     1       1.204   9.303  19.212  0.00  0.00    +0.000 A 
ATOM     29  C   UNL     1       0.625   9.376  20.475  0.00  0.00    +0.000 A 
ATOM     30  C   UNL     1       0.771   8.315  21.365  0.00  0.00    +0.000 A 
ATOM     31  C   UNL     1       1.503   7.182  20.997  0.00  0.00    +0.000 A 
ENDBRANCH   3  26
TORSDOF 6
ENDMDL
MODEL 3
REMARK VINA RESULT:      -7.2      2.130      4.518
REMARK  Name = 
REMARK  7 active torsions:
REMARK  status: ('A' for Active; 'I' for Inactive)
REMARK    1  A    between atoms: C_1  and  C_2
REMARK    2  A    between atoms: C_2  and  O_3
REMARK    3  A    between atoms: C_4  and  O_5
REMARK    4  A    between atoms: C_6  and  C_7
REMARK    5  A    between atoms: C_7  and  O_8
REMARK    6  A    between atoms: C_10  and  N_11
REMARK    7  A    between atoms: C_13  and  C_14
REMARK                            x       y       z     vdW  Elec       q    Type
REMARK                         _______ _______ _______ _____ _____    ______ ____
ROOT
ATOM      1  N   UNL     1       4.197   6.710  17.483  0.00  0.00    +0.000 N 
ATOM      2  C   UNL     1       3.844   5.528  18.077  0.00  0.00    +0.000 A 
ATOM      3  C   UNL     1       2.800   5.757  18.955  0.00  0.00    +0.000 A 
ATOM      4  C   UNL     1       2.457   7.147  18.831  0.00  0.00    +0.000 A 
ATOM      5  C   UNL     1       1.534   8.046  19.396  0.00  0.00    +0.000 A 
ATOM      6  N   UNL     1       0.632   7.730  20.405  0.00  0.00    +0.000 N 
ATOM      7  N   UNL     1       1.511   9.325  18.971  0.00  0.00    +0.000 NA
ATOM      8  C   UNL     1       2.399   9.706  18.038  0.00  0.00    +0.000 A 
ATOM      9  N   UNL     1       3.361   8.967  17.469  0.00  0.00    +0.000 NA
ATOM     10  C   UNL     1       3.334   7.694  17.895  0.00  0.00    +0.000 A 
ATOM     11  H   UNL     1       0.986   7.047  21.064  0.00  0.00    +0.000 HD
ATOM     12  H   UNL     1       0.260   8.580  20.814  0.00  0.00    +0.000 HD
ENDROOT
BRANCH   1  18
ATOM     13  C   UNL     1       6.875   6.122  18.549  0.00  0.00    +0.000 C 
ATOM     14  C   UNL     1       6.674   6.282  17.044  0.00  0.00    +0.000 C 
ATOM     15  C   UNL     1       6.679   4.964  16.271  0.00  0.00    +0.000 C 
ATOM     16  C   UNL     1       6.004   5.371  14.960  0.00  0.00    +0.000 C 
ATOM     17  O   UNL     1       4.990   6.336  15.304  0.00  0.00    +0.000 OA
ATOM     18  C   UNL     1       5.330   6.915  16.594  0.00  0.00    +0.000 C 
BRANCH  14  19
ATOM     19  O   UNL     1       7.780   7.081  16.546  0.00  0.00    +0.000 OA
ATOM     20  H   UNL     1       7.420   7.679  15.863  0.00  0.00    +0.000 HD
ENDBRANCH  14  19
BRANCH  15  21
ATOM     21  O   UNL     1       8.001   4.462  16.083  0.00  0.00    +0.000 OA
ATOM     22  H   UNL     1       8.359   4.255  16.964  0.00  0.00    +0.000 HD
ENDBRANCH  15  21
BRANCH  16  23
ATOM     23  C   UNL     1       5.349   4.211  14.213  0.00  0.00    +0.000 C 
BRANCH  23  24
ATOM     24  O   UNL     1       6.338   3.311  13.714  0.00  0.00    +0.000 OA
ATOM     25  H   UNL     1       6.698   2.854  14.500  0.00  0.00    +0.000 HD
ENDBRANCH  23  24
ENDBRANCH  16  23
ENDBRANCH   1  18
BRANCH   3  26
ATOM     26  C   UNL     1       2.257   4.678  19.776  0.00  0.00    +0.000 A 
ATOM     27  C   UNL     1       1.297   3.796  19.250  0.00  0.00    +0.000 A 
ATOM     28  C   UNL     1       0.771   2.762  20.028  0.00  0.00    +0.000 A 
ATOM     29  C   UNL     1       1.213   2.580  21.335  0.00  0.00    +0.000 A 
ATOM     30  C   UNL     1       2.159   3.450  21.872  0.00  0.00    +0.000 A 
ATOM     31  C   UNL     1       2.659   4.507  21.105  0.00  0.00    +0.000 A 
ENDBRANCH   3  26
TORSDOF 6
ENDMDL
MODEL 4
REMARK VINA RESULT:      -7.0      3.300      6.825
REMARK  Name = 
REMARK  7 active torsions:
REMARK  status: ('A' for Active; 'I' for Inactive)
REMARK    1  A    between atoms: C_1  and  C_2
REMARK    2  A    between atoms: C_2  and  O_3
REMARK    3  A    between atoms: C_4  and  O_5
REMARK    4  A    between atoms: C_6  and  C_7
REMARK    5  A    between atoms: C_7  and  O_8
REMARK    6  A    between atoms: C_10  and  N_11
REMARK    7  A    between atoms: C_13  and  C_14
REMARK                            x       y       z     vdW  Elec       q    Type
REMARK                         _______ _______ _______ _____ _____    ______ ____
ROOT
ATOM      1  N   UNL     1       3.704   3.800  17.015  0.00  0.00    +0.000 N 
ATOM      2  C   UNL     1       4.152   3.595  15.737  0.00  0.00    +0.000 A 
ATOM      3  C   UNL     1       5.346   4.271  15.564  0.00  0.00    +0.000 A 
ATOM      4  C   UNL     1       5.672   4.861  16.833  0.00  0.00    +0.000 A 
ATOM      5  C   UNL     1       6.695   5.659  17.378  0.00  0.00    +0.000 A 
ATOM      6  N   UNL     1       7.769   6.173  16.662  0.00  0.00    +0.000 N 
ATOM      7  N   UNL     1       6.648   5.993  18.683  0.00  0.00    +0.000 NA
ATOM      8  C   UNL     1       5.603   5.575  19.415  0.00  0.00    +0.000 A 
ATOM      9  N   UNL     1       4.543   4.866  19.003  0.00  0.00    +0.000 NA
ATOM     10  C   UNL     1       4.638   4.528  17.707  0.00  0.00    +0.000 A 
ATOM     11  H   UNL     1       7.541   6.408  15.704  0.00  0.00    +0.000 HD
ATOM     12  H   UNL     1       8.221   6.907  17.197  0.00  0.00    +0.000 HD
ENDROOT
BRANCH   1  18
ATOM     13  C   UNL     1       3.669   1.301  18.565  0.00  0.00    +0.000 C 
ATOM     14  C   UNL     1       2.480   2.257  18.637  0.00  0.00    +0.000 C 
ATOM     15  C   UNL     1       2.413   3.073  19.927  0.00  0.00    +0.000 C 
ATOM     16  C   UNL     1       1.477   4.214  19.524  0.00  0.00    +0.000 C 
ATOM     17  O   UNL     1       1.777   4.522  18.148  0.00  0.00    +0.000 OA
ATOM     18  C   UNL     1       2.423   3.364  17.551  0.00  0.00    +0.000 C 
BRANCH  14  19
ATOM     19  O   UNL     1       1.275   1.448  18.572  0.00  0.00    +0.000 OA
ATOM     20  H   UNL     1       1.290   0.976  17.717  0.00  0.00    +0.000 HD
ENDBRANCH  14  19
BRANCH  15  21
ATOM     21  O   UNL     1       1.912   2.302  21.018  0.00  0.00    +0.000 OA
ATOM     22  H   UNL     1       2.511   2.446  21.772  0.00  0.00    +0.000 HD
ENDBRANCH  15  21
BRANCH  16  23
ATOM     23  C   UNL     1       1.644   5.478  20.362  0.00  0.00    +0.000 C 
BRANCH  23  24
ATOM     24  O   UNL     1       2.559   5.256  21.434  0.00  0.00    +0.000 OA
ATOM     25  H   UNL     1       2.557   4.290  21.587  0.00  0.00    +0.000 HD
ENDBRANCH  23  24
ENDBRANCH  16  23
ENDBRANCH   1  18
BRANCH   3  26
ATOM     26  C   UNL     1       6.026   4.278  14.271  0.00  0.00    +0.000 A 
ATOM     27  C   UNL     1       5.565   3.469  13.218  0.00  0.00    +0.000 A 
ATOM     28  C   UNL     1       6.209   3.468  11.979  0.00  0.00    +0.000 A 
ATOM     29  C   UNL     1       7.309   4.293  11.766  0.00  0.00    +0.000 A 
ATOM     30  C   UNL     1       7.781   5.097  12.802  0.00  0.00    +0.000 A 
ATOM     31  C   UNL     1       7.158   5.071  14.053  0.00  0.00    +0.000 A 
ENDBRANCH   3  26
TORSDOF 6
ENDMDL
MODEL 5
REMARK VINA RESULT:      -6.7      1.436      2.852
REMARK  Name = 
REMARK  7 active torsions:
REMARK  status: ('A' for Active; 'I' for Inactive)
REMARK    1  A    between atoms: C_1  and  C_2
REMARK    2  A    between atoms: C_2  and  O_3
REMARK    3  A    between atoms: C_4  and  O_5
REMARK    4  A    between atoms: C_6  and  C_7
REMARK    5  A    between atoms: C_7  and  O_8
REMARK    6  A    between atoms: C_10  and  N_11
REMARK    7  A    between atoms: C_13  and  C_14
REMARK                            x       y       z     vdW  Elec       q    Type
REMARK                         _______ _______ _______ _____ _____    ______ ____
ROOT
ATOM      1  N   UNL     1       4.335   6.678  17.585  0.00  0.00    +0.000 N 
ATOM      2  C   UNL     1       3.650   7.698  18.186  0.00  0.00    +0.000 A 
ATOM      3  C   UNL     1       2.598   7.170  18.913  0.00  0.00    +0.000 A 
ATOM      4  C   UNL     1       2.699   5.741  18.800  0.00  0.00    +0.000 A 
ATOM      5  C   UNL     1       1.997   4.608  19.255  0.00  0.00    +0.000 A 
ATOM      6  N   UNL     1       0.827   4.645  20.003  0.00  0.00    +0.000 N 
ATOM      7  N   UNL     1       2.450   3.379  18.938  0.00  0.00    +0.000 NA
ATOM      8  C   UNL     1       3.546   3.278  18.167  0.00  0.00    +0.000 A 
ATOM      9  N   UNL     1       4.263   4.272  17.625  0.00  0.00    +0.000 NA
ATOM     10  C   UNL     1       3.800   5.480  17.985  0.00  0.00    +0.000 A 
ATOM     11  H   UNL     1       0.226   5.428  19.775  0.00  0.00    +0.000 HD
ATOM     12  H   UNL     1       0.383   3.735  19.994  0.00  0.00    +0.000 HD
ENDROOT
BRANCH   1  18
ATOM     13  C   UNL     1       7.057   6.136  18.561  0.00  0.00    +0.000 C 
ATOM     14  C   UNL     1       6.789   6.211  17.060  0.00  0.00    +0.000 C 
ATOM     15  C   UNL     1       6.754   4.851  16.364  0.00  0.00    +0.000 C 
ATOM     16  C   UNL     1       6.022   5.186  15.064  0.00  0.00    +0.000 C 
ATOM     17  O   UNL     1       5.029   6.176  15.398  0.00  0.00    +0.000 OA
ATOM     18  C   UNL     1       5.428   6.825  16.636  0.00  0.00    +0.000 C 
BRANCH  14  19
ATOM     19  O   UNL     1       7.874   6.974  16.468  0.00  0.00    +0.000 OA
ATOM     20  H   UNL     1       8.668   6.405  16.481  0.00  0.00    +0.000 HD
ENDBRANCH  14  19
BRANCH  15  21
ATOM     21  O   UNL     1       8.065   4.332  16.146  0.00  0.00    +0.000 OA
ATOM     22  H   UNL     1       8.615   5.064  15.816  0.00  0.00    +0.000 HD
ENDBRANCH  15  21
BRANCH  16  23
ATOM     23  C   UNL     1       5.331   3.990  14.415  0.00  0.00    +0.000 C 
BRANCH  23  24
ATOM     24  O   UNL     1       6.267   3.205  13.678  0.00  0.00    +0.000 OA
ATOM     25  H   UNL     1       6.853   2.798  14.346  0.00  0.00    +0.000 HD
ENDBRANCH  23  24
ENDBRANCH  16  23
ENDBRANCH   1  18
BRANCH   3  26
ATOM     26  C   UNL     1       1.656   8.038  19.614  0.00  0.00    +0.000 A 
ATOM     27  C   UNL     1       1.336   7.802  20.962  0.00  0.00    +0.000 A 
ATOM     28  C   UNL     1       0.436   8.626  21.641  0.00  0.00    +0.000 A 
ATOM     29  C   UNL     1      -0.140   9.712  20.989  0.00  0.00    +0.000 A 
ATOM     30  C   UNL     1       0.162   9.955  19.651  0.00  0.00    +0.000 A 
ATOM     31  C   UNL     1       1.035   9.109  18.962  0.00  0.00    +0.000 A 
ENDBRANCH   3  26
TORSDOF 6
ENDMDL
MODEL 6
REMARK VINA RESULT:      -6.5      8.875      9.911
REMARK  Name = 
REMARK  7 active torsions:
REMARK  status: ('A' for Active; 'I' for Inactive)
REMARK    1  A    between atoms: C_1  and  C_2
REMARK    2  A    between atoms: C_2  and  O_3
REMARK    3  A    between atoms: C_4  and  O_5
REMARK    4  A    between atoms: C_6  and  C_7
REMARK    5  A    between atoms: C_7  and  O_8
REMARK    6  A    between atoms: C_10  and  N_11
REMARK    7  A    between atoms: C_13  and  C_14
REMARK                            x       y       z     vdW  Elec       q    Type
REMARK                         _______ _______ _______ _____ _____    ______ ____
ROOT
ATOM      1  N   UNL     1       9.513  14.009  19.873  0.00  0.00    +0.000 N 
ATOM      2  C   UNL     1       8.567  14.716  19.181  0.00  0.00    +0.000 A 
ATOM      3  C   UNL     1       7.371  14.668  19.875  0.00  0.00    +0.000 A 
ATOM      4  C   UNL     1       7.631  13.948  21.091  0.00  0.00    +0.000 A 
ATOM      5  C   UNL     1       6.913  13.528  22.227  0.00  0.00    +0.000 A 
ATOM      6  N   UNL     1       5.550  13.717  22.420  0.00  0.00    +0.000 N 
ATOM      7  N   UNL     1       7.557  12.867  23.209  0.00  0.00    +0.000 NA
ATOM      8  C   UNL     1       8.864  12.603  23.054  0.00  0.00    +0.000 A 
ATOM      9  N   UNL     1       9.642  12.893  22.002  0.00  0.00    +0.000 NA
ATOM     10  C   UNL     1       8.975  13.576  21.057  0.00  0.00    +0.000 A 
ATOM     11  H   UNL     1       5.011  13.676  21.563  0.00  0.00    +0.000 HD
ATOM     12  H   UNL     1       5.222  13.121  23.172  0.00  0.00    +0.000 HD
ENDROOT
BRANCH   1  18
ATOM     13  C   UNL     1       9.861  11.717  18.062  0.00  0.00    +0.000 C 
ATOM     14  C   UNL     1      10.981  12.744  18.212  0.00  0.00    +0.000 C 
ATOM     15  C   UNL     1      11.105  13.709  17.035  0.00  0.00    +0.000 C 
ATOM     16  C   UNL     1      11.920  14.848  17.652  0.00  0.00    +0.000 C 
ATOM     17  O   UNL     1      11.478  14.973  19.018  0.00  0.00    +0.000 OA
ATOM     18  C   UNL     1      10.864  13.716  19.416  0.00  0.00    +0.000 C 
BRANCH  14  19
ATOM     19  O   UNL     1      12.230  12.006  18.302  0.00  0.00    +0.000 OA
ATOM     20  H   UNL     1      12.954  12.646  18.166  0.00  0.00    +0.000 HD
ENDBRANCH  14  19
BRANCH  15  21
ATOM     21  O   UNL     1      11.754  13.104  15.917  0.00  0.00    +0.000 OA
ATOM     22  H   UNL     1      11.985  12.194  16.175  0.00  0.00    +0.000 HD
ENDBRANCH  15  21
BRANCH  16  23
ATOM     23  C   UNL     1      11.740  16.191  16.948  0.00  0.00    +0.000 C 
BRANCH  23  24
ATOM     24  O   UNL     1      10.773  16.087  15.904  0.00  0.00    +0.000 OA
ATOM     25  H   UNL     1      10.919  15.212  15.494  0.00  0.00    +0.000 HD
ENDBRANCH  23  24
ENDBRANCH  16  23
ENDBRANCH   1  18
BRANCH   3  26
ATOM     26  C   UNL     1       6.163  15.290  19.338  0.00  0.00    +0.000 A 
ATOM     27  C   UNL     1       5.546  14.772  18.186  0.00  0.00    +0.000 A 
ATOM     28  C   UNL     1       4.392  15.360  17.665  0.00  0.00    +0.000 A 
ATOM     29  C   UNL     1       3.824  16.460  18.300  0.00  0.00    +0.000 A 
ATOM     30  C   UNL     1       4.428  16.989  19.438  0.00  0.00    +0.000 A 
ATOM     31  C   UNL     1       5.603  16.422  19.939  0.00  0.00    +0.000 A 
ENDBRANCH   3  26
TORSDOF 6
ENDMDL
MODEL 7
REMARK VINA RESULT:      -6.4      9.668     11.964
REMARK  Name = 
REMARK  7 active torsions:
REMARK  status: ('A' for Active; 'I' for Inactive)
REMARK    1  A    between atoms: C_1  and  C_2
REMARK    2  A    between atoms: C_2  and  O_3
REMARK    3  A    between atoms: C_4  and  O_5
REMARK    4  A    between atoms: C_6  and  C_7
REMARK    5  A    between atoms: C_7  and  O_8
REMARK    6  A    between atoms: C_10  and  N_11
REMARK    7  A    between atoms: C_13  and  C_14
REMARK                            x       y       z     vdW  Elec       q    Type
REMARK                         _______ _______ _______ _____ _____    ______ ____
ROOT
ATOM      1  N   UNL     1      -4.615  13.226  21.172  0.00  0.00    +0.000 N 
ATOM      2  C   UNL     1      -3.884  12.902  20.060  0.00  0.00    +0.000 A 
ATOM      3  C   UNL     1      -4.542  11.907  19.361  0.00  0.00    +0.000 A 
ATOM      4  C   UNL     1      -5.777  11.665  20.055  0.00  0.00    +0.000 A 
ATOM      5  C   UNL     1      -6.897  10.823  19.925  0.00  0.00    +0.000 A 
ATOM      6  N   UNL     1      -7.046   9.843  18.951  0.00  0.00    +0.000 N 
ATOM      7  N   UNL     1      -7.909  10.927  20.809  0.00  0.00    +0.000 NA
ATOM      8  C   UNL     1      -7.797  11.817  21.809  0.00  0.00    +0.000 A 
ATOM      9  N   UNL     1      -6.765  12.628  22.076  0.00  0.00    +0.000 NA
ATOM     10  C   UNL     1      -5.789  12.517  21.159  0.00  0.00    +0.000 A 
ATOM     11  H   UNL     1      -6.175   9.400  18.687  0.00  0.00    +0.000 HD
ATOM     12  H   UNL     1      -7.798   9.212  19.208  0.00  0.00    +0.000 HD
ENDROOT
BRANCH   1  18
ATOM     13  C   UNL     1      -3.042  12.101  23.388  0.00  0.00    +0.000 C 
ATOM     14  C   UNL     1      -3.103  13.614  23.190  0.00  0.00    +0.000 C 
ATOM     15  C   UNL     1      -1.838  14.215  22.580  0.00  0.00    +0.000 C 
ATOM     16  C   UNL     1      -2.348  15.565  22.074  0.00  0.00    +0.000 C 
ATOM     17  O   UNL     1      -3.691  15.342  21.599  0.00  0.00    +0.000 OA
ATOM     18  C   UNL     1      -4.204  14.136  22.229  0.00  0.00    +0.000 C 
BRANCH  14  19
ATOM     19  O   UNL     1      -3.278  14.212  24.503  0.00  0.00    +0.000 OA
ATOM     20  H   UNL     1      -3.724  13.549  25.064  0.00  0.00    +0.000 HD
ENDBRANCH  14  19
BRANCH  15  21
ATOM     21  O   UNL     1      -0.792  14.342  23.543  0.00  0.00    +0.000 OA
ATOM     22  H   UNL     1       0.006  13.940  23.156  0.00  0.00    +0.000 HD
ENDBRANCH  15  21
BRANCH  16  23
ATOM     23  C   UNL     1      -1.514  16.158  20.941  0.00  0.00    +0.000 C 
BRANCH  23  24
ATOM     24  O   UNL     1      -1.553  15.314  19.791  0.00  0.00    +0.000 OA
ATOM     25  H   UNL     1      -1.840  14.438  20.117  0.00  0.00    +0.000 HD
ENDBRANCH  23  24
ENDBRANCH  16  23
ENDBRANCH   1  18
BRANCH   3  26
ATOM     26  C   UNL     1      -3.959  11.322  18.156  0.00  0.00    +0.000 A 
ATOM     27  C   UNL     1      -2.773  10.571  18.230  0.00  0.00    +0.000 A 
ATOM     28  C   UNL     1      -2.207  10.009  17.083  0.00  0.00    +0.000 A 
ATOM     29  C   UNL     1      -2.832  10.168  15.850  0.00  0.00    +0.000 A 
ATOM     30  C   UNL     1      -4.005  10.914  15.760  0.00  0.00    +0.000 A 
ATOM     31  C   UNL     1      -4.551  11.507  16.902  0.00  0.00    +0.000 A 
ENDBRANCH   3  26
TORSDOF 6
ENDMDL
MODEL 8
REMARK VINA RESULT:      -6.3      9.524     11.916
REMARK  Name = 
REMARK  7 active torsions:
REMARK  status: ('A' for Active; 'I' for Inactive)
REMARK    1  A    between atoms: C_1  and  C_2
REMARK    2  A    between atoms: C_2  and  O_3
REMARK    3  A    between atoms: C_4  and  O_5
REMARK    4  A    between atoms: C_6  and  C_7
REMARK    5  A    between atoms: C_7  and  O_8
REMARK    6  A    between atoms: C_10  and  N_11
REMARK    7  A    between atoms: C_13  and  C_14
REMARK                            x       y       z     vdW  Elec       q    Type
REMARK                         _______ _______ _______ _____ _____    ______ ____
ROOT
ATOM      1  N   UNL     1      -4.500  13.353  21.151  0.00  0.00    +0.000 N 
ATOM      2  C   UNL     1      -3.753  12.998  20.060  0.00  0.00    +0.000 A 
ATOM      3  C   UNL     1      -4.428  12.023  19.348  0.00  0.00    +0.000 A 
ATOM      4  C   UNL     1      -5.689  11.830  20.010  0.00  0.00    +0.000 A 
ATOM      5  C   UNL     1      -6.835  11.028  19.854  0.00  0.00    +0.000 A 
ATOM      6  N   UNL     1      -6.994  10.049  18.881  0.00  0.00    +0.000 N 
ATOM      7  N   UNL     1      -7.866  11.174  20.711  0.00  0.00    +0.000 NA
ATOM      8  C   UNL     1      -7.748  12.064  21.710  0.00  0.00    +0.000 A 
ATOM      9  N   UNL     1      -6.694  12.839  22.000  0.00  0.00    +0.000 NA
ATOM     10  C   UNL     1      -5.699  12.688  21.110  0.00  0.00    +0.000 A 
ATOM     11  H   UNL     1      -6.133   9.573  18.642  0.00  0.00    +0.000 HD
ATOM     12  H   UNL     1      -7.774   9.448  19.121  0.00  0.00    +0.000 HD
ENDROOT
BRANCH   1  18
ATOM     13  C   UNL     1      -3.108  12.170  23.456  0.00  0.00    +0.000 C 
ATOM     14  C   UNL     1      -3.065  13.681  23.235  0.00  0.00    +0.000 C 
ATOM     15  C   UNL     1      -1.738  14.193  22.680  0.00  0.00    +0.000 C 
ATOM     16  C   UNL     1      -2.139  15.563  22.131  0.00  0.00    +0.000 C 
ATOM     17  O   UNL     1      -3.468  15.416  21.595  0.00  0.00    +0.000 OA
ATOM     18  C   UNL     1      -4.085  14.254  22.215  0.00  0.00    +0.000 C 
BRANCH  14  19
ATOM     19  O   UNL     1      -3.265  14.309  24.530  0.00  0.00    +0.000 OA
ATOM     20  H   UNL     1      -2.889  15.209  24.475  0.00  0.00    +0.000 HD
ENDBRANCH  14  19
BRANCH  15  21
ATOM     21  O   UNL     1      -0.733  14.271  23.690  0.00  0.00    +0.000 OA
ATOM     22  H   UNL     1       0.081  13.890  23.317  0.00  0.00    +0.000 HD
ENDBRANCH  15  21
BRANCH  16  23
ATOM     23  C   UNL     1      -1.216  16.086  21.032  0.00  0.00    +0.000 C 
BRANCH  23  24
ATOM     24  O   UNL     1      -0.100  15.216  20.855  0.00  0.00    +0.000 OA
ATOM     25  H   UNL     1      -0.404  14.333  21.145  0.00  0.00    +0.000 HD
ENDBRANCH  23  24
ENDBRANCH  16  23
ENDBRANCH   1  18
BRANCH   3  26
ATOM     26  C   UNL     1      -3.835  11.411  18.162  0.00  0.00    +0.000 A 
ATOM     27  C   UNL     1      -4.452  11.546  16.906  0.00  0.00    +0.000 A 
ATOM     28  C   UNL     1      -3.893  10.963  15.766  0.00  0.00    +0.000 A 
ATOM     29  C   UNL     1      -2.698  10.257  15.861  0.00  0.00    +0.000 A 
ATOM     30  C   UNL     1      -2.078  10.109  17.100  0.00  0.00    +0.000 A 
ATOM     31  C   UNL     1      -2.656  10.662  18.246  0.00  0.00    +0.000 A 
ENDBRANCH   3  26
TORSDOF 6
ENDMDL
MODEL 9
REMARK VINA RESULT:      -6.3      7.365      9.661
REMARK  Name = 
REMARK  7 active torsions:
REMARK  status: ('A' for Active; 'I' for Inactive)
REMARK    1  A    between atoms: C_1  and  C_2
REMARK    2  A    between atoms: C_2  and  O_3
REMARK    3  A    between atoms: C_4  and  O_5
REMARK    4  A    between atoms: C_6  and  C_7
REMARK    5  A    between atoms: C_7  and  O_8
REMARK    6  A    between atoms: C_10  and  N_11
REMARK    7  A    between atoms: C_13  and  C_14
REMARK                            x       y       z     vdW  Elec       q    Type
REMARK                         _______ _______ _______ _____ _____    ______ ____
ROOT
ATOM      1  N   UNL     1      -1.773  11.273  18.820  0.00  0.00    +0.000 N 
ATOM      2  C   UNL     1      -2.562  11.809  19.802  0.00  0.00    +0.000 A 
ATOM      3  C   UNL     1      -3.820  12.058  19.284  0.00  0.00    +0.000 A 
ATOM      4  C   UNL     1      -3.808  11.579  17.929  0.00  0.00    +0.000 A 
ATOM      5  C   UNL     1      -4.700  11.509  16.842  0.00  0.00    +0.000 A 
ATOM      6  N   UNL     1      -5.991  12.022  16.838  0.00  0.00    +0.000 N 
ATOM      7  N   UNL     1      -4.296  10.932  15.693  0.00  0.00    +0.000 NA
ATOM      8  C   UNL     1      -3.038  10.468  15.616  0.00  0.00    +0.000 A 
ATOM      9  N   UNL     1      -2.081  10.529  16.552  0.00  0.00    +0.000 NA
ATOM     10  C   UNL     1      -2.527  11.083  17.691  0.00  0.00    +0.000 A 
ATOM     11  H   UNL     1      -6.092  12.866  17.390  0.00  0.00    +0.000 HD
ATOM     12  H   UNL     1      -6.338  12.077  15.887  0.00  0.00    +0.000 HD
ENDROOT
BRANCH   1  18
ATOM     13  C   UNL     1       0.062  13.570  18.908  0.00  0.00    +0.000 C 
ATOM     14  C   UNL     1       0.558  12.185  19.318  0.00  0.00    +0.000 C 
ATOM     15  C   UNL     1       0.703  11.996  20.826  0.00  0.00    +0.000 C 
ATOM     16  C   UNL     1       0.729  10.471  20.947  0.00  0.00    +0.000 C 
ATOM     17  O   UNL     1      -0.179   9.967  19.948  0.00  0.00    +0.000 OA
ATOM     18  C   UNL     1      -0.350  10.988  18.928  0.00  0.00    +0.000 C 
BRANCH  14  19
ATOM     19  O   UNL     1       1.875  12.010  18.730  0.00  0.00    +0.000 OA
ATOM     20  H   UNL     1       2.425  11.544  19.388  0.00  0.00    +0.000 HD
ENDBRANCH  14  19
BRANCH  15  21
ATOM     21  O   UNL     1       1.887  12.614  21.329  0.00  0.00    +0.000 OA
ATOM     22  H   UNL     1       1.886  13.536  21.016  0.00  0.00    +0.000 HD
ENDBRANCH  15  21
BRANCH  16  23
ATOM     23  C   UNL     1       0.300   9.950  22.316  0.00  0.00    +0.000 C 
BRANCH  23  24
ATOM     24  O   UNL     1      -0.283  10.995  23.094  0.00  0.00    +0.000 OA
ATOM     25  H   UNL     1      -1.181  11.123  22.732  0.00  0.00    +0.000 HD
ENDBRANCH  23  24
ENDBRANCH  16  23
ENDBRANCH   1  18
BRANCH   3  26
ATOM     26  C   UNL     1      -4.857  12.690  20.097  0.00  0.00    +0.000 A 
ATOM     27  C   UNL     1      -6.029  11.988  20.428  0.00  0.00    +0.000 A 
ATOM     28  C   UNL     1      -7.027  12.583  21.203  0.00  0.00    +0.000 A 
ATOM     29  C   UNL     1      -6.857  13.880  21.679  0.00  0.00    +0.000 A 
ATOM     30  C   UNL     1      -5.703  14.590  21.354  0.00  0.00    +0.000 A 
ATOM     31  C   UNL     1      -4.721  14.007  20.548  0.00  0.00    +0.000 A 
ENDBRANCH   3  26
TORSDOF 6
ENDMDL
