MODEL 1
REMARK VINA RESULT:      -7.7      0.000      0.000
REMARK  Name = 
REMARK  6 active torsions:
REMARK  status: ('A' for Active; 'I' for Inactive)
REMARK    1  A    between atoms: C_1  and  O_2
REMARK    2  A    between atoms: O_2  and  C_3
REMARK    3  A    between atoms: C_3  and  C_5
REMARK    4  A    between atoms: C_7  and  C_8
REMARK    5  A    between atoms: C_14  and  C_16
REMARK    6  A    between atoms: C_24  and  N_25
REMARK                            x       y       z     vdW  Elec       q    Type
REMARK                         _______ _______ _______ _____ _____    ______ ____
ROOT
ATOM      1  C   UNL     1       3.472   4.037  18.472  0.00  0.00    +0.000 C 
ATOM      2  O   UNL     1       3.225   2.846  18.652  0.00  0.00    +0.000 OA
ATOM      3  N   UNL     1       2.570   5.054  18.781  0.00  0.00    +0.000 N 
ATOM      4  C   UNL     1       1.360   4.738  19.557  0.00  0.00    +0.000 C 
ATOM      5  C   UNL     1       1.222   5.671  20.781  0.00  0.00    +0.000 C 
ATOM      6  N   UNL     1       1.408   7.084  20.411  0.00  0.00    +0.000 N 
ATOM      7  C   UNL     1       0.592   8.066  20.985  0.00  0.00    +0.000 C 
ATOM      8  O   UNL     1      -0.216   7.768  21.866  0.00  0.00    +0.000 OA
ATOM      9  C   UNL     1       2.634   7.344  19.645  0.00  0.00    +0.000 C 
ATOM     10  C   UNL     1       2.641   6.472  18.385  0.00  0.00    +0.000 C 
ENDROOT
BRANCH   1  13
ATOM     11  C   UNL     1       6.277   4.615  15.980  0.00  0.00    +0.000 A 
ATOM     12  C   UNL     1       5.038   4.244  16.533  0.00  0.00    +0.000 A 
ATOM     13  C   UNL     1       4.812   4.374  17.910  0.00  0.00    +0.000 A 
ATOM     14  C   UNL     1       5.859   4.780  18.739  0.00  0.00    +0.000 A 
ATOM     15  C   UNL     1       7.050   5.246  18.180  0.00  0.00    +0.000 A 
ATOM     16  C   UNL     1       7.275   5.156  16.805  0.00  0.00    +0.000 A 
BRANCH  15  17
ATOM     17  N   UNL     1       8.023   5.914  19.055  0.00  0.00    +0.000 N 
ATOM     18  O   UNL     1       8.339   7.079  18.768  0.00  0.00    +0.000 OA
ATOM     19  O   UNL     1       8.496   5.265  19.994  0.00  0.00    +0.000 OA
ENDBRANCH  15  17
BRANCH  11  20
ATOM     20  C   UNL     1       6.581   4.475  14.530  0.00  0.00    +0.000 C 
ATOM     21  O   UNL     1       5.996   3.691  13.799  0.00  0.00    +0.000 OA
BRANCH  20  23
ATOM     22  C   UNL     1       7.917   5.254  12.778  0.00  0.00    +0.000 C 
ATOM     23  O   UNL     1       7.570   5.323  14.163  0.00  0.00    +0.000 OA
ENDBRANCH  20  23
ENDBRANCH  11  20
ENDBRANCH   1  13
BRANCH   7  24
ATOM     24  C   UNL     1       0.727   9.441  20.527  0.00  0.00    +0.000 A 
ATOM     25  C   UNL     1       0.571   9.986  19.266  0.00  0.00    +0.000 A 
ATOM     26  C   UNL     1       0.792  11.380  19.388  0.00  0.00    +0.000 A 
ATOM     27  C   UNL     1       1.123  11.599  20.703  0.00  0.00    +0.000 A 
ATOM     28  O   UNL     1       1.127  10.429  21.391  0.00  0.00    +0.000 OA
ENDBRANCH   7  24
TORSDOF 5
ENDMDL
MODEL 2
REMARK VINA RESULT:      -7.7      0.701      1.071
REMARK  Name = 
REMARK  6 active torsions:
REMARK  status: ('A' for Active; 'I' for Inactive)
REMARK    1  A    between atoms: C_1  and  O_2
REMARK    2  A    between atoms: O_2  and  C_3
REMARK    3  A    between atoms: C_3  and  C_5
REMARK    4  A    between atoms: C_7  and  C_8
REMARK    5  A    between atoms: C_14  and  C_16
REMARK    6  A    between atoms: C_24  and  N_25
REMARK                            x       y       z     vdW  Elec       q    Type
REMARK                         _______ _______ _______ _____ _____    ______ ____
ROOT
ATOM      1  C   UNL     1       3.460   4.063  18.394  0.00  0.00    +0.000 C 
ATOM      2  O   UNL     1       3.232   2.868  18.574  0.00  0.00    +0.000 OA
ATOM      3  N   UNL     1       2.544   5.066  18.711  0.00  0.00    +0.000 N 
ATOM      4  C   UNL     1       1.345   4.729  19.495  0.00  0.00    +0.000 C 
ATOM      5  C   UNL     1       1.200   5.657  20.722  0.00  0.00    +0.000 C 
ATOM      6  N   UNL     1       1.361   7.074  20.354  0.00  0.00    +0.000 N 
ATOM      7  C   UNL     1       0.534   8.041  20.935  0.00  0.00    +0.000 C 
ATOM      8  O   UNL     1      -0.264   7.729  21.821  0.00  0.00    +0.000 OA
ATOM      9  C   UNL     1       2.578   7.355  19.580  0.00  0.00    +0.000 C 
ATOM     10  C   UNL     1       2.590   6.485  18.318  0.00  0.00    +0.000 C 
ENDROOT
BRANCH   1  13
ATOM     11  C   UNL     1       6.223   4.744  15.881  0.00  0.00    +0.000 A 
ATOM     12  C   UNL     1       4.992   4.352  16.439  0.00  0.00    +0.000 A 
ATOM     13  C   UNL     1       4.791   4.422  17.825  0.00  0.00    +0.000 A 
ATOM     14  C   UNL     1       5.852   4.790  18.651  0.00  0.00    +0.000 A 
ATOM     15  C   UNL     1       7.034   5.278  18.093  0.00  0.00    +0.000 A 
ATOM     16  C   UNL     1       7.236   5.248  16.711  0.00  0.00    +0.000 A 
BRANCH  15  17
ATOM     17  N   UNL     1       8.025   5.906  18.978  0.00  0.00    +0.000 N 
ATOM     18  O   UNL     1       8.349   7.078  18.728  0.00  0.00    +0.000 OA
ATOM     19  O   UNL     1       8.502   5.221  19.889  0.00  0.00    +0.000 OA
ENDBRANCH  15  17
BRANCH  11  20
ATOM     20  C   UNL     1       6.500   4.667  14.421  0.00  0.00    +0.000 C 
ATOM     21  O   UNL     1       7.399   5.292  13.880  0.00  0.00    +0.000 OA
BRANCH  20  23
ATOM     22  C   UNL     1       6.043   3.405  12.509  0.00  0.00    +0.000 C 
ATOM     23  O   UNL     1       5.633   3.826  13.811  0.00  0.00    +0.000 OA
ENDBRANCH  20  23
ENDBRANCH  11  20
ENDBRANCH   1  13
BRANCH   7  24
ATOM     24  C   UNL     1       0.645   9.419  20.480  0.00  0.00    +0.000 A 
ATOM     25  C   UNL     1       0.893  10.581  21.188  0.00  0.00    +0.000 A 
ATOM     26  C   UNL     1       0.923  11.640  20.247  0.00  0.00    +0.000 A 
ATOM     27  C   UNL     1       0.638  11.074  19.029  0.00  0.00    +0.000 A 
ATOM     28  O   UNL     1       0.427   9.741  19.164  0.00  0.00    +0.000 OA
ENDBRANCH   7  24
TORSDOF 5
ENDMDL
MODEL 3
REMARK VINA RESULT:      -7.5      0.978      1.360
REMARK  Name = 
REMARK  6 active torsions:
REMARK  status: ('A' for Active; 'I' for Inactive)
REMARK    1  A    between atoms: C_1  and  O_2
REMARK    2  A    between atoms: O_2  and  C_3
REMARK    3  A    between atoms: C_3  and  C_5
REMARK    4  A    between atoms: C_7  and  C_8
REMARK    5  A    between atoms: C_14  and  C_16
REMARK    6  A    between atoms: C_24  and  N_25
REMARK                            x       y       z     vdW  Elec       q    Type
REMARK                         _______ _______ _______ _____ _____    ______ ____
ROOT
ATOM      1  C   UNL     1       3.648   4.305  18.284  0.00  0.00    +0.000 C 
ATOM      2  O   UNL     1       3.589   3.122  18.612  0.00  0.00    +0.000 OA
ATOM      3  N   UNL     1       2.683   5.242  18.650  0.00  0.00    +0.000 N 
ATOM      4  C   UNL     1       1.665   4.880  19.650  0.00  0.00    +0.000 C 
ATOM      5  C   UNL     1       1.604   5.922  20.790  0.00  0.00    +0.000 C 
ATOM      6  N   UNL     1       1.543   7.297  20.265  0.00  0.00    +0.000 N 
ATOM      7  C   UNL     1       0.709   8.238  20.880  0.00  0.00    +0.000 C 
ATOM      8  O   UNL     1       0.098   7.951  21.911  0.00  0.00    +0.000 OA
ATOM      9  C   UNL     1       2.586   7.607  19.279  0.00  0.00    +0.000 C 
ATOM     10  C   UNL     1       2.504   6.606  18.121  0.00  0.00    +0.000 C 
ENDROOT
BRANCH   1  13
ATOM     11  C   UNL     1       6.004   4.745  15.340  0.00  0.00    +0.000 A 
ATOM     12  C   UNL     1       4.931   4.308  16.138  0.00  0.00    +0.000 A 
ATOM     13  C   UNL     1       4.825   4.726  17.471  0.00  0.00    +0.000 A 
ATOM     14  C   UNL     1       5.844   5.500  18.027  0.00  0.00    +0.000 A 
ATOM     15  C   UNL     1       6.850   6.019  17.210  0.00  0.00    +0.000 A 
ATOM     16  C   UNL     1       6.948   5.638  15.870  0.00  0.00    +0.000 A 
BRANCH  15  17
ATOM     17  N   UNL     1       7.749   7.041  17.764  0.00  0.00    +0.000 N 
ATOM     18  O   UNL     1       8.274   6.800  18.864  0.00  0.00    +0.000 OA
ATOM     19  O   UNL     1       7.896   8.088  17.126  0.00  0.00    +0.000 OA
ENDBRANCH  15  17
BRANCH  11  20
ATOM     20  C   UNL     1       6.181   4.312  13.927  0.00  0.00    +0.000 C 
ATOM     21  O   UNL     1       7.207   4.505  13.294  0.00  0.00    +0.000 OA
BRANCH  20  23
ATOM     22  C   UNL     1       5.124   3.323  12.093  0.00  0.00    +0.000 C 
ATOM     23  O   UNL     1       5.066   3.694  13.472  0.00  0.00    +0.000 OA
ENDBRANCH  20  23
ENDBRANCH  11  20
ENDBRANCH   1  13
BRANCH   7  24
ATOM     24  C   UNL     1       0.589   9.560  20.283  0.00  0.00    +0.000 A 
ATOM     25  C   UNL     1       0.055   9.951  19.068  0.00  0.00    +0.000 A 
ATOM     26  C   UNL     1       0.169  11.361  19.001  0.00  0.00    +0.000 A 
ATOM     27  C   UNL     1       0.814  11.746  20.152  0.00  0.00    +0.000 A 
ATOM     28  O   UNL     1       1.109  10.663  20.913  0.00  0.00    +0.000 OA
ENDBRANCH   7  24
TORSDOF 5
ENDMDL
MODEL 4
REMARK VINA RESULT:      -7.4      0.976      1.157
REMARK  Name = 
REMARK  6 active torsions:
REMARK  status: ('A' for Active; 'I' for Inactive)
REMARK    1  A    between atoms: C_1  and  O_2
REMARK    2  A    between atoms: O_2  and  C_3
REMARK    3  A    between atoms: C_3  and  C_5
REMARK    4  A    between atoms: C_7  and  C_8
REMARK    5  A    between atoms: C_14  and  C_16
REMARK    6  A    between atoms: C_24  and  N_25
REMARK                            x       y       z     vdW  Elec       q    Type
REMARK                         _______ _______ _______ _____ _____    ______ ____
ROOT
ATOM      1  C   UNL     1       3.572   4.383  18.474  0.00  0.00    +0.000 C 
ATOM      2  O   UNL     1       3.529   3.215  18.855  0.00  0.00    +0.000 OA
ATOM      3  N   UNL     1       2.604   5.328  18.815  0.00  0.00    +0.000 N 
ATOM      4  C   UNL     1       1.606   5.002  19.846  0.00  0.00    +0.000 C 
ATOM      5  C   UNL     1       1.555   6.093  20.940  0.00  0.00    +0.000 C 
ATOM      6  N   UNL     1       1.473   7.443  20.356  0.00  0.00    +0.000 N 
ATOM      7  C   UNL     1       0.641   8.403  20.943  0.00  0.00    +0.000 C 
ATOM      8  O   UNL     1       0.050   8.157  21.995  0.00  0.00    +0.000 OA
ATOM      9  C   UNL     1       2.497   7.717  19.340  0.00  0.00    +0.000 C 
ATOM     10  C   UNL     1       2.405   6.666  18.229  0.00  0.00    +0.000 C 
ENDROOT
BRANCH   1  13
ATOM     11  C   UNL     1       5.852   4.753  15.462  0.00  0.00    +0.000 A 
ATOM     12  C   UNL     1       4.796   4.340  16.294  0.00  0.00    +0.000 A 
ATOM     13  C   UNL     1       4.732   4.777  17.624  0.00  0.00    +0.000 A 
ATOM     14  C   UNL     1       5.776   5.544  18.141  0.00  0.00    +0.000 A 
ATOM     15  C   UNL     1       6.766   6.039  17.291  0.00  0.00    +0.000 A 
ATOM     16  C   UNL     1       6.822   5.639  15.954  0.00  0.00    +0.000 A 
BRANCH  15  17
ATOM     17  N   UNL     1       7.694   7.055  17.807  0.00  0.00    +0.000 N 
ATOM     18  O   UNL     1       7.833   8.090  17.136  0.00  0.00    +0.000 OA
ATOM     19  O   UNL     1       8.307   6.801  18.849  0.00  0.00    +0.000 OA
ENDBRANCH  15  17
BRANCH  11  20
ATOM     20  C   UNL     1       5.984   4.299  14.050  0.00  0.00    +0.000 C 
ATOM     21  O   UNL     1       5.130   3.640  13.480  0.00  0.00    +0.000 OA
BRANCH  20  23
ATOM     22  C   UNL     1       7.309   4.420  12.130  0.00  0.00    +0.000 C 
ATOM     23  O   UNL     1       7.156   4.720  13.519  0.00  0.00    +0.000 OA
ENDBRANCH  20  23
ENDBRANCH  11  20
ENDBRANCH   1  13
BRANCH   7  24
ATOM     24  C   UNL     1       0.500   9.696  20.290  0.00  0.00    +0.000 A 
ATOM     25  C   UNL     1       0.935  10.951  20.680  0.00  0.00    +0.000 A 
ATOM     26  C   UNL     1       0.553  11.856  19.659  0.00  0.00    +0.000 A 
ATOM     27  C   UNL     1      -0.138  11.115  18.732  0.00  0.00    +0.000 A 
ATOM     28  O   UNL     1      -0.213   9.818  19.124  0.00  0.00    +0.000 OA
ENDBRANCH   7  24
TORSDOF 5
ENDMDL
MODEL 5
REMARK VINA RESULT:      -7.1      1.597      3.204
REMARK  Name = 
REMARK  6 active torsions:
REMARK  status: ('A' for Active; 'I' for Inactive)
REMARK    1  A    between atoms: C_1  and  O_2
REMARK    2  A    between atoms: O_2  and  C_3
REMARK    3  A    between atoms: C_3  and  C_5
REMARK    4  A    between atoms: C_7  and  C_8
REMARK    5  A    between atoms: C_14  and  C_16
REMARK    6  A    between atoms: C_24  and  N_25
REMARK                            x       y       z     vdW  Elec       q    Type
REMARK                         _______ _______ _______ _____ _____    ______ ____
ROOT
ATOM      1  C   UNL     1       3.659   4.637  18.286  0.00  0.00    +0.000 C 
ATOM      2  O   UNL     1       3.655   3.435  18.547  0.00  0.00    +0.000 OA
ATOM      3  N   UNL     1       2.633   5.499  18.671  0.00  0.00    +0.000 N 
ATOM      4  C   UNL     1       1.606   5.027  19.614  0.00  0.00    +0.000 C 
ATOM      5  C   UNL     1       1.454   5.998  20.807  0.00  0.00    +0.000 C 
ATOM      6  N   UNL     1       1.333   7.395  20.357  0.00  0.00    +0.000 N 
ATOM      7  C   UNL     1       0.431   8.254  20.994  0.00  0.00    +0.000 C 
ATOM      8  O   UNL     1      -0.195   7.877  21.987  0.00  0.00    +0.000 OA
ATOM      9  C   UNL     1       2.387   7.816  19.425  0.00  0.00    +0.000 C 
ATOM     10  C   UNL     1       2.395   6.879  18.212  0.00  0.00    +0.000 C 
ENDROOT
BRANCH   1  13
ATOM     11  C   UNL     1       6.886   6.479  17.510  0.00  0.00    +0.000 A 
ATOM     12  C   UNL     1       5.740   6.020  18.184  0.00  0.00    +0.000 A 
ATOM     13  C   UNL     1       4.835   5.165  17.538  0.00  0.00    +0.000 A 
ATOM     14  C   UNL     1       5.032   4.855  16.192  0.00  0.00    +0.000 A 
ATOM     15  C   UNL     1       6.219   5.222  15.558  0.00  0.00    +0.000 A 
ATOM     16  C   UNL     1       7.147   6.045  16.201  0.00  0.00    +0.000 A 
BRANCH  15  17
ATOM     17  N   UNL     1       6.515   4.656  14.235  0.00  0.00    +0.000 N 
ATOM     18  O   UNL     1       5.858   3.664  13.882  0.00  0.00    +0.000 OA
ATOM     19  O   UNL     1       7.423   5.172  13.575  0.00  0.00    +0.000 OA
ENDBRANCH  15  17
BRANCH  11  20
ATOM     20  C   UNL     1       7.866   7.406  18.138  0.00  0.00    +0.000 C 
ATOM     21  O   UNL     1       8.603   7.078  19.055  0.00  0.00    +0.000 OA
BRANCH  20  23
ATOM     22  C   UNL     1       8.545   9.639  18.247  0.00  0.00    +0.000 C 
ATOM     23  O   UNL     1       7.815   8.626  17.553  0.00  0.00    +0.000 OA
ENDBRANCH  20  23
ENDBRANCH  11  20
ENDBRANCH   1  13
BRANCH   7  24
ATOM     24  C   UNL     1       0.256   9.600  20.468  0.00  0.00    +0.000 A 
ATOM     25  C   UNL     1      -0.553  10.066  19.446  0.00  0.00    +0.000 A 
ATOM     26  C   UNL     1      -0.353  11.466  19.368  0.00  0.00    +0.000 A 
ATOM     27  C   UNL     1       0.604  11.767  20.306  0.00  0.00    +0.000 A 
ATOM     28  O   UNL     1       1.009  10.642  20.947  0.00  0.00    +0.000 OA
ENDBRANCH   7  24
TORSDOF 5
ENDMDL
MODEL 6
REMARK VINA RESULT:      -6.8      3.240      8.429
REMARK  Name = 
REMARK  6 active torsions:
REMARK  status: ('A' for Active; 'I' for Inactive)
REMARK    1  A    between atoms: C_1  and  O_2
REMARK    2  A    between atoms: O_2  and  C_3
REMARK    3  A    between atoms: C_3  and  C_5
REMARK    4  A    between atoms: C_7  and  C_8
REMARK    5  A    between atoms: C_14  and  C_16
REMARK    6  A    between atoms: C_24  and  N_25
REMARK                            x       y       z     vdW  Elec       q    Type
REMARK                         _______ _______ _______ _____ _____    ______ ____
ROOT
ATOM      1  C   UNL     1       0.358   9.336  20.605  0.00  0.00    +0.000 C 
ATOM      2  O   UNL     1      -0.191   9.325  21.705  0.00  0.00    +0.000 OA
ATOM      3  N   UNL     1       1.390   8.463  20.264  0.00  0.00    +0.000 N 
ATOM      4  C   UNL     1       1.704   7.331  21.152  0.00  0.00    +0.000 C 
ATOM      5  C   UNL     1       1.725   5.997  20.371  0.00  0.00    +0.000 C 
ATOM      6  N   UNL     1       2.526   6.101  19.140  0.00  0.00    +0.000 N 
ATOM      7  C   UNL     1       3.354   5.040  18.758  0.00  0.00    +0.000 C 
ATOM      8  O   UNL     1       3.346   3.984  19.393  0.00  0.00    +0.000 OA
ATOM      9  C   UNL     1       2.165   7.242  18.288  0.00  0.00    +0.000 C 
ATOM     10  C   UNL     1       2.287   8.539  19.097  0.00  0.00    +0.000 C 
ENDROOT
BRANCH   1  13
ATOM     11  C   UNL     1      -1.735  10.946  17.877  0.00  0.00    +0.000 A 
ATOM     12  C   UNL     1      -1.217   9.999  18.780  0.00  0.00    +0.000 A 
ATOM     13  C   UNL     1      -0.137  10.329  19.610  0.00  0.00    +0.000 A 
ATOM     14  C   UNL     1       0.481  11.571  19.462  0.00  0.00    +0.000 A 
ATOM     15  C   UNL     1      -0.095  12.545  18.646  0.00  0.00    +0.000 A 
ATOM     16  C   UNL     1      -1.194  12.240  17.839  0.00  0.00    +0.000 A 
BRANCH  15  17
ATOM     17  N   UNL     1       0.421  13.919  18.717  0.00  0.00    +0.000 N 
ATOM     18  O   UNL     1      -0.409  14.841  18.665  0.00  0.00    +0.000 OA
ATOM     19  O   UNL     1       1.645  14.074  18.784  0.00  0.00    +0.000 OA
ENDBRANCH  15  17
BRANCH  11  20
ATOM     20  C   UNL     1      -2.863  10.641  16.956  0.00  0.00    +0.000 C 
ATOM     21  O   UNL     1      -3.905  10.125  17.326  0.00  0.00    +0.000 OA
BRANCH  20  23
ATOM     22  C   UNL     1      -3.152  10.191  14.682  0.00  0.00    +0.000 C 
ATOM     23  O   UNL     1      -2.562  11.014  15.690  0.00  0.00    +0.000 OA
ENDBRANCH  20  23
ENDBRANCH  11  20
ENDBRANCH   1  13
BRANCH   7  24
ATOM     24  C   UNL     1       4.211   5.206  17.593  0.00  0.00    +0.000 A 
ATOM     25  C   UNL     1       4.452   4.358  16.527  0.00  0.00    +0.000 A 
ATOM     26  C   UNL     1       5.349   5.028  15.661  0.00  0.00    +0.000 A 
ATOM     27  C   UNL     1       5.647   6.223  16.270  0.00  0.00    +0.000 A 
ATOM     28  O   UNL     1       4.998   6.322  17.457  0.00  0.00    +0.000 OA
ENDBRANCH   7  24
TORSDOF 5
ENDMDL
MODEL 7
REMARK VINA RESULT:      -6.5      1.228      2.996
REMARK  Name = 
REMARK  6 active torsions:
REMARK  status: ('A' for Active; 'I' for Inactive)
REMARK    1  A    between atoms: C_1  and  O_2
REMARK    2  A    between atoms: O_2  and  C_3
REMARK    3  A    between atoms: C_3  and  C_5
REMARK    4  A    between atoms: C_7  and  C_8
REMARK    5  A    between atoms: C_14  and  C_16
REMARK    6  A    between atoms: C_24  and  N_25
REMARK                            x       y       z     vdW  Elec       q    Type
REMARK                         _______ _______ _______ _____ _____    ______ ____
ROOT
ATOM      1  C   UNL     1       3.373   4.300  18.430  0.00  0.00    +0.000 C 
ATOM      2  O   UNL     1       3.164   3.100  18.590  0.00  0.00    +0.000 OA
ATOM      3  N   UNL     1       2.446   5.284  18.771  0.00  0.00    +0.000 N 
ATOM      4  C   UNL     1       1.256   4.917  19.556  0.00  0.00    +0.000 C 
ATOM      5  C   UNL     1       1.106   5.822  20.800  0.00  0.00    +0.000 C 
ATOM      6  N   UNL     1       1.245   7.247  20.455  0.00  0.00    +0.000 N 
ATOM      7  C   UNL     1       0.409   8.192  21.059  0.00  0.00    +0.000 C 
ATOM      8  O   UNL     1      -0.379   7.853  21.944  0.00  0.00    +0.000 OA
ATOM      9  C   UNL     1       2.454   7.558  19.680  0.00  0.00    +0.000 C 
ATOM     10  C   UNL     1       2.469   6.711  18.402  0.00  0.00    +0.000 C 
ENDROOT
BRANCH   1  13
ATOM     11  C   UNL     1       6.981   5.459  18.195  0.00  0.00    +0.000 A 
ATOM     12  C   UNL     1       5.710   5.147  18.710  0.00  0.00    +0.000 A 
ATOM     13  C   UNL     1       4.695   4.688  17.859  0.00  0.00    +0.000 A 
ATOM     14  C   UNL     1       4.929   4.638  16.485  0.00  0.00    +0.000 A 
ATOM     15  C   UNL     1       6.216   4.845  15.988  0.00  0.00    +0.000 A 
ATOM     16  C   UNL     1       7.246   5.269  16.830  0.00  0.00    +0.000 A 
BRANCH  15  17
ATOM     17  N   UNL     1       6.488   4.524  14.580  0.00  0.00    +0.000 N 
ATOM     18  O   UNL     1       7.291   5.252  13.976  0.00  0.00    +0.000 OA
ATOM     19  O   UNL     1       5.872   3.580  14.074  0.00  0.00    +0.000 OA
ENDBRANCH  15  17
BRANCH  11  20
ATOM     20  C   UNL     1       8.086   5.974  19.048  0.00  0.00    +0.000 C 
ATOM     21  O   UNL     1       8.557   5.344  19.982  0.00  0.00    +0.000 OA
BRANCH  20  23
ATOM     22  C   UNL     1       7.501   7.894  17.852  0.00  0.00    +0.000 C 
ATOM     23  O   UNL     1       8.474   7.205  18.640  0.00  0.00    +0.000 OA
ENDBRANCH  20  23
ENDBRANCH  11  20
ENDBRANCH   1  13
BRANCH   7  24
ATOM     24  C   UNL     1       0.497   9.579  20.627  0.00  0.00    +0.000 A 
ATOM     25  C   UNL     1       0.081  10.182  19.453  0.00  0.00    +0.000 A 
ATOM     26  C   UNL     1       0.387  11.561  19.566  0.00  0.00    +0.000 A 
ATOM     27  C   UNL     1       1.019  11.713  20.776  0.00  0.00    +0.000 A 
ATOM     28  O   UNL     1       1.128  10.516  21.406  0.00  0.00    +0.000 OA
ENDBRANCH   7  24
TORSDOF 5
ENDMDL
MODEL 8
REMARK VINA RESULT:      -6.4      2.987      8.672
REMARK  Name = 
REMARK  6 active torsions:
REMARK  status: ('A' for Active; 'I' for Inactive)
REMARK    1  A    between atoms: C_1  and  O_2
REMARK    2  A    between atoms: O_2  and  C_3
REMARK    3  A    between atoms: C_3  and  C_5
REMARK    4  A    between atoms: C_7  and  C_8
REMARK    5  A    between atoms: C_14  and  C_16
REMARK    6  A    between atoms: C_24  and  N_25
REMARK                            x       y       z     vdW  Elec       q    Type
REMARK                         _______ _______ _______ _____ _____    ______ ____
ROOT
ATOM      1  C   UNL     1       0.155   9.358  20.748  0.00  0.00    +0.000 C 
ATOM      2  O   UNL     1      -0.436   9.276  21.823  0.00  0.00    +0.000 OA
ATOM      3  N   UNL     1       1.234   8.541  20.412  0.00  0.00    +0.000 N 
ATOM      4  C   UNL     1       1.558   7.384  21.262  0.00  0.00    +0.000 C 
ATOM      5  C   UNL     1       1.663   6.088  20.425  0.00  0.00    +0.000 C 
ATOM      6  N   UNL     1       2.508   6.279  19.234  0.00  0.00    +0.000 N 
ATOM      7  C   UNL     1       3.392   5.268  18.840  0.00  0.00    +0.000 C 
ATOM      8  O   UNL     1       3.402   4.185  19.428  0.00  0.00    +0.000 OA
ATOM      9  C   UNL     1       2.135   7.442  18.418  0.00  0.00    +0.000 C 
ATOM     10  C   UNL     1       2.172   8.704  19.287  0.00  0.00    +0.000 C 
ENDROOT
BRANCH   1  13
ATOM     11  C   UNL     1      -0.221  12.626  18.854  0.00  0.00    +0.000 A 
ATOM     12  C   UNL     1       0.192  11.672  19.801  0.00  0.00    +0.000 A 
ATOM     13  C   UNL     1      -0.340  10.376  19.777  0.00  0.00    +0.000 A 
ATOM     14  C   UNL     1      -1.353  10.071  18.868  0.00  0.00    +0.000 A 
ATOM     15  C   UNL     1      -1.686  10.981  17.863  0.00  0.00    +0.000 A 
ATOM     16  C   UNL     1      -1.137  12.265  17.854  0.00  0.00    +0.000 A 
BRANCH  15  17
ATOM     17  N   UNL     1      -2.556  10.532  16.767  0.00  0.00    +0.000 N 
ATOM     18  O   UNL     1      -2.585  11.232  15.742  0.00  0.00    +0.000 OA
ATOM     19  O   UNL     1      -3.232   9.514  16.946  0.00  0.00    +0.000 OA
ENDBRANCH  15  17
BRANCH  11  20
ATOM     20  C   UNL     1       0.291  14.024  18.849  0.00  0.00    +0.000 C 
ATOM     21  O   UNL     1      -0.396  14.984  18.539  0.00  0.00    +0.000 OA
BRANCH  20  23
ATOM     22  C   UNL     1       2.518  13.963  18.145  0.00  0.00    +0.000 C 
ATOM     23  O   UNL     1       1.590  14.060  19.227  0.00  0.00    +0.000 OA
ENDBRANCH  20  23
ENDBRANCH  11  20
ENDBRANCH   1  13
BRANCH   7  24
ATOM     24  C   UNL     1       4.287   5.520  17.721  0.00  0.00    +0.000 A 
ATOM     25  C   UNL     1       4.422   4.859  16.513  0.00  0.00    +0.000 A 
ATOM     26  C   UNL     1       5.425   5.539  15.780  0.00  0.00    +0.000 A 
ATOM     27  C   UNL     1       5.882   6.541  16.600  0.00  0.00    +0.000 A 
ATOM     28  O   UNL     1       5.232   6.513  17.790  0.00  0.00    +0.000 OA
ENDBRANCH   7  24
TORSDOF 5
ENDMDL
MODEL 9
REMARK VINA RESULT:      -6.3      3.189      8.576
REMARK  Name = 
REMARK  6 active torsions:
REMARK  status: ('A' for Active; 'I' for Inactive)
REMARK    1  A    between atoms: C_1  and  O_2
REMARK    2  A    between atoms: O_2  and  C_3
REMARK    3  A    between atoms: C_3  and  C_5
REMARK    4  A    between atoms: C_7  and  C_8
REMARK    5  A    between atoms: C_14  and  C_16
REMARK    6  A    between atoms: C_24  and  N_25
REMARK                            x       y       z     vdW  Elec       q    Type
REMARK                         _______ _______ _______ _____ _____    ______ ____
ROOT
ATOM      1  C   UNL     1       0.293   9.251  20.582  0.00  0.00    +0.000 C 
ATOM      2  O   UNL     1      -0.374   9.140  21.609  0.00  0.00    +0.000 OA
ATOM      3  N   UNL     1       1.344   8.391  20.264  0.00  0.00    +0.000 N 
ATOM      4  C   UNL     1       1.541   7.166  21.055  0.00  0.00    +0.000 C 
ATOM      5  C   UNL     1       1.629   5.920  20.145  0.00  0.00    +0.000 C 
ATOM      6  N   UNL     1       2.562   6.130  19.025  0.00  0.00    +0.000 N 
ATOM      7  C   UNL     1       3.411   5.093  18.625  0.00  0.00    +0.000 C 
ATOM      8  O   UNL     1       3.319   3.977  19.140  0.00  0.00    +0.000 OA
ATOM      9  C   UNL     1       2.314   7.362  18.265  0.00  0.00    +0.000 C 
ATOM     10  C   UNL     1       2.364   8.564  19.215  0.00  0.00    +0.000 C 
ENDROOT
BRANCH   1  13
ATOM     11  C   UNL     1      -1.597  11.275  17.985  0.00  0.00    +0.000 A 
ATOM     12  C   UNL     1      -1.202  10.219  18.827  0.00  0.00    +0.000 A 
ATOM     13  C   UNL     1      -0.075  10.355  19.650  0.00  0.00    +0.000 A 
ATOM     14  C   UNL     1       0.705  11.507  19.554  0.00  0.00    +0.000 A 
ATOM     15  C   UNL     1       0.256  12.593  18.801  0.00  0.00    +0.000 A 
ATOM     16  C   UNL     1      -0.885  12.484  18.003  0.00  0.00    +0.000 A 
BRANCH  15  17
ATOM     17  N   UNL     1       0.956  13.878  18.932  0.00  0.00    +0.000 N 
ATOM     18  O   UNL     1       2.191  13.869  18.803  0.00  0.00    +0.000 OA
ATOM     19  O   UNL     1       0.282  14.878  19.203  0.00  0.00    +0.000 OA
ENDBRANCH  15  17
BRANCH  11  20
ATOM     20  C   UNL     1      -2.768  11.177  17.073  0.00  0.00    +0.000 C 
ATOM     21  O   UNL     1      -2.684  10.783  15.920  0.00  0.00    +0.000 OA
BRANCH  20  23
ATOM     22  C   UNL     1      -5.004  11.807  16.823  0.00  0.00    +0.000 C 
ATOM     23  O   UNL     1      -3.899  11.577  17.700  0.00  0.00    +0.000 OA
ENDBRANCH  20  23
ENDBRANCH  11  20
ENDBRANCH   1  13
BRANCH   7  24
ATOM     24  C   UNL     1       4.393   5.357  17.584  0.00  0.00    +0.000 A 
ATOM     25  C   UNL     1       4.585   4.750  16.355  0.00  0.00    +0.000 A 
ATOM     26  C   UNL     1       5.666   5.417  15.729  0.00  0.00    +0.000 A 
ATOM     27  C   UNL     1       6.107   6.356  16.630  0.00  0.00    +0.000 A 
ATOM     28  O   UNL     1       5.373   6.300  17.769  0.00  0.00    +0.000 OA
ENDBRANCH   7  24
TORSDOF 5
ENDMDL
