MODEL 1
REMARK VINA RESULT:      -7.0      0.000      0.000
REMARK  Name = 
REMARK  5 active torsions:
REMARK  status: ('A' for Active; 'I' for Inactive)
REMARK    1  A    between atoms: C_1  and  C_2
REMARK    2  A    between atoms: C_6  and  C_7
REMARK    3  A    between atoms: N_9  and  N_10
REMARK    4  A    between atoms: N_10  and  C_11
REMARK    5  A    between atoms: C_11  and  N_13
REMARK                            x       y       z     vdW  Elec       q    Type
REMARK                         _______ _______ _______ _____ _____    ______ ____
ROOT
ATOM      1  C   UNL     1       4.290   3.475  18.621  0.00  0.00    +0.000 C 
ATOM      2  N   UNL     1       5.149   2.671  19.336  0.00  0.00    +0.000 N 
ATOM      3  N   UNL     1       4.383   3.762  17.358  0.00  0.00    +0.000 NA
ATOM      4  H   UNL     1       5.030   2.735  20.345  0.00  0.00    +0.000 HD
ATOM      5  H   UNL     1       6.097   2.560  19.020  0.00  0.00    +0.000 HD
ENDROOT
BRANCH   1  11
ATOM      6  C   UNL     1       2.002   7.484  20.149  0.00  0.00    +0.000 C 
ATOM      7  C   UNL     1       2.040   5.986  20.087  0.00  0.00    +0.000 A 
ATOM      8  C   UNL     1       1.053   5.229  20.719  0.00  0.00    +0.000 A 
ATOM      9  C   UNL     1       1.115   3.841  20.648  0.00  0.00    +0.000 A 
ATOM     10  C   UNL     1       2.163   3.245  19.959  0.00  0.00    +0.000 A 
ATOM     11  C   UNL     1       3.114   4.068  19.367  0.00  0.00    +0.000 A 
ATOM     12  N   UNL     1       3.070   5.428  19.404  0.00  0.00    +0.000 NA
ENDBRANCH   1  11
BRANCH   3  13
ATOM     13  N   UNL     1       5.427   3.275  16.631  0.00  0.00    +0.000 N 
ATOM     14  H   UNL     1       5.838   2.401  16.933  0.00  0.00    +0.000 HD
BRANCH  13  15
ATOM     15  C   UNL     1       6.276   4.163  16.004  0.00  0.00    +0.000 C 
ATOM     16  S   UNL     1       6.375   4.116  14.330  0.00  0.00    +0.000 S 
BRANCH  15  17
ATOM     17  N   UNL     1       6.962   5.068  16.800  0.00  0.00    +0.000 N 
ATOM     18  C   UNL     1       7.805   4.635  17.922  0.00  0.00    +0.000 C 
ATOM     19  C   UNL     1       7.746   5.656  19.059  0.00  0.00    +0.000 C 
ATOM     20  O   UNL     1       8.134   6.959  18.596  0.00  0.00    +0.000 OA
ATOM     21  C   UNL     1       7.244   7.409  17.561  0.00  0.00    +0.000 C 
ATOM     22  C   UNL     1       7.226   6.444  16.370  0.00  0.00    +0.000 C 
ENDBRANCH  15  17
ENDBRANCH  13  15
ENDBRANCH   3  13
TORSDOF 4
ENDMDL
MODEL 2
REMARK VINA RESULT:      -6.8      3.094      6.811
REMARK  Name = 
REMARK  5 active torsions:
REMARK  status: ('A' for Active; 'I' for Inactive)
REMARK    1  A    between atoms: C_1  and  C_2
REMARK    2  A    between atoms: C_6  and  C_7
REMARK    3  A    between atoms: N_9  and  N_10
REMARK    4  A    between atoms: N_10  and  C_11
REMARK    5  A    between atoms: C_11  and  N_13
REMARK                            x       y       z     vdW  Elec       q    Type
REMARK                         _______ _______ _______ _____ _____    ______ ____
ROOT
ATOM      1  C   UNL     1       6.476   4.327  16.280  0.00  0.00    +0.000 C 
ATOM      2  N   UNL     1       7.529   4.743  17.064  0.00  0.00    +0.000 N 
ATOM      3  N   UNL     1       5.310   3.947  16.704  0.00  0.00    +0.000 NA
ATOM      4  H   UNL     1       8.416   4.799  16.566  0.00  0.00    +0.000 HD
ATOM      5  H   UNL     1       7.589   4.425  18.016  0.00  0.00    +0.000 HD
ENDROOT
BRANCH   1  11
ATOM      6  C   UNL     1       8.875   6.181  12.478  0.00  0.00    +0.000 C 
ATOM      7  C   UNL     1       7.836   5.225  12.984  0.00  0.00    +0.000 A 
ATOM      8  C   UNL     1       7.111   4.435  12.091  0.00  0.00    +0.000 A 
ATOM      9  C   UNL     1       6.151   3.559  12.588  0.00  0.00    +0.000 A 
ATOM     10  C   UNL     1       5.931   3.502  13.958  0.00  0.00    +0.000 A 
ATOM     11  C   UNL     1       6.686   4.331  14.780  0.00  0.00    +0.000 A 
ATOM     12  N   UNL     1       7.644   5.184  14.326  0.00  0.00    +0.000 NA
ENDBRANCH   1  11
BRANCH   3  13
ATOM     13  N   UNL     1       5.059   3.905  18.043  0.00  0.00    +0.000 N 
ATOM     14  H   UNL     1       5.310   3.059  18.537  0.00  0.00    +0.000 HD
BRANCH  13  15
ATOM     15  C   UNL     1       3.982   4.606  18.543  0.00  0.00    +0.000 C 
ATOM     16  S   UNL     1       3.831   6.225  18.132  0.00  0.00    +0.000 S 
BRANCH  15  17
ATOM     17  N   UNL     1       3.068   3.912  19.322  0.00  0.00    +0.000 N 
ATOM     18  C   UNL     1       1.624   3.963  19.059  0.00  0.00    +0.000 C 
ATOM     19  C   UNL     1       0.840   3.890  20.370  0.00  0.00    +0.000 C 
ATOM     20  O   UNL     1       1.188   2.707  21.108  0.00  0.00    +0.000 OA
ATOM     21  C   UNL     1       2.587   2.716  21.438  0.00  0.00    +0.000 C 
ATOM     22  C   UNL     1       3.465   2.795  20.184  0.00  0.00    +0.000 C 
ENDBRANCH  15  17
ENDBRANCH  13  15
ENDBRANCH   3  13
TORSDOF 4
ENDMDL
MODEL 3
REMARK VINA RESULT:      -6.7      3.206      6.906
REMARK  Name = 
REMARK  5 active torsions:
REMARK  status: ('A' for Active; 'I' for Inactive)
REMARK    1  A    between atoms: C_1  and  C_2
REMARK    2  A    between atoms: C_6  and  C_7
REMARK    3  A    between atoms: N_9  and  N_10
REMARK    4  A    between atoms: N_10  and  C_11
REMARK    5  A    between atoms: C_11  and  N_13
REMARK                            x       y       z     vdW  Elec       q    Type
REMARK                         _______ _______ _______ _____ _____    ______ ____
ROOT
ATOM      1  C   UNL     1       6.604   4.400  16.011  0.00  0.00    +0.000 C 
ATOM      2  N   UNL     1       7.729   4.516  16.797  0.00  0.00    +0.000 N 
ATOM      3  N   UNL     1       5.383   4.290  16.435  0.00  0.00    +0.000 NA
ATOM      4  H   UNL     1       8.602   4.383  16.289  0.00  0.00    +0.000 HD
ATOM      5  H   UNL     1       7.715   4.149  17.733  0.00  0.00    +0.000 HD
ENDROOT
BRANCH   1  11
ATOM      6  C   UNL     1       5.436   2.505  11.689  0.00  0.00    +0.000 C 
ATOM      7  C   UNL     1       6.236   3.510  12.463  0.00  0.00    +0.000 A 
ATOM      8  C   UNL     1       7.117   4.369  11.805  0.00  0.00    +0.000 A 
ATOM      9  C   UNL     1       7.849   5.289  12.549  0.00  0.00    +0.000 A 
ATOM     10  C   UNL     1       7.691   5.322  13.928  0.00  0.00    +0.000 A 
ATOM     11  C   UNL     1       6.803   4.425  14.510  0.00  0.00    +0.000 A 
ATOM     12  N   UNL     1       6.060   3.526  13.808  0.00  0.00    +0.000 NA
ENDBRANCH   1  11
BRANCH   3  13
ATOM     13  N   UNL     1       5.135   4.245  17.774  0.00  0.00    +0.000 N 
ATOM     14  H   UNL     1       5.428   3.416  18.275  0.00  0.00    +0.000 HD
BRANCH  13  15
ATOM     15  C   UNL     1       4.023   4.894  18.270  0.00  0.00    +0.000 C 
ATOM     16  S   UNL     1       3.785   6.497  17.838  0.00  0.00    +0.000 S 
BRANCH  15  17
ATOM     17  N   UNL     1       3.150   4.163  19.061  0.00  0.00    +0.000 N 
ATOM     18  C   UNL     1       3.033   2.703  18.946  0.00  0.00    +0.000 C 
ATOM     19  C   UNL     1       1.592   2.262  19.209  0.00  0.00    +0.000 C 
ATOM     20  O   UNL     1       1.145   2.714  20.497  0.00  0.00    +0.000 OA
ATOM     21  C   UNL     1       1.178   4.150  20.562  0.00  0.00    +0.000 C 
ATOM     22  C   UNL     1       2.587   4.697  20.305  0.00  0.00    +0.000 C 
ENDBRANCH  15  17
ENDBRANCH  13  15
ENDBRANCH   3  13
TORSDOF 4
ENDMDL
MODEL 4
REMARK VINA RESULT:      -6.6      2.276      3.741
REMARK  Name = 
REMARK  5 active torsions:
REMARK  status: ('A' for Active; 'I' for Inactive)
REMARK    1  A    between atoms: C_1  and  C_2
REMARK    2  A    between atoms: C_6  and  C_7
REMARK    3  A    between atoms: N_9  and  N_10
REMARK    4  A    between atoms: N_10  and  C_11
REMARK    5  A    between atoms: C_11  and  N_13
REMARK                            x       y       z     vdW  Elec       q    Type
REMARK                         _______ _______ _______ _____ _____    ______ ____
ROOT
ATOM      1  C   UNL     1       2.676   6.272  19.766  0.00  0.00    +0.000 C 
ATOM      2  N   UNL     1       2.116   5.562  20.805  0.00  0.00    +0.000 N 
ATOM      3  N   UNL     1       3.654   5.877  19.009  0.00  0.00    +0.000 NA
ATOM      4  H   UNL     1       1.508   6.119  21.403  0.00  0.00    +0.000 HD
ATOM      5  H   UNL     1       2.665   4.865  21.277  0.00  0.00    +0.000 HD
ENDROOT
BRANCH   1  11
ATOM      6  C   UNL     1       0.184  10.120  21.386  0.00  0.00    +0.000 C 
ATOM      7  C   UNL     1       0.900   9.455  20.249  0.00  0.00    +0.000 A 
ATOM      8  C   UNL     1       0.965  10.072  18.999  0.00  0.00    +0.000 A 
ATOM      9  C   UNL     1       1.633   9.430  17.961  0.00  0.00    +0.000 A 
ATOM     10  C   UNL     1       2.208   8.188  18.191  0.00  0.00    +0.000 A 
ATOM     11  C   UNL     1       2.088   7.633  19.461  0.00  0.00    +0.000 A 
ATOM     12  N   UNL     1       1.457   8.245  20.501  0.00  0.00    +0.000 NA
ENDBRANCH   1  11
BRANCH   3  13
ATOM     13  N   UNL     1       4.240   4.669  19.240  0.00  0.00    +0.000 N 
ATOM     14  H   UNL     1       4.836   4.588  20.053  0.00  0.00    +0.000 HD
BRANCH  13  15
ATOM     15  C   UNL     1       4.564   3.868  18.164  0.00  0.00    +0.000 C 
ATOM     16  S   UNL     1       3.708   2.442  17.953  0.00  0.00    +0.000 S 
BRANCH  15  17
ATOM     17  N   UNL     1       5.552   4.319  17.301  0.00  0.00    +0.000 N 
ATOM     18  C   UNL     1       6.851   4.803  17.789  0.00  0.00    +0.000 C 
ATOM     19  C   UNL     1       7.367   5.934  16.899  0.00  0.00    +0.000 C 
ATOM     20  O   UNL     1       7.458   5.506  15.530  0.00  0.00    +0.000 OA
ATOM     21  C   UNL     1       6.163   5.123  15.038  0.00  0.00    +0.000 C 
ATOM     22  C   UNL     1       5.552   3.991  15.872  0.00  0.00    +0.000 C 
ENDBRANCH  15  17
ENDBRANCH  13  15
ENDBRANCH   3  13
TORSDOF 4
ENDMDL
MODEL 5
REMARK VINA RESULT:      -6.6      3.285      6.783
REMARK  Name = 
REMARK  5 active torsions:
REMARK  status: ('A' for Active; 'I' for Inactive)
REMARK    1  A    between atoms: C_1  and  C_2
REMARK    2  A    between atoms: C_6  and  C_7
REMARK    3  A    between atoms: N_9  and  N_10
REMARK    4  A    between atoms: N_10  and  C_11
REMARK    5  A    between atoms: C_11  and  N_13
REMARK                            x       y       z     vdW  Elec       q    Type
REMARK                         _______ _______ _______ _____ _____    ______ ____
ROOT
ATOM      1  C   UNL     1       6.542   4.951  15.947  0.00  0.00    +0.000 C 
ATOM      2  N   UNL     1       7.412   4.339  16.821  0.00  0.00    +0.000 N 
ATOM      3  N   UNL     1       5.532   5.700  16.270  0.00  0.00    +0.000 NA
ATOM      4  H   UNL     1       8.005   3.634  16.387  0.00  0.00    +0.000 HD
ATOM      5  H   UNL     1       7.104   4.127  17.754  0.00  0.00    +0.000 HD
ENDROOT
BRANCH   1  11
ATOM      6  C   UNL     1       5.400   2.545  11.879  0.00  0.00    +0.000 C 
ATOM      7  C   UNL     1       6.238   3.597  12.543  0.00  0.00    +0.000 A 
ATOM      8  C   UNL     1       7.197   4.299  11.811  0.00  0.00    +0.000 A 
ATOM      9  C   UNL     1       7.963   5.267  12.453  0.00  0.00    +0.000 A 
ATOM     10  C   UNL     1       7.760   5.503  13.806  0.00  0.00    +0.000 A 
ATOM     11  C   UNL     1       6.794   4.753  14.467  0.00  0.00    +0.000 A 
ATOM     12  N   UNL     1       6.017   3.812  13.863  0.00  0.00    +0.000 NA
ENDBRANCH   1  11
BRANCH   3  13
ATOM     13  N   UNL     1       5.239   5.906  17.585  0.00  0.00    +0.000 N 
ATOM     14  H   UNL     1       5.985   5.770  18.255  0.00  0.00    +0.000 HD
BRANCH  13  15
ATOM     15  C   UNL     1       3.961   5.644  18.034  0.00  0.00    +0.000 C 
ATOM     16  S   UNL     1       2.912   6.937  18.236  0.00  0.00    +0.000 S 
BRANCH  15  17
ATOM     17  N   UNL     1       3.614   4.318  18.248  0.00  0.00    +0.000 N 
ATOM     18  C   UNL     1       2.593   3.641  17.437  0.00  0.00    +0.000 C 
ATOM     19  C   UNL     1       1.821   2.631  18.288  0.00  0.00    +0.000 C 
ATOM     20  O   UNL     1       2.714   1.681  18.891  0.00  0.00    +0.000 OA
ATOM     21  C   UNL     1       3.649   2.350  19.753  0.00  0.00    +0.000 C 
ATOM     22  C   UNL     1       4.475   3.395  18.993  0.00  0.00    +0.000 C 
ENDBRANCH  15  17
ENDBRANCH  13  15
ENDBRANCH   3  13
TORSDOF 4
ENDMDL
MODEL 6
REMARK VINA RESULT:      -6.6      2.958      6.503
REMARK  Name = 
REMARK  5 active torsions:
REMARK  status: ('A' for Active; 'I' for Inactive)
REMARK    1  A    between atoms: C_1  and  C_2
REMARK    2  A    between atoms: C_6  and  C_7
REMARK    3  A    between atoms: N_9  and  N_10
REMARK    4  A    between atoms: N_10  and  C_11
REMARK    5  A    between atoms: C_11  and  N_13
REMARK                            x       y       z     vdW  Elec       q    Type
REMARK                         _______ _______ _______ _____ _____    ______ ____
ROOT
ATOM      1  C   UNL     1       6.505   4.318  15.991  0.00  0.00    +0.000 C 
ATOM      2  N   UNL     1       7.461   4.904  16.791  0.00  0.00    +0.000 N 
ATOM      3  N   UNL     1       5.414   3.744  16.396  0.00  0.00    +0.000 NA
ATOM      4  H   UNL     1       8.332   5.112  16.308  0.00  0.00    +0.000 HD
ATOM      5  H   UNL     1       7.559   4.598  17.744  0.00  0.00    +0.000 HD
ENDROOT
BRANCH   1  11
ATOM      6  C   UNL     1       5.435   2.471  11.622  0.00  0.00    +0.000 C 
ATOM      7  C   UNL     1       6.213   3.471  12.426  0.00  0.00    +0.000 A 
ATOM      8  C   UNL     1       7.102   4.343  11.796  0.00  0.00    +0.000 A 
ATOM      9  C   UNL     1       7.813   5.257  12.566  0.00  0.00    +0.000 A 
ATOM     10  C   UNL     1       7.628   5.272  13.942  0.00  0.00    +0.000 A 
ATOM     11  C   UNL     1       6.733   4.363  14.495  0.00  0.00    +0.000 A 
ATOM     12  N   UNL     1       6.010   3.469  13.766  0.00  0.00    +0.000 NA
ENDBRANCH   1  11
BRANCH   3  13
ATOM     13  N   UNL     1       5.155   3.655  17.731  0.00  0.00    +0.000 N 
ATOM     14  H   UNL     1       5.801   3.120  18.297  0.00  0.00    +0.000 HD
BRANCH  13  15
ATOM     15  C   UNL     1       3.844   3.676  18.160  0.00  0.00    +0.000 C 
ATOM     16  S   UNL     1       2.908   2.306  17.915  0.00  0.00    +0.000 S 
BRANCH  15  17
ATOM     17  N   UNL     1       3.397   4.819  18.806  0.00  0.00    +0.000 N 
ATOM     18  C   UNL     1       2.960   4.800  20.209  0.00  0.00    +0.000 C 
ATOM     19  C   UNL     1       1.821   5.796  20.426  0.00  0.00    +0.000 C 
ATOM     20  O   UNL     1       2.215   7.119  20.028  0.00  0.00    +0.000 OA
ATOM     21  C   UNL     1       2.551   7.142  18.631  0.00  0.00    +0.000 C 
ATOM     22  C   UNL     1       3.688   6.166  18.305  0.00  0.00    +0.000 C 
ENDBRANCH  15  17
ENDBRANCH  13  15
ENDBRANCH   3  13
TORSDOF 4
ENDMDL
MODEL 7
REMARK VINA RESULT:      -6.6      3.186      6.663
REMARK  Name = 
REMARK  5 active torsions:
REMARK  status: ('A' for Active; 'I' for Inactive)
REMARK    1  A    between atoms: C_1  and  C_2
REMARK    2  A    between atoms: C_6  and  C_7
REMARK    3  A    between atoms: N_9  and  N_10
REMARK    4  A    between atoms: N_10  and  C_11
REMARK    5  A    between atoms: C_11  and  N_13
REMARK                            x       y       z     vdW  Elec       q    Type
REMARK                         _______ _______ _______ _____ _____    ______ ____
ROOT
ATOM      1  C   UNL     1       6.305   4.886  16.334  0.00  0.00    +0.000 C 
ATOM      2  N   UNL     1       7.145   4.277  17.240  0.00  0.00    +0.000 N 
ATOM      3  N   UNL     1       5.304   5.660  16.619  0.00  0.00    +0.000 NA
ATOM      4  H   UNL     1       7.733   3.551  16.834  0.00  0.00    +0.000 HD
ATOM      5  H   UNL     1       6.814   4.092  18.171  0.00  0.00    +0.000 HD
ENDROOT
BRANCH   1  11
ATOM      6  C   UNL     1       8.838   6.158  12.383  0.00  0.00    +0.000 C 
ATOM      7  C   UNL     1       7.796   5.269  12.996  0.00  0.00    +0.000 A 
ATOM      8  C   UNL     1       7.130   4.323  12.216  0.00  0.00    +0.000 A 
ATOM      9  C   UNL     1       6.166   3.514  12.810  0.00  0.00    +0.000 A 
ATOM     10  C   UNL     1       5.885   3.676  14.160  0.00  0.00    +0.000 A 
ATOM     11  C   UNL     1       6.584   4.649  14.865  0.00  0.00    +0.000 A 
ATOM     12  N   UNL     1       7.544   5.443  14.316  0.00  0.00    +0.000 NA
ENDBRANCH   1  11
BRANCH   3  13
ATOM     13  N   UNL     1       4.988   5.902  17.923  0.00  0.00    +0.000 N 
ATOM     14  H   UNL     1       5.686   5.679  18.620  0.00  0.00    +0.000 HD
BRANCH  13  15
ATOM     15  C   UNL     1       3.672   5.796  18.322  0.00  0.00    +0.000 C 
ATOM     16  S   UNL     1       2.733   7.185  18.332  0.00  0.00    +0.000 S 
BRANCH  15  17
ATOM     17  N   UNL     1       3.199   4.534  18.649  0.00  0.00    +0.000 N 
ATOM     18  C   UNL     1       2.201   3.839  17.824  0.00  0.00    +0.000 C 
ATOM     19  C   UNL     1       1.276   2.996  18.704  0.00  0.00    +0.000 C 
ATOM     20  O   UNL     1       2.031   2.064  19.494  0.00  0.00    +0.000 OA
ATOM     21  C   UNL     1       2.938   2.763  20.362  0.00  0.00    +0.000 C 
ATOM     22  C   UNL     1       3.911   3.647  19.574  0.00  0.00    +0.000 C 
ENDBRANCH  15  17
ENDBRANCH  13  15
ENDBRANCH   3  13
TORSDOF 4
ENDMDL
MODEL 8
REMARK VINA RESULT:      -6.6      2.421      4.062
REMARK  Name = 
REMARK  5 active torsions:
REMARK  status: ('A' for Active; 'I' for Inactive)
REMARK    1  A    between atoms: C_1  and  C_2
REMARK    2  A    between atoms: C_6  and  C_7
REMARK    3  A    between atoms: N_9  and  N_10
REMARK    4  A    between atoms: N_10  and  C_11
REMARK    5  A    between atoms: C_11  and  N_13
REMARK                            x       y       z     vdW  Elec       q    Type
REMARK                         _______ _______ _______ _____ _____    ______ ____
ROOT
ATOM      1  C   UNL     1       2.452   6.378  19.906  0.00  0.00    +0.000 C 
ATOM      2  N   UNL     1       1.752   5.765  20.920  0.00  0.00    +0.000 N 
ATOM      3  N   UNL     1       3.465   5.881  19.266  0.00  0.00    +0.000 NA
ATOM      4  H   UNL     1       1.131   6.391  21.430  0.00  0.00    +0.000 HD
ATOM      5  H   UNL     1       2.207   5.062  21.477  0.00  0.00    +0.000 HD
ENDROOT
BRANCH   1  11
ATOM      6  C   UNL     1       0.155  10.490  21.113  0.00  0.00    +0.000 C 
ATOM      7  C   UNL     1       0.890   9.703  20.070  0.00  0.00    +0.000 A 
ATOM      8  C   UNL     1       1.082  10.231  18.793  0.00  0.00    +0.000 A 
ATOM      9  C   UNL     1       1.765   9.477  17.844  0.00  0.00    +0.000 A 
ATOM     10  C   UNL     1       2.230   8.215  18.189  0.00  0.00    +0.000 A 
ATOM     11  C   UNL     1       1.987   7.755  19.478  0.00  0.00    +0.000 A 
ATOM     12  N   UNL     1       1.338   8.476  20.433  0.00  0.00    +0.000 NA
ENDBRANCH   1  11
BRANCH   3  13
ATOM     13  N   UNL     1       3.945   4.653  19.611  0.00  0.00    +0.000 N 
ATOM     14  H   UNL     1       4.465   4.582  20.476  0.00  0.00    +0.000 HD
BRANCH  13  15
ATOM     15  C   UNL     1       4.300   3.770  18.613  0.00  0.00    +0.000 C 
ATOM     16  S   UNL     1       3.483   2.308  18.521  0.00  0.00    +0.000 S 
BRANCH  15  17
ATOM     17  N   UNL     1       5.283   4.169  17.720  0.00  0.00    +0.000 N 
ATOM     18  C   UNL     1       5.023   4.295  16.280  0.00  0.00    +0.000 C 
ATOM     19  C   UNL     1       6.268   3.914  15.478  0.00  0.00    +0.000 C 
ATOM     20  O   UNL     1       7.394   4.716  15.869  0.00  0.00    +0.000 OA
ATOM     21  C   UNL     1       7.694   4.512  17.260  0.00  0.00    +0.000 C 
ATOM     22  C   UNL     1       6.500   4.862  18.155  0.00  0.00    +0.000 C 
ENDBRANCH  15  17
ENDBRANCH  13  15
ENDBRANCH   3  13
TORSDOF 4
ENDMDL
MODEL 9
REMARK VINA RESULT:      -6.5      1.092      1.780
REMARK  Name = 
REMARK  5 active torsions:
REMARK  status: ('A' for Active; 'I' for Inactive)
REMARK    1  A    between atoms: C_1  and  C_2
REMARK    2  A    between atoms: C_6  and  C_7
REMARK    3  A    between atoms: N_9  and  N_10
REMARK    4  A    between atoms: N_10  and  C_11
REMARK    5  A    between atoms: C_11  and  N_13
REMARK                            x       y       z     vdW  Elec       q    Type
REMARK                         _______ _______ _______ _____ _____    ______ ____
ROOT
ATOM      1  C   UNL     1       3.922   2.962  17.921  0.00  0.00    +0.000 C 
ATOM      2  N   UNL     1       4.074   1.594  17.907  0.00  0.00    +0.000 N 
ATOM      3  N   UNL     1       4.545   3.809  17.160  0.00  0.00    +0.000 NA
ATOM      4  H   UNL     1       3.659   1.125  18.711  0.00  0.00    +0.000 HD
ATOM      5  H   UNL     1       4.936   1.198  17.576  0.00  0.00    +0.000 HD
ENDROOT
BRANCH   1  11
ATOM      6  C   UNL     1       1.394   2.365  22.031  0.00  0.00    +0.000 C 
ATOM      7  C   UNL     1       1.726   3.236  20.856  0.00  0.00    +0.000 A 
ATOM      8  C   UNL     1       1.102   4.474  20.699  0.00  0.00    +0.000 A 
ATOM      9  C   UNL     1       1.426   5.260  19.597  0.00  0.00    +0.000 A 
ATOM     10  C   UNL     1       2.353   4.788  18.678  0.00  0.00    +0.000 A 
ATOM     11  C   UNL     1       2.921   3.538  18.900  0.00  0.00    +0.000 A 
ATOM     12  N   UNL     1       2.638   2.755  19.976  0.00  0.00    +0.000 NA
ENDBRANCH   1  11
BRANCH   3  13
ATOM     13  N   UNL     1       5.472   3.359  16.268  0.00  0.00    +0.000 N 
ATOM     14  H   UNL     1       5.784   2.401  16.363  0.00  0.00    +0.000 HD
BRANCH  13  15
ATOM     15  C   UNL     1       6.391   4.250  15.753  0.00  0.00    +0.000 C 
ATOM     16  S   UNL     1       6.634   4.266  14.094  0.00  0.00    +0.000 S 
BRANCH  15  17
ATOM     17  N   UNL     1       7.023   5.108  16.641  0.00  0.00    +0.000 N 
ATOM     18  C   UNL     1       7.794   4.610  17.788  0.00  0.00    +0.000 C 
ATOM     19  C   UNL     1       7.661   5.566  18.974  0.00  0.00    +0.000 C 
ATOM     20  O   UNL     1       8.076   6.892  18.612  0.00  0.00    +0.000 OA
ATOM     21  C   UNL     1       7.252   7.402  17.550  0.00  0.00    +0.000 C 
ATOM     22  C   UNL     1       7.311   6.506  16.307  0.00  0.00    +0.000 C 
ENDBRANCH  15  17
ENDBRANCH  13  15
ENDBRANCH   3  13
TORSDOF 4
ENDMDL
