MODEL 1
REMARK VINA RESULT:      -7.5      0.000      0.000
REMARK  Name = 
REMARK  7 active torsions:
REMARK  status: ('A' for Active; 'I' for Inactive)
REMARK    1  A    between atoms: C_1  and  O_2
REMARK    2  A    between atoms: O_2  and  C_3
REMARK    3  A    between atoms: C_6  and  O_7
REMARK    4  A    between atoms: C_10  and  C_11
REMARK    5  A    between atoms: C_15  and  N_16
REMARK    6  A    between atoms: C_20  and  O_21
REMARK    7  A    between atoms: O_21  and  C_22
REMARK                            x       y       z     vdW  Elec       q    Type
REMARK                         _______ _______ _______ _____ _____    ______ ____
ROOT
ATOM      1  C   UNL     1       6.205   5.074  16.652  0.00  0.00    +0.000 A 
ATOM      2  C   UNL     1       5.323   4.024  16.946  0.00  0.00    +0.000 A 
ATOM      3  C   UNL     1       4.073   4.236  17.595  0.00  0.00    +0.000 A 
ATOM      4  C   UNL     1       3.165   3.222  17.940  0.00  0.00    +0.000 A 
ATOM      5  N   UNL     1       2.007   3.458  18.580  0.00  0.00    +0.000 NA
ATOM      6  N   UNL     1       1.685   4.729  18.952  0.00  0.00    +0.000 NA
ATOM      7  C   UNL     1       2.505   5.765  18.656  0.00  0.00    +0.000 A 
ATOM      8  C   UNL     1       3.705   5.558  17.931  0.00  0.00    +0.000 A 
ATOM      9  C   UNL     1       4.560   6.604  17.497  0.00  0.00    +0.000 A 
ATOM     10  C   UNL     1       5.816   6.383  16.923  0.00  0.00    +0.000 A 
ENDROOT
BRANCH   7  11
ATOM     11  C   UNL     1       2.041   7.071  19.199  0.00  0.00    +0.000 A 
ATOM     12  C   UNL     1       1.713   7.212  20.558  0.00  0.00    +0.000 A 
ATOM     13  C   UNL     1       1.288   8.438  21.078  0.00  0.00    +0.000 A 
ATOM     14  C   UNL     1       1.134   9.540  20.236  0.00  0.00    +0.000 A 
ATOM     15  C   UNL     1       1.396   9.427  18.875  0.00  0.00    +0.000 A 
ATOM     16  C   UNL     1       1.945   8.231  18.400  0.00  0.00    +0.000 A 
BRANCH  15  17
ATOM     17  N   UNL     1       1.326  10.548  18.039  0.00  0.00    +0.000 N 
ATOM     18  H   UNL     1       0.433  11.031  18.084  0.00  0.00    +0.000 HD
ATOM     19  H   UNL     1       1.608  10.363  17.082  0.00  0.00    +0.000 HD
ENDBRANCH  15  17
ENDBRANCH   7  11
BRANCH   1  21
ATOM     20  C   UNL     1       7.439   4.802  14.652  0.00  0.00    +0.000 C 
ATOM     21  O   UNL     1       7.379   4.674  16.070  0.00  0.00    +0.000 OA
ENDBRANCH   1  21
BRANCH   4  22
ATOM     22  O   UNL     1       3.365   1.899  17.659  0.00  0.00    +0.000 OA
ATOM     23  H   UNL     1       4.298   1.680  17.768  0.00  0.00    +0.000 HD
ENDBRANCH   4  22
BRANCH  10  24
ATOM     24  O   UNL     1       6.616   7.426  16.550  0.00  0.00    +0.000 OA
ATOM     25  C   UNL     1       7.575   7.834  17.528  0.00  0.00    +0.000 C 
ENDBRANCH  10  24
TORSDOF 5
ENDMDL
MODEL 2
REMARK VINA RESULT:      -7.3      1.010      1.435
REMARK  Name = 
REMARK  7 active torsions:
REMARK  status: ('A' for Active; 'I' for Inactive)
REMARK    1  A    between atoms: C_1  and  O_2
REMARK    2  A    between atoms: O_2  and  C_3
REMARK    3  A    between atoms: C_6  and  O_7
REMARK    4  A    between atoms: C_10  and  C_11
REMARK    5  A    between atoms: C_15  and  N_16
REMARK    6  A    between atoms: C_20  and  O_21
REMARK    7  A    between atoms: O_21  and  C_22
REMARK                            x       y       z     vdW  Elec       q    Type
REMARK                         _______ _______ _______ _____ _____    ______ ____
ROOT
ATOM      1  C   UNL     1       6.180   5.086  16.569  0.00  0.00    +0.000 A 
ATOM      2  C   UNL     1       5.232   4.075  16.777  0.00  0.00    +0.000 A 
ATOM      3  C   UNL     1       3.959   4.331  17.363  0.00  0.00    +0.000 A 
ATOM      4  C   UNL     1       2.983   3.355  17.621  0.00  0.00    +0.000 A 
ATOM      5  N   UNL     1       1.804   3.631  18.204  0.00  0.00    +0.000 NA
ATOM      6  N   UNL     1       1.525   4.905  18.600  0.00  0.00    +0.000 NA
ATOM      7  C   UNL     1       2.412   5.905  18.387  0.00  0.00    +0.000 A 
ATOM      8  C   UNL     1       3.640   5.660  17.722  0.00  0.00    +0.000 A 
ATOM      9  C   UNL     1       4.569   6.673  17.373  0.00  0.00    +0.000 A 
ATOM     10  C   UNL     1       5.843   6.405  16.863  0.00  0.00    +0.000 A 
ENDROOT
BRANCH   7  11
ATOM     11  C   UNL     1       1.983   7.217  18.947  0.00  0.00    +0.000 A 
ATOM     12  C   UNL     1       1.672   8.295  18.100  0.00  0.00    +0.000 A 
ATOM     13  C   UNL     1       1.257   9.525  18.617  0.00  0.00    +0.000 A 
ATOM     14  C   UNL     1       1.191   9.719  19.997  0.00  0.00    +0.000 A 
ATOM     15  C   UNL     1       1.542   8.693  20.868  0.00  0.00    +0.000 A 
ATOM     16  C   UNL     1       1.827   7.433  20.333  0.00  0.00    +0.000 A 
BRANCH  15  17
ATOM     17  N   UNL     1       1.397   8.852  22.252  0.00  0.00    +0.000 N 
ATOM     18  H   UNL     1       0.824   9.650  22.510  0.00  0.00    +0.000 HD
ATOM     19  H   UNL     1       2.276   8.839  22.759  0.00  0.00    +0.000 HD
ENDBRANCH  15  17
ENDBRANCH   7  11
BRANCH   1  21
ATOM     20  C   UNL     1       7.465   4.702  14.619  0.00  0.00    +0.000 C 
ATOM     21  O   UNL     1       7.365   4.644  16.039  0.00  0.00    +0.000 OA
ENDBRANCH   1  21
BRANCH   4  22
ATOM     22  O   UNL     1       3.132   2.033  17.307  0.00  0.00    +0.000 OA
ATOM     23  H   UNL     1       2.914   1.489  18.073  0.00  0.00    +0.000 HD
ENDBRANCH   4  22
BRANCH  10  24
ATOM     24  O   UNL     1       6.715   7.416  16.571  0.00  0.00    +0.000 OA
ATOM     25  C   UNL     1       7.638   7.739  17.612  0.00  0.00    +0.000 C 
ENDBRANCH  10  24
TORSDOF 5
ENDMDL
MODEL 3
REMARK VINA RESULT:      -7.3      3.168      5.947
REMARK  Name = 
REMARK  7 active torsions:
REMARK  status: ('A' for Active; 'I' for Inactive)
REMARK    1  A    between atoms: C_1  and  O_2
REMARK    2  A    between atoms: O_2  and  C_3
REMARK    3  A    between atoms: C_6  and  O_7
REMARK    4  A    between atoms: C_10  and  C_11
REMARK    5  A    between atoms: C_15  and  N_16
REMARK    6  A    between atoms: C_20  and  O_21
REMARK    7  A    between atoms: O_21  and  C_22
REMARK                            x       y       z     vdW  Elec       q    Type
REMARK                         _______ _______ _______ _____ _____    ______ ____
ROOT
ATOM      1  C   UNL     1       1.508   6.975  20.377  0.00  0.00    +0.000 A 
ATOM      2  C   UNL     1       1.587   5.695  20.945  0.00  0.00    +0.000 A 
ATOM      3  C   UNL     1       2.533   4.725  20.508  0.00  0.00    +0.000 A 
ATOM      4  C   UNL     1       2.640   3.421  21.020  0.00  0.00    +0.000 A 
ATOM      5  N   UNL     1       3.526   2.521  20.560  0.00  0.00    +0.000 NA
ATOM      6  N   UNL     1       4.357   2.852  19.531  0.00  0.00    +0.000 NA
ATOM      7  C   UNL     1       4.319   4.089  18.983  0.00  0.00    +0.000 A 
ATOM      8  C   UNL     1       3.437   5.080  19.482  0.00  0.00    +0.000 A 
ATOM      9  C   UNL     1       3.414   6.423  19.027  0.00  0.00    +0.000 A 
ATOM     10  C   UNL     1       2.438   7.349  19.410  0.00  0.00    +0.000 A 
ENDROOT
BRANCH   7  11
ATOM     11  C   UNL     1       5.237   4.259  17.823  0.00  0.00    +0.000 A 
ATOM     12  C   UNL     1       6.591   4.581  18.016  0.00  0.00    +0.000 A 
ATOM     13  C   UNL     1       7.462   4.731  16.933  0.00  0.00    +0.000 A 
ATOM     14  C   UNL     1       6.985   4.607  15.628  0.00  0.00    +0.000 A 
ATOM     15  C   UNL     1       5.640   4.342  15.394  0.00  0.00    +0.000 A 
ATOM     16  C   UNL     1       4.815   4.067  16.489  0.00  0.00    +0.000 A 
BRANCH  15  17
ATOM     17  N   UNL     1       5.170   4.133  14.091  0.00  0.00    +0.000 N 
ATOM     18  H   UNL     1       4.291   4.604  13.898  0.00  0.00    +0.000 HD
ATOM     19  H   UNL     1       5.143   3.156  13.818  0.00  0.00    +0.000 HD
ENDBRANCH  15  17
ENDBRANCH   7  11
BRANCH   1  21
ATOM     20  C   UNL     1       0.907   8.709  21.871  0.00  0.00    +0.000 C 
ATOM     21  O   UNL     1       0.505   7.756  20.891  0.00  0.00    +0.000 OA
ENDBRANCH   1  21
BRANCH   4  22
ATOM     22  O   UNL     1       1.856   2.938  22.030  0.00  0.00    +0.000 OA
ATOM     23  H   UNL     1       0.955   2.811  21.712  0.00  0.00    +0.000 HD
ENDBRANCH   4  22
BRANCH  10  24
ATOM     24  O   UNL     1       2.442   8.624  18.920  0.00  0.00    +0.000 OA
ATOM     25  C   UNL     1       1.664   8.821  17.738  0.00  0.00    +0.000 C 
ENDBRANCH  10  24
TORSDOF 5
ENDMDL
MODEL 4
REMARK VINA RESULT:      -7.2      2.110      4.104
REMARK  Name = 
REMARK  7 active torsions:
REMARK  status: ('A' for Active; 'I' for Inactive)
REMARK    1  A    between atoms: C_1  and  O_2
REMARK    2  A    between atoms: O_2  and  C_3
REMARK    3  A    between atoms: C_6  and  O_7
REMARK    4  A    between atoms: C_10  and  C_11
REMARK    5  A    between atoms: C_15  and  N_16
REMARK    6  A    between atoms: C_20  and  O_21
REMARK    7  A    between atoms: O_21  and  C_22
REMARK                            x       y       z     vdW  Elec       q    Type
REMARK                         _______ _______ _______ _____ _____    ______ ____
ROOT
ATOM      1  C   UNL     1       2.602   2.971  18.617  0.00  0.00    +0.000 A 
ATOM      2  C   UNL     1       3.553   3.580  17.785  0.00  0.00    +0.000 A 
ATOM      3  C   UNL     1       3.667   4.994  17.665  0.00  0.00    +0.000 A 
ATOM      4  C   UNL     1       4.579   5.658  16.828  0.00  0.00    +0.000 A 
ATOM      5  N   UNL     1       4.637   6.996  16.719  0.00  0.00    +0.000 NA
ATOM      6  N   UNL     1       3.763   7.772  17.420  0.00  0.00    +0.000 NA
ATOM      7  C   UNL     1       2.854   7.211  18.251  0.00  0.00    +0.000 A 
ATOM      8  C   UNL     1       2.804   5.806  18.434  0.00  0.00    +0.000 A 
ATOM      9  C   UNL     1       1.950   5.157  19.362  0.00  0.00    +0.000 A 
ATOM     10  C   UNL     1       1.794   3.769  19.423  0.00  0.00    +0.000 A 
ENDROOT
BRANCH   7  11
ATOM     11  C   UNL     1       1.930   8.195  18.880  0.00  0.00    +0.000 A 
ATOM     12  C   UNL     1       1.710   8.192  20.268  0.00  0.00    +0.000 A 
ATOM     13  C   UNL     1       0.854   9.119  20.869  0.00  0.00    +0.000 A 
ATOM     14  C   UNL     1       0.160  10.041  20.085  0.00  0.00    +0.000 A 
ATOM     15  C   UNL     1       0.309  10.041  18.702  0.00  0.00    +0.000 A 
ATOM     16  C   UNL     1       1.268   9.195  18.136  0.00  0.00    +0.000 A 
BRANCH  15  17
ATOM     17  N   UNL     1      -0.318  11.017  17.917  0.00  0.00    +0.000 N 
ATOM     18  H   UNL     1      -0.700  11.787  18.458  0.00  0.00    +0.000 HD
ATOM     19  H   UNL     1      -0.997  10.642  17.263  0.00  0.00    +0.000 HD
ENDBRANCH  15  17
ENDBRANCH   7  11
BRANCH   1  21
ATOM     20  C   UNL     1       3.888   0.986  18.675  0.00  0.00    +0.000 C 
ATOM     21  O   UNL     1       2.608   1.601  18.567  0.00  0.00    +0.000 OA
ENDBRANCH   1  21
BRANCH   4  22
ATOM     22  O   UNL     1       5.495   5.013  16.045  0.00  0.00    +0.000 OA
ATOM     23  H   UNL     1       5.435   4.061  16.189  0.00  0.00    +0.000 HD
ENDBRANCH   4  22
BRANCH  10  24
ATOM     24  O   UNL     1       0.934   3.192  20.315  0.00  0.00    +0.000 OA
ATOM     25  C   UNL     1       1.515   2.832  21.569  0.00  0.00    +0.000 C 
ENDBRANCH  10  24
TORSDOF 5
ENDMDL
MODEL 5
REMARK VINA RESULT:      -7.2      3.064      5.910
REMARK  Name = 
REMARK  7 active torsions:
REMARK  status: ('A' for Active; 'I' for Inactive)
REMARK    1  A    between atoms: C_1  and  O_2
REMARK    2  A    between atoms: O_2  and  C_3
REMARK    3  A    between atoms: C_6  and  O_7
REMARK    4  A    between atoms: C_10  and  C_11
REMARK    5  A    between atoms: C_15  and  N_16
REMARK    6  A    between atoms: C_20  and  O_21
REMARK    7  A    between atoms: O_21  and  C_22
REMARK                            x       y       z     vdW  Elec       q    Type
REMARK                         _______ _______ _______ _____ _____    ______ ____
ROOT
ATOM      1  C   UNL     1       1.391   7.145  20.470  0.00  0.00    +0.000 A 
ATOM      2  C   UNL     1       1.534   5.859  21.010  0.00  0.00    +0.000 A 
ATOM      3  C   UNL     1       2.458   4.910  20.486  0.00  0.00    +0.000 A 
ATOM      4  C   UNL     1       2.624   3.601  20.967  0.00  0.00    +0.000 A 
ATOM      5  N   UNL     1       3.485   2.723  20.427  0.00  0.00    +0.000 NA
ATOM      6  N   UNL     1       4.228   3.082  19.341  0.00  0.00    +0.000 NA
ATOM      7  C   UNL     1       4.129   4.326  18.817  0.00  0.00    +0.000 A 
ATOM      8  C   UNL     1       3.273   5.295  19.398  0.00  0.00    +0.000 A 
ATOM      9  C   UNL     1       3.195   6.644  18.969  0.00  0.00    +0.000 A 
ATOM     10  C   UNL     1       2.237   7.548  19.441  0.00  0.00    +0.000 A 
ENDROOT
BRANCH   7  11
ATOM     11  C   UNL     1       4.951   4.528  17.592  0.00  0.00    +0.000 A 
ATOM     12  C   UNL     1       4.727   3.757  16.439  0.00  0.00    +0.000 A 
ATOM     13  C   UNL     1       5.486   3.947  15.281  0.00  0.00    +0.000 A 
ATOM     14  C   UNL     1       6.521   4.883  15.268  0.00  0.00    +0.000 A 
ATOM     15  C   UNL     1       6.809   5.628  16.406  0.00  0.00    +0.000 A 
ATOM     16  C   UNL     1       5.955   5.516  17.509  0.00  0.00    +0.000 A 
BRANCH  15  17
ATOM     17  N   UNL     1       7.789   6.628  16.376  0.00  0.00    +0.000 N 
ATOM     18  H   UNL     1       8.726   6.282  16.559  0.00  0.00    +0.000 HD
ATOM     19  H   UNL     1       7.566   7.436  16.947  0.00  0.00    +0.000 HD
ENDBRANCH  15  17
ENDBRANCH   7  11
BRANCH   1  21
ATOM     20  C   UNL     1       0.887   8.898  21.978  0.00  0.00    +0.000 C 
ATOM     21  O   UNL     1       0.419   7.902  21.073  0.00  0.00    +0.000 OA
ENDBRANCH   1  21
BRANCH   4  22
ATOM     22  O   UNL     1       1.929   3.091  22.028  0.00  0.00    +0.000 OA
ATOM     23  H   UNL     1       1.070   3.524  22.094  0.00  0.00    +0.000 HD
ENDBRANCH   4  22
BRANCH  10  24
ATOM     24  O   UNL     1       2.183   8.830  18.971  0.00  0.00    +0.000 OA
ATOM     25  C   UNL     1       1.347   9.022  17.829  0.00  0.00    +0.000 C 
ENDBRANCH  10  24
TORSDOF 5
ENDMDL
MODEL 6
REMARK VINA RESULT:      -7.1      2.216      4.277
REMARK  Name = 
REMARK  7 active torsions:
REMARK  status: ('A' for Active; 'I' for Inactive)
REMARK    1  A    between atoms: C_1  and  O_2
REMARK    2  A    between atoms: O_2  and  C_3
REMARK    3  A    between atoms: C_6  and  O_7
REMARK    4  A    between atoms: C_10  and  C_11
REMARK    5  A    between atoms: C_15  and  N_16
REMARK    6  A    between atoms: C_20  and  O_21
REMARK    7  A    between atoms: O_21  and  C_22
REMARK                            x       y       z     vdW  Elec       q    Type
REMARK                         _______ _______ _______ _____ _____    ______ ____
ROOT
ATOM      1  C   UNL     1       2.686   2.904  18.443  0.00  0.00    +0.000 A 
ATOM      2  C   UNL     1       3.669   3.509  17.645  0.00  0.00    +0.000 A 
ATOM      3  C   UNL     1       3.799   4.923  17.537  0.00  0.00    +0.000 A 
ATOM      4  C   UNL     1       4.744   5.583  16.734  0.00  0.00    +0.000 A 
ATOM      5  N   UNL     1       4.816   6.921  16.633  0.00  0.00    +0.000 NA
ATOM      6  N   UNL     1       3.925   7.702  17.309  0.00  0.00    +0.000 NA
ATOM      7  C   UNL     1       2.984   7.144  18.106  0.00  0.00    +0.000 A 
ATOM      8  C   UNL     1       2.917   5.739  18.281  0.00  0.00    +0.000 A 
ATOM      9  C   UNL     1       2.028   5.092  19.177  0.00  0.00    +0.000 A 
ATOM     10  C   UNL     1       1.859   3.705  19.225  0.00  0.00    +0.000 A 
ENDROOT
BRANCH   7  11
ATOM     11  C   UNL     1       2.048   8.132  18.710  0.00  0.00    +0.000 A 
ATOM     12  C   UNL     1       1.368   9.064  17.907  0.00  0.00    +0.000 A 
ATOM     13  C   UNL     1       0.478   9.987  18.464  0.00  0.00    +0.000 A 
ATOM     14  C   UNL     1       0.286  10.030  19.845  0.00  0.00    +0.000 A 
ATOM     15  C   UNL     1       0.982   9.160  20.678  0.00  0.00    +0.000 A 
ATOM     16  C   UNL     1       1.765   8.160  20.092  0.00  0.00    +0.000 A 
BRANCH  15  17
ATOM     17  N   UNL     1       0.732   9.139  22.056  0.00  0.00    +0.000 N 
ATOM     18  H   UNL     1       1.118   9.938  22.550  0.00  0.00    +0.000 HD
ATOM     19  H   UNL     1       0.980   8.263  22.504  0.00  0.00    +0.000 HD
ENDBRANCH  15  17
ENDBRANCH   7  11
BRANCH   1  21
ATOM     20  C   UNL     1       3.936   0.904  18.635  0.00  0.00    +0.000 C 
ATOM     21  O   UNL     1       2.683   1.534  18.386  0.00  0.00    +0.000 OA
ENDBRANCH   1  21
BRANCH   4  22
ATOM     22  O   UNL     1       5.680   4.935  15.978  0.00  0.00    +0.000 OA
ATOM     23  H   UNL     1       5.255   4.244  15.456  0.00  0.00    +0.000 HD
ENDBRANCH   4  22
BRANCH  10  24
ATOM     24  O   UNL     1       0.966   3.131  20.086  0.00  0.00    +0.000 OA
ATOM     25  C   UNL     1       1.467   2.877  21.399  0.00  0.00    +0.000 C 
ENDBRANCH  10  24
TORSDOF 5
ENDMDL
MODEL 7
REMARK VINA RESULT:      -7.0      4.204      7.335
REMARK  Name = 
REMARK  7 active torsions:
REMARK  status: ('A' for Active; 'I' for Inactive)
REMARK    1  A    between atoms: C_1  and  O_2
REMARK    2  A    between atoms: O_2  and  C_3
REMARK    3  A    between atoms: C_6  and  O_7
REMARK    4  A    between atoms: C_10  and  C_11
REMARK    5  A    between atoms: C_15  and  N_16
REMARK    6  A    between atoms: C_20  and  O_21
REMARK    7  A    between atoms: O_21  and  C_22
REMARK                            x       y       z     vdW  Elec       q    Type
REMARK                         _______ _______ _______ _____ _____    ______ ____
ROOT
ATOM      1  C   UNL     1       4.425   3.649  18.700  0.00  0.00    +0.000 A 
ATOM      2  C   UNL     1       5.464   4.582  18.571  0.00  0.00    +0.000 A 
ATOM      3  C   UNL     1       6.039   4.915  17.311  0.00  0.00    +0.000 A 
ATOM      4  C   UNL     1       7.098   5.819  17.126  0.00  0.00    +0.000 A 
ATOM      5  N   UNL     1       7.635   6.085  15.923  0.00  0.00    +0.000 NA
ATOM      6  N   UNL     1       7.169   5.441  14.815  0.00  0.00    +0.000 NA
ATOM      7  C   UNL     1       6.149   4.556  14.908  0.00  0.00    +0.000 A 
ATOM      8  C   UNL     1       5.522   4.296  16.152  0.00  0.00    +0.000 A 
ATOM      9  C   UNL     1       4.385   3.462  16.308  0.00  0.00    +0.000 A 
ATOM     10  C   UNL     1       3.872   3.086  17.553  0.00  0.00    +0.000 A 
ENDROOT
BRANCH   7  11
ATOM     11  C   UNL     1       5.815   3.889  13.619  0.00  0.00    +0.000 A 
ATOM     12  C   UNL     1       4.557   4.070  13.019  0.00  0.00    +0.000 A 
ATOM     13  C   UNL     1       4.240   3.457  11.803  0.00  0.00    +0.000 A 
ATOM     14  C   UNL     1       5.159   2.610  11.184  0.00  0.00    +0.000 A 
ATOM     15  C   UNL     1       6.395   2.364  11.774  0.00  0.00    +0.000 A 
ATOM     16  C   UNL     1       6.743   3.087  12.919  0.00  0.00    +0.000 A 
BRANCH  15  17
ATOM     17  N   UNL     1       7.355   1.583  11.118  0.00  0.00    +0.000 N 
ATOM     18  H   UNL     1       8.237   2.066  10.971  0.00  0.00    +0.000 HD
ATOM     19  H   UNL     1       7.017   1.148  10.266  0.00  0.00    +0.000 HD
ENDBRANCH  15  17
ENDBRANCH   7  11
BRANCH   1  21
ATOM     20  C   UNL     1       4.508   2.212  20.579  0.00  0.00    +0.000 C 
ATOM     21  O   UNL     1       4.033   3.422  19.994  0.00  0.00    +0.000 OA
ENDBRANCH   1  21
BRANCH   4  22
ATOM     22  O   UNL     1       7.685   6.516  18.144  0.00  0.00    +0.000 OA
ATOM     23  H   UNL     1       8.353   5.966  18.572  0.00  0.00    +0.000 HD
ENDBRANCH   4  22
BRANCH  10  24
ATOM     24  O   UNL     1       2.792   2.255  17.651  0.00  0.00    +0.000 OA
ATOM     25  C   UNL     1       1.599   2.866  18.146  0.00  0.00    +0.000 C 
ENDBRANCH  10  24
TORSDOF 5
ENDMDL
MODEL 8
REMARK VINA RESULT:      -7.0      5.159      8.737
REMARK  Name = 
REMARK  7 active torsions:
REMARK  status: ('A' for Active; 'I' for Inactive)
REMARK    1  A    between atoms: C_1  and  O_2
REMARK    2  A    between atoms: O_2  and  C_3
REMARK    3  A    between atoms: C_6  and  O_7
REMARK    4  A    between atoms: C_10  and  C_11
REMARK    5  A    between atoms: C_15  and  N_16
REMARK    6  A    between atoms: C_20  and  O_21
REMARK    7  A    between atoms: O_21  and  C_22
REMARK                            x       y       z     vdW  Elec       q    Type
REMARK                         _______ _______ _______ _____ _____    ______ ____
ROOT
ATOM      1  C   UNL     1      -3.256  11.327  18.124  0.00  0.00    +0.000 A 
ATOM      2  C   UNL     1      -2.702  12.025  19.207  0.00  0.00    +0.000 A 
ATOM      3  C   UNL     1      -1.426  11.701  19.750  0.00  0.00    +0.000 A 
ATOM      4  C   UNL     1      -0.834  12.345  20.849  0.00  0.00    +0.000 A 
ATOM      5  N   UNL     1       0.360  11.991  21.354  0.00  0.00    +0.000 NA
ATOM      6  N   UNL     1       1.041  10.941  20.812  0.00  0.00    +0.000 NA
ATOM      7  C   UNL     1       0.540  10.267  19.750  0.00  0.00    +0.000 A 
ATOM      8  C   UNL     1      -0.688  10.652  19.157  0.00  0.00    +0.000 A 
ATOM      9  C   UNL     1      -1.222  10.061  17.983  0.00  0.00    +0.000 A 
ATOM     10  C   UNL     1      -2.505  10.337  17.498  0.00  0.00    +0.000 A 
ENDROOT
BRANCH   7  11
ATOM     11  C   UNL     1       1.372   9.105  19.331  0.00  0.00    +0.000 A 
ATOM     12  C   UNL     1       2.000   9.084  18.074  0.00  0.00    +0.000 A 
ATOM     13  C   UNL     1       2.792   8.002  17.678  0.00  0.00    +0.000 A 
ATOM     14  C   UNL     1       2.933   6.894  18.514  0.00  0.00    +0.000 A 
ATOM     15  C   UNL     1       2.284   6.855  19.744  0.00  0.00    +0.000 A 
ATOM     16  C   UNL     1       1.606   7.999  20.176  0.00  0.00    +0.000 A 
BRANCH  15  17
ATOM     17  N   UNL     1       2.489   5.785  20.624  0.00  0.00    +0.000 N 
ATOM     18  H   UNL     1       2.555   6.069  21.597  0.00  0.00    +0.000 HD
ATOM     19  H   UNL     1       3.254   5.176  20.356  0.00  0.00    +0.000 HD
ENDBRANCH  15  17
ENDBRANCH   7  11
BRANCH   1  21
ATOM     20  C   UNL     1      -5.592  11.018  18.344  0.00  0.00    +0.000 C 
ATOM     21  O   UNL     1      -4.512  11.748  17.770  0.00  0.00    +0.000 OA
ENDBRANCH   1  21
BRANCH   4  22
ATOM     22  O   UNL     1      -1.410  13.393  21.512  0.00  0.00    +0.000 OA
ATOM     23  H   UNL     1      -2.155  13.731  21.003  0.00  0.00    +0.000 HD
ENDBRANCH   4  22
BRANCH  10  24
ATOM     24  O   UNL     1      -2.985   9.717  16.379  0.00  0.00    +0.000 OA
ATOM     25  C   UNL     1      -2.836  10.456  15.166  0.00  0.00    +0.000 C 
ENDBRANCH  10  24
TORSDOF 5
ENDMDL
MODEL 9
REMARK VINA RESULT:      -6.9      2.768      6.410
REMARK  Name = 
REMARK  7 active torsions:
REMARK  status: ('A' for Active; 'I' for Inactive)
REMARK    1  A    between atoms: C_1  and  O_2
REMARK    2  A    between atoms: O_2  and  C_3
REMARK    3  A    between atoms: C_6  and  O_7
REMARK    4  A    between atoms: C_10  and  C_11
REMARK    5  A    between atoms: C_15  and  N_16
REMARK    6  A    between atoms: C_20  and  O_21
REMARK    7  A    between atoms: O_21  and  C_22
REMARK                            x       y       z     vdW  Elec       q    Type
REMARK                         _______ _______ _______ _____ _____    ______ ____
ROOT
ATOM      1  C   UNL     1       1.765   3.744  19.860  0.00  0.00    +0.000 A 
ATOM      2  C   UNL     1       1.699   5.145  19.821  0.00  0.00    +0.000 A 
ATOM      3  C   UNL     1       2.474   5.921  18.913  0.00  0.00    +0.000 A 
ATOM      4  C   UNL     1       2.470   7.324  18.850  0.00  0.00    +0.000 A 
ATOM      5  N   UNL     1       3.240   8.024  17.999  0.00  0.00    +0.000 NA
ATOM      6  N   UNL     1       4.097   7.369  17.165  0.00  0.00    +0.000 NA
ATOM      7  C   UNL     1       4.162   6.017  17.163  0.00  0.00    +0.000 A 
ATOM      8  C   UNL     1       3.322   5.247  18.006  0.00  0.00    +0.000 A 
ATOM      9  C   UNL     1       3.261   3.830  17.984  0.00  0.00    +0.000 A 
ATOM     10  C   UNL     1       2.550   3.076  18.925  0.00  0.00    +0.000 A 
ENDROOT
BRANCH   7  11
ATOM     11  C   UNL     1       5.201   5.468  16.249  0.00  0.00    +0.000 A 
ATOM     12  C   UNL     1       6.567   5.598  16.550  0.00  0.00    +0.000 A 
ATOM     13  C   UNL     1       7.549   5.075  15.703  0.00  0.00    +0.000 A 
ATOM     14  C   UNL     1       7.185   4.451  14.510  0.00  0.00    +0.000 A 
ATOM     15  C   UNL     1       5.845   4.351  14.150  0.00  0.00    +0.000 A 
ATOM     16  C   UNL     1       4.875   4.762  15.071  0.00  0.00    +0.000 A 
BRANCH  15  17
ATOM     17  N   UNL     1       5.466   3.652  12.997  0.00  0.00    +0.000 N 
ATOM     18  H   UNL     1       4.866   2.855  13.185  0.00  0.00    +0.000 HD
ATOM     19  H   UNL     1       6.244   3.404  12.395  0.00  0.00    +0.000 HD
ENDBRANCH  15  17
ENDBRANCH   7  11
BRANCH   1  21
ATOM     20  C   UNL     1       1.687   2.586  21.922  0.00  0.00    +0.000 C 
ATOM     21  O   UNL     1       0.984   3.172  20.830  0.00  0.00    +0.000 OA
ENDBRANCH   1  21
BRANCH   4  22
ATOM     22  O   UNL     1       1.685   8.115  19.642  0.00  0.00    +0.000 OA
ATOM     23  H   UNL     1       2.242   8.673  20.198  0.00  0.00    +0.000 HD
ENDBRANCH   4  22
BRANCH  10  24
ATOM     24  O   UNL     1       2.548   1.710  18.879  0.00  0.00    +0.000 OA
ATOM     25  C   UNL     1       3.808   1.112  18.571  0.00  0.00    +0.000 C 
ENDBRANCH  10  24
TORSDOF 5
ENDMDL
