MODEL 1
REMARK VINA RESULT:      -7.8      0.000      0.000
REMARK  Name = 
REMARK  12 active torsions:
REMARK  status: ('A' for Active; 'I' for Inactive)
REMARK    1  A    between atoms: C_1  and  C_2
REMARK    2  A    between atoms: C_2  and  C_3
REMARK    3  A    between atoms: C_10  and  O_11
REMARK    4  A    between atoms: O_11  and  C_12
REMARK    5  A    between atoms: C_12  and  C_13
REMARK    6  A    between atoms: C_19  and  C_20
REMARK    7  A    between atoms: C_20  and  O_21
REMARK    8  A    between atoms: O_21  and  C_22
REMARK    9  A    between atoms: C_22  and  C_24
REMARK   10  A    between atoms: C_27  and  C_28
REMARK   11  A    between atoms: C_32  and  C_33
REMARK   12  A    between atoms: C_32  and  C_34
REMARK                            x       y       z     vdW  Elec       q    Type
REMARK                         _______ _______ _______ _____ _____    ______ ____
ROOT
ATOM      1  C   UNL     1       0.440  12.421  19.480  0.00  0.00    +0.000 A 
ATOM      2  C   UNL     1      -0.035  12.781  20.680  0.00  0.00    +0.000 A 
ATOM      3  C   UNL     1      -0.066  11.788  21.757  0.00  0.00    +0.000 A 
ATOM      4  O   UNL     1      -0.497  12.076  22.866  0.00  0.00    +0.000 OA
ATOM      5  C   UNL     1       0.458  10.454  21.433  0.00  0.00    +0.000 A 
ATOM      6  C   UNL     1       0.517   9.480  22.425  0.00  0.00    +0.000 A 
ATOM      7  C   UNL     1       0.994   8.209  22.116  0.00  0.00    +0.000 A 
ATOM      8  C   UNL     1       1.419   7.898  20.816  0.00  0.00    +0.000 A 
ATOM      9  C   UNL     1       1.365   8.880  19.801  0.00  0.00    +0.000 A 
ATOM     10  C   UNL     1       0.886  10.170  20.135  0.00  0.00    +0.000 A 
ATOM     11  O   UNL     1       0.852  11.135  19.153  0.00  0.00    +0.000 OA
ENDROOT
BRANCH   1  13
ATOM     12  C   UNL     1       1.353  14.640  18.810  0.00  0.00    +0.000 C 
ATOM     13  C   UNL     1       0.577  13.412  18.360  0.00  0.00    +0.000 C 
ENDBRANCH   1  13
BRANCH   8  14
ATOM     14  O   UNL     1       1.845   6.642  20.451  0.00  0.00    +0.000 OA
BRANCH  14  15
ATOM     15  C   UNL     1       0.896   5.578  20.612  0.00  0.00    +0.000 C 
BRANCH  15  16
ATOM     16  C   UNL     1       1.503   4.260  20.188  0.00  0.00    +0.000 A 
ATOM     17  C   UNL     1       0.831   3.429  19.281  0.00  0.00    +0.000 A 
ATOM     18  C   UNL     1       1.449   2.257  18.867  0.00  0.00    +0.000 A 
ATOM     19  N   UNL     1       2.673   1.866  19.279  0.00  0.00    +0.000 NA
ATOM     20  C   UNL     1       3.312   2.686  20.138  0.00  0.00    +0.000 A 
ATOM     21  C   UNL     1       2.779   3.877  20.607  0.00  0.00    +0.000 A 
ENDBRANCH  15  16
ENDBRANCH  14  15
ENDBRANCH   8  14
BRANCH   9  22
ATOM     22  C   UNL     1       1.789   8.555  18.377  0.00  0.00    +0.000 C 
BRANCH  22  23
ATOM     23  O   UNL     1       3.140   8.048  18.294  0.00  0.00    +0.000 OA
BRANCH  23  24
ATOM     24  C   UNL     1       3.299   6.778  17.825  0.00  0.00    +0.000 C 
ATOM     25  O   UNL     1       2.379   6.048  17.479  0.00  0.00    +0.000 OA
BRANCH  24  26
ATOM     26  C   UNL     1       4.784   6.359  17.826  0.00  0.00    +0.000 C 
ATOM     27  C   UNL     1       5.277   5.792  19.181  0.00  0.00    +0.000 C 
ATOM     28  C   UNL     1       6.568   5.053  18.782  0.00  0.00    +0.000 C 
ATOM     29  C   UNL     1       6.634   5.305  17.261  0.00  0.00    +0.000 C 
ATOM     30  C   UNL     1       7.618   4.432  16.515  0.00  0.00    +0.000 C 
ATOM     31  C   UNL     1       6.903   6.803  17.173  0.00  0.00    +0.000 C 
ATOM     32  O   UNL     1       7.945   7.369  16.923  0.00  0.00    +0.000 OA
ATOM     33  O   UNL     1       5.708   7.420  17.499  0.00  0.00    +0.000 OA
ATOM     34  C   UNL     1       5.161   5.280  16.789  0.00  0.00    +0.000 C 
ATOM     35  C   UNL     1       4.981   5.710  15.315  0.00  0.00    +0.000 C 
ATOM     36  C   UNL     1       4.458   3.924  16.966  0.00  0.00    +0.000 C 
ENDBRANCH  24  26
ENDBRANCH  23  24
ENDBRANCH  22  23
ENDBRANCH   9  22
TORSDOF 8
ENDMDL
MODEL 2
REMARK VINA RESULT:      -7.6      4.401      9.076
REMARK  Name = 
REMARK  12 active torsions:
REMARK  status: ('A' for Active; 'I' for Inactive)
REMARK    1  A    between atoms: C_1  and  C_2
REMARK    2  A    between atoms: C_2  and  C_3
REMARK    3  A    between atoms: C_10  and  O_11
REMARK    4  A    between atoms: O_11  and  C_12
REMARK    5  A    between atoms: C_12  and  C_13
REMARK    6  A    between atoms: C_19  and  C_20
REMARK    7  A    between atoms: C_20  and  O_21
REMARK    8  A    between atoms: O_21  and  C_22
REMARK    9  A    between atoms: C_22  and  C_24
REMARK   10  A    between atoms: C_27  and  C_28
REMARK   11  A    between atoms: C_32  and  C_33
REMARK   12  A    between atoms: C_32  and  C_34
REMARK                            x       y       z     vdW  Elec       q    Type
REMARK                         _______ _______ _______ _____ _____    ______ ____
ROOT
ATOM      1  C   UNL     1       1.023   9.201  20.483  0.00  0.00    +0.000 A 
ATOM      2  C   UNL     1       1.112   8.929  21.791  0.00  0.00    +0.000 A 
ATOM      3  C   UNL     1       0.271   9.677  22.730  0.00  0.00    +0.000 A 
ATOM      4  O   UNL     1       0.325   9.462  23.933  0.00  0.00    +0.000 OA
ATOM      5  C   UNL     1      -0.637  10.674  22.143  0.00  0.00    +0.000 A 
ATOM      6  C   UNL     1      -1.509  11.377  22.969  0.00  0.00    +0.000 A 
ATOM      7  C   UNL     1      -2.356  12.336  22.420  0.00  0.00    +0.000 A 
ATOM      8  C   UNL     1      -2.343  12.601  21.042  0.00  0.00    +0.000 A 
ATOM      9  C   UNL     1      -1.463  11.891  20.194  0.00  0.00    +0.000 A 
ATOM     10  C   UNL     1      -0.615  10.913  20.768  0.00  0.00    +0.000 A 
ATOM     11  O   UNL     1       0.229  10.205  19.941  0.00  0.00    +0.000 OA
ENDROOT
BRANCH   1  13
ATOM     12  C   UNL     1       2.166   7.041  20.001  0.00  0.00    +0.000 C 
ATOM     13  C   UNL     1       1.795   8.415  19.462  0.00  0.00    +0.000 C 
ENDBRANCH   1  13
BRANCH   8  14
ATOM     14  O   UNL     1      -3.121  13.577  20.463  0.00  0.00    +0.000 OA
BRANCH  14  15
ATOM     15  C   UNL     1      -4.500  13.607  20.857  0.00  0.00    +0.000 C 
BRANCH  15  16
ATOM     16  C   UNL     1      -5.285  12.549  20.115  0.00  0.00    +0.000 A 
ATOM     17  C   UNL     1      -6.335  11.870  20.749  0.00  0.00    +0.000 A 
ATOM     18  C   UNL     1      -7.072  10.951  20.016  0.00  0.00    +0.000 A 
ATOM     19  N   UNL     1      -6.848  10.673  18.715  0.00  0.00    +0.000 NA
ATOM     20  C   UNL     1      -5.845  11.348  18.117  0.00  0.00    +0.000 A 
ATOM     21  C   UNL     1      -5.054  12.285  18.763  0.00  0.00    +0.000 A 
ENDBRANCH  15  16
ENDBRANCH  14  15
ENDBRANCH   8  14
BRANCH   9  22
ATOM     22  C   UNL     1      -1.409  12.185  18.704  0.00  0.00    +0.000 C 
BRANCH  22  23
ATOM     23  O   UNL     1      -0.734  13.426  18.398  0.00  0.00    +0.000 OA
BRANCH  23  24
ATOM     24  C   UNL     1       0.580  13.521  18.742  0.00  0.00    +0.000 C 
ATOM     25  O   UNL     1       1.470  12.818  18.278  0.00  0.00    +0.000 OA
BRANCH  24  26
ATOM     26  C   UNL     1       0.804  14.597  19.825  0.00  0.00    +0.000 C 
ATOM     27  C   UNL     1       1.276  14.031  21.187  0.00  0.00    +0.000 C 
ATOM     28  C   UNL     1       1.850  15.278  21.885  0.00  0.00    +0.000 C 
ATOM     29  C   UNL     1       1.620  16.380  20.829  0.00  0.00    +0.000 C 
ATOM     30  C   UNL     1       2.373  17.668  21.081  0.00  0.00    +0.000 C 
ATOM     31  C   UNL     1       0.102  16.515  20.798  0.00  0.00    +0.000 C 
ATOM     32  O   UNL     1      -0.590  17.379  21.290  0.00  0.00    +0.000 OA
ATOM     33  O   UNL     1      -0.361  15.395  20.129  0.00  0.00    +0.000 OA
ATOM     34  C   UNL     1       1.845  15.680  19.468  0.00  0.00    +0.000 C 
ATOM     35  C   UNL     1       1.470  16.562  18.254  0.00  0.00    +0.000 C 
ATOM     36  C   UNL     1       3.277  15.167  19.244  0.00  0.00    +0.000 C 
ENDBRANCH  24  26
ENDBRANCH  23  24
ENDBRANCH  22  23
ENDBRANCH   9  22
TORSDOF 8
ENDMDL
MODEL 3
REMARK VINA RESULT:      -7.5      1.004      1.476
REMARK  Name = 
REMARK  12 active torsions:
REMARK  status: ('A' for Active; 'I' for Inactive)
REMARK    1  A    between atoms: C_1  and  C_2
REMARK    2  A    between atoms: C_2  and  C_3
REMARK    3  A    between atoms: C_10  and  O_11
REMARK    4  A    between atoms: O_11  and  C_12
REMARK    5  A    between atoms: C_12  and  C_13
REMARK    6  A    between atoms: C_19  and  C_20
REMARK    7  A    between atoms: C_20  and  O_21
REMARK    8  A    between atoms: O_21  and  C_22
REMARK    9  A    between atoms: C_22  and  C_24
REMARK   10  A    between atoms: C_27  and  C_28
REMARK   11  A    between atoms: C_32  and  C_33
REMARK   12  A    between atoms: C_32  and  C_34
REMARK                            x       y       z     vdW  Elec       q    Type
REMARK                         _______ _______ _______ _____ _____    ______ ____
ROOT
ATOM      1  C   UNL     1      -0.300  12.238  19.393  0.00  0.00    +0.000 A 
ATOM      2  C   UNL     1      -0.730  12.615  20.604  0.00  0.00    +0.000 A 
ATOM      3  C   UNL     1      -0.574  11.693  21.732  0.00  0.00    +0.000 A 
ATOM      4  O   UNL     1      -0.957  11.997  22.853  0.00  0.00    +0.000 OA
ATOM      5  C   UNL     1       0.077  10.407  21.439  0.00  0.00    +0.000 A 
ATOM      6  C   UNL     1       0.315   9.508  22.475  0.00  0.00    +0.000 A 
ATOM      7  C   UNL     1       0.913   8.281  22.198  0.00  0.00    +0.000 A 
ATOM      8  C   UNL     1       1.281   7.941  20.888  0.00  0.00    +0.000 A 
ATOM      9  C   UNL     1       1.045   8.847  19.829  0.00  0.00    +0.000 A 
ATOM     10  C   UNL     1       0.445  10.094  20.130  0.00  0.00    +0.000 A 
ATOM     11  O   UNL     1       0.233  10.987  19.104  0.00  0.00    +0.000 OA
ENDROOT
BRANCH   1  13
ATOM     12  C   UNL     1       0.119  14.562  18.598  0.00  0.00    +0.000 C 
ATOM     13  C   UNL     1      -0.355  13.167  18.214  0.00  0.00    +0.000 C 
ENDBRANCH   1  13
BRANCH   8  14
ATOM     14  O   UNL     1       1.822   6.720  20.559  0.00  0.00    +0.000 OA
BRANCH  14  15
ATOM     15  C   UNL     1       1.178   5.567  21.121  0.00  0.00    +0.000 C 
BRANCH  15  16
ATOM     16  C   UNL     1       1.719   4.302  20.495  0.00  0.00    +0.000 A 
ATOM     17  C   UNL     1       0.979   3.621  19.519  0.00  0.00    +0.000 A 
ATOM     18  C   UNL     1       1.536   2.499  18.922  0.00  0.00    +0.000 A 
ATOM     19  N   UNL     1       2.763   2.021  19.218  0.00  0.00    +0.000 NA
ATOM     20  C   UNL     1       3.468   2.699  20.147  0.00  0.00    +0.000 A 
ATOM     21  C   UNL     1       2.999   3.830  20.797  0.00  0.00    +0.000 A 
ENDBRANCH  15  16
ENDBRANCH  14  15
ENDBRANCH   8  14
BRANCH   9  22
ATOM     22  C   UNL     1       1.405   8.485  18.397  0.00  0.00    +0.000 C 
BRANCH  22  23
ATOM     23  O   UNL     1       2.270   7.331  18.308  0.00  0.00    +0.000 OA
BRANCH  23  24
ATOM     24  C   UNL     1       3.338   7.418  17.466  0.00  0.00    +0.000 C 
ATOM     25  O   UNL     1       3.495   8.306  16.637  0.00  0.00    +0.000 OA
BRANCH  24  26
ATOM     26  C   UNL     1       4.305   6.231  17.657  0.00  0.00    +0.000 C 
ATOM     27  C   UNL     1       3.703   4.859  17.265  0.00  0.00    +0.000 C 
ATOM     28  C   UNL     1       4.957   3.978  17.104  0.00  0.00    +0.000 C 
ATOM     29  C   UNL     1       6.096   4.968  17.431  0.00  0.00    +0.000 C 
ATOM     30  C   UNL     1       7.479   4.493  17.044  0.00  0.00    +0.000 C 
ATOM     31  C   UNL     1       5.899   5.239  18.918  0.00  0.00    +0.000 C 
ATOM     32  O   UNL     1       6.529   4.801  19.856  0.00  0.00    +0.000 OA
ATOM     33  O   UNL     1       4.790   6.062  19.007  0.00  0.00    +0.000 OA
ATOM     34  C   UNL     1       5.622   6.324  16.857  0.00  0.00    +0.000 C 
ATOM     35  C   UNL     1       6.535   7.509  17.250  0.00  0.00    +0.000 C 
ATOM     36  C   UNL     1       5.463   6.348  15.328  0.00  0.00    +0.000 C 
ENDBRANCH  24  26
ENDBRANCH  23  24
ENDBRANCH  22  23
ENDBRANCH   9  22
TORSDOF 8
ENDMDL
MODEL 4
REMARK VINA RESULT:      -7.5      2.987      7.554
REMARK  Name = 
REMARK  12 active torsions:
REMARK  status: ('A' for Active; 'I' for Inactive)
REMARK    1  A    between atoms: C_1  and  C_2
REMARK    2  A    between atoms: C_2  and  C_3
REMARK    3  A    between atoms: C_10  and  O_11
REMARK    4  A    between atoms: O_11  and  C_12
REMARK    5  A    between atoms: C_12  and  C_13
REMARK    6  A    between atoms: C_19  and  C_20
REMARK    7  A    between atoms: C_20  and  O_21
REMARK    8  A    between atoms: O_21  and  C_22
REMARK    9  A    between atoms: C_22  and  C_24
REMARK   10  A    between atoms: C_27  and  C_28
REMARK   11  A    between atoms: C_32  and  C_33
REMARK   12  A    between atoms: C_32  and  C_34
REMARK                            x       y       z     vdW  Elec       q    Type
REMARK                         _______ _______ _______ _____ _____    ______ ____
ROOT
ATOM      1  C   UNL     1      -2.975  12.922  20.674  0.00  0.00    +0.000 A 
ATOM      2  C   UNL     1      -3.891  12.686  19.726  0.00  0.00    +0.000 A 
ATOM      3  C   UNL     1      -3.561  11.768  18.633  0.00  0.00    +0.000 A 
ATOM      4  O   UNL     1      -4.368  11.530  17.745  0.00  0.00    +0.000 OA
ATOM      5  C   UNL     1      -2.228  11.149  18.679  0.00  0.00    +0.000 A 
ATOM      6  C   UNL     1      -1.871  10.218  17.707  0.00  0.00    +0.000 A 
ATOM      7  C   UNL     1      -0.602   9.645  17.736  0.00  0.00    +0.000 A 
ATOM      8  C   UNL     1       0.320   9.992  18.734  0.00  0.00    +0.000 A 
ATOM      9  C   UNL     1      -0.033  10.935  19.726  0.00  0.00    +0.000 A 
ATOM     10  C   UNL     1      -1.331  11.501  19.688  0.00  0.00    +0.000 A 
ATOM     11  O   UNL     1      -1.685  12.403  20.665  0.00  0.00    +0.000 OA
ENDROOT
BRANCH   1  13
ATOM     12  C   UNL     1      -4.387  13.177  22.711  0.00  0.00    +0.000 C 
ATOM     13  C   UNL     1      -3.279  13.787  21.864  0.00  0.00    +0.000 C 
ENDBRANCH   1  13
BRANCH   8  14
ATOM     14  O   UNL     1       1.602   9.495  18.770  0.00  0.00    +0.000 OA
BRANCH  14  15
ATOM     15  C   UNL     1       1.781   8.247  19.454  0.00  0.00    +0.000 C 
BRANCH  15  16
ATOM     16  C   UNL     1       2.563   7.280  18.595  0.00  0.00    +0.000 A 
ATOM     17  C   UNL     1       3.585   7.745  17.756  0.00  0.00    +0.000 A 
ATOM     18  C   UNL     1       4.323   6.821  17.030  0.00  0.00    +0.000 A 
ATOM     19  N   UNL     1       4.124   5.488  17.087  0.00  0.00    +0.000 NA
ATOM     20  C   UNL     1       3.148   5.057  17.912  0.00  0.00    +0.000 A 
ATOM     21  C   UNL     1       2.359   5.901  18.679  0.00  0.00    +0.000 A 
ENDBRANCH  15  16
ENDBRANCH  14  15
ENDBRANCH   8  14
BRANCH   9  22
ATOM     22  C   UNL     1       0.962  11.351  20.798  0.00  0.00    +0.000 C 
BRANCH  22  23
ATOM     23  O   UNL     1       1.800  12.456  20.392  0.00  0.00    +0.000 OA
BRANCH  23  24
ATOM     24  C   UNL     1       1.584  13.656  21.000  0.00  0.00    +0.000 C 
ATOM     25  O   UNL     1       1.122  13.787  22.127  0.00  0.00    +0.000 OA
BRANCH  24  26
ATOM     26  C   UNL     1       1.956  14.833  20.075  0.00  0.00    +0.000 C 
ATOM     27  C   UNL     1       2.906  14.446  18.915  0.00  0.00    +0.000 C 
ATOM     28  C   UNL     1       2.733  15.623  17.936  0.00  0.00    +0.000 C 
ATOM     29  C   UNL     1       1.716  16.518  18.676  0.00  0.00    +0.000 C 
ATOM     30  C   UNL     1       1.088  17.601  17.828  0.00  0.00    +0.000 C 
ATOM     31  C   UNL     1       2.509  17.018  19.878  0.00  0.00    +0.000 C 
ATOM     32  O   UNL     1       3.012  18.106  20.052  0.00  0.00    +0.000 OA
ATOM     33  O   UNL     1       2.603  15.940  20.742  0.00  0.00    +0.000 OA
ATOM     34  C   UNL     1       0.762  15.531  19.390  0.00  0.00    +0.000 C 
ATOM     35  C   UNL     1      -0.226  16.222  20.358  0.00  0.00    +0.000 C 
ATOM     36  C   UNL     1      -0.062  14.643  18.442  0.00  0.00    +0.000 C 
ENDBRANCH  24  26
ENDBRANCH  23  24
ENDBRANCH  22  23
ENDBRANCH   9  22
TORSDOF 8
ENDMDL
MODEL 5
REMARK VINA RESULT:      -7.5      4.958      9.320
REMARK  Name = 
REMARK  12 active torsions:
REMARK  status: ('A' for Active; 'I' for Inactive)
REMARK    1  A    between atoms: C_1  and  C_2
REMARK    2  A    between atoms: C_2  and  C_3
REMARK    3  A    between atoms: C_10  and  O_11
REMARK    4  A    between atoms: O_11  and  C_12
REMARK    5  A    between atoms: C_12  and  C_13
REMARK    6  A    between atoms: C_19  and  C_20
REMARK    7  A    between atoms: C_20  and  O_21
REMARK    8  A    between atoms: O_21  and  C_22
REMARK    9  A    between atoms: C_22  and  C_24
REMARK   10  A    between atoms: C_27  and  C_28
REMARK   11  A    between atoms: C_32  and  C_33
REMARK   12  A    between atoms: C_32  and  C_34
REMARK                            x       y       z     vdW  Elec       q    Type
REMARK                         _______ _______ _______ _____ _____    ______ ____
ROOT
ATOM      1  C   UNL     1       1.062   9.103  20.584  0.00  0.00    +0.000 A 
ATOM      2  C   UNL     1       1.166   8.871  21.899  0.00  0.00    +0.000 A 
ATOM      3  C   UNL     1       0.334   9.645  22.825  0.00  0.00    +0.000 A 
ATOM      4  O   UNL     1       0.403   9.466  24.033  0.00  0.00    +0.000 OA
ATOM      5  C   UNL     1      -0.584  10.620  22.219  0.00  0.00    +0.000 A 
ATOM      6  C   UNL     1      -1.449  11.346  23.034  0.00  0.00    +0.000 A 
ATOM      7  C   UNL     1      -2.305  12.285  22.466  0.00  0.00    +0.000 A 
ATOM      8  C   UNL     1      -2.309  12.508  21.081  0.00  0.00    +0.000 A 
ATOM      9  C   UNL     1      -1.436  11.776  20.244  0.00  0.00    +0.000 A 
ATOM     10  C   UNL     1      -0.579  10.818  20.838  0.00  0.00    +0.000 A 
ATOM     11  O   UNL     1       0.258  10.088  20.023  0.00  0.00    +0.000 OA
ENDROOT
BRANCH   1  13
ATOM     12  C   UNL     1       1.801   8.953  18.210  0.00  0.00    +0.000 C 
ATOM     13  C   UNL     1       1.824   8.289  19.579  0.00  0.00    +0.000 C 
ENDBRANCH   1  13
BRANCH   8  14
ATOM     14  O   UNL     1      -3.097  13.464  20.482  0.00  0.00    +0.000 OA
BRANCH  14  15
ATOM     15  C   UNL     1      -4.404  13.042  20.069  0.00  0.00    +0.000 C 
BRANCH  15  16
ATOM     16  C   UNL     1      -5.401  13.239  21.188  0.00  0.00    +0.000 A 
ATOM     17  C   UNL     1      -5.322  14.366  22.018  0.00  0.00    +0.000 A 
ATOM     18  C   UNL     1      -6.292  14.545  22.994  0.00  0.00    +0.000 A 
ATOM     19  N   UNL     1      -7.324  13.700  23.192  0.00  0.00    +0.000 NA
ATOM     20  C   UNL     1      -7.395  12.630  22.373  0.00  0.00    +0.000 A 
ATOM     21  C   UNL     1      -6.476  12.366  21.369  0.00  0.00    +0.000 A 
ENDBRANCH  15  16
ENDBRANCH  14  15
ENDBRANCH   8  14
BRANCH   9  22
ATOM     22  C   UNL     1      -1.401  12.025  18.745  0.00  0.00    +0.000 C 
BRANCH  22  23
ATOM     23  O   UNL     1      -0.809  13.297  18.399  0.00  0.00    +0.000 OA
BRANCH  23  24
ATOM     24  C   UNL     1       0.541  13.414  18.542  0.00  0.00    +0.000 C 
ATOM     25  O   UNL     1       1.340  12.509  18.339  0.00  0.00    +0.000 OA
BRANCH  24  26
ATOM     26  C   UNL     1       0.936  14.822  19.035  0.00  0.00    +0.000 C 
ATOM     27  C   UNL     1      -0.257  15.801  19.166  0.00  0.00    +0.000 C 
ATOM     28  C   UNL     1       0.315  16.903  20.077  0.00  0.00    +0.000 C 
ATOM     29  C   UNL     1       1.752  16.402  20.335  0.00  0.00    +0.000 C 
ATOM     30  C   UNL     1       2.475  17.102  21.465  0.00  0.00    +0.000 C 
ATOM     31  C   UNL     1       2.412  16.535  18.967  0.00  0.00    +0.000 C 
ATOM     32  O   UNL     1       3.187  17.382  18.581  0.00  0.00    +0.000 OA
ATOM     33  O   UNL     1       1.898  15.503  18.200  0.00  0.00    +0.000 OA
ATOM     34  C   UNL     1       1.629  14.863  20.414  0.00  0.00    +0.000 C 
ATOM     35  C   UNL     1       2.995  14.140  20.472  0.00  0.00    +0.000 C 
ATOM     36  C   UNL     1       0.783  14.350  21.591  0.00  0.00    +0.000 C 
ENDBRANCH  24  26
ENDBRANCH  23  24
ENDBRANCH  22  23
ENDBRANCH   9  22
TORSDOF 8
ENDMDL
MODEL 6
REMARK VINA RESULT:      -7.5      1.177      1.452
REMARK  Name = 
REMARK  12 active torsions:
REMARK  status: ('A' for Active; 'I' for Inactive)
REMARK    1  A    between atoms: C_1  and  C_2
REMARK    2  A    between atoms: C_2  and  C_3
REMARK    3  A    between atoms: C_10  and  O_11
REMARK    4  A    between atoms: O_11  and  C_12
REMARK    5  A    between atoms: C_12  and  C_13
REMARK    6  A    between atoms: C_19  and  C_20
REMARK    7  A    between atoms: C_20  and  O_21
REMARK    8  A    between atoms: O_21  and  C_22
REMARK    9  A    between atoms: C_22  and  C_24
REMARK   10  A    between atoms: C_27  and  C_28
REMARK   11  A    between atoms: C_32  and  C_33
REMARK   12  A    between atoms: C_32  and  C_34
REMARK                            x       y       z     vdW  Elec       q    Type
REMARK                         _______ _______ _______ _____ _____    ______ ____
ROOT
ATOM      1  C   UNL     1       1.567  12.778  19.215  0.00  0.00    +0.000 A 
ATOM      2  C   UNL     1       0.993  13.309  20.303  0.00  0.00    +0.000 A 
ATOM      3  C   UNL     1       0.474  12.413  21.339  0.00  0.00    +0.000 A 
ATOM      4  O   UNL     1      -0.062  12.857  22.346  0.00  0.00    +0.000 OA
ATOM      5  C   UNL     1       0.648  10.972  21.105  0.00  0.00    +0.000 A 
ATOM      6  C   UNL     1       0.235  10.064  22.077  0.00  0.00    +0.000 A 
ATOM      7  C   UNL     1       0.380   8.698  21.850  0.00  0.00    +0.000 A 
ATOM      8  C   UNL     1       0.941   8.225  20.654  0.00  0.00    +0.000 A 
ATOM      9  C   UNL     1       1.364   9.137  19.662  0.00  0.00    +0.000 A 
ATOM     10  C   UNL     1       1.219  10.523  19.913  0.00  0.00    +0.000 A 
ATOM     11  O   UNL     1       1.650  11.415  18.957  0.00  0.00    +0.000 OA
ENDROOT
BRANCH   1  13
ATOM     12  C   UNL     1       2.276  15.090  18.614  0.00  0.00    +0.000 C 
ATOM     13  C   UNL     1       2.193  13.641  18.157  0.00  0.00    +0.000 C 
ENDBRANCH   1  13
BRANCH   8  14
ATOM     14  O   UNL     1       1.052   6.885  20.363  0.00  0.00    +0.000 OA
BRANCH  14  15
ATOM     15  C   UNL     1       1.857   6.105  21.258  0.00  0.00    +0.000 C 
BRANCH  15  16
ATOM     16  C   UNL     1       1.726   4.633  20.940  0.00  0.00    +0.000 A 
ATOM     17  C   UNL     1       0.845   4.199  19.940  0.00  0.00    +0.000 A 
ATOM     18  C   UNL     1       0.798   2.847  19.633  0.00  0.00    +0.000 A 
ATOM     19  N   UNL     1       1.562   1.912  20.236  0.00  0.00    +0.000 NA
ATOM     20  C   UNL     1       2.416   2.349  21.184  0.00  0.00    +0.000 A 
ATOM     21  C   UNL     1       2.537   3.678  21.558  0.00  0.00    +0.000 A 
ENDBRANCH  15  16
ENDBRANCH  14  15
ENDBRANCH   8  14
BRANCH   9  22
ATOM     22  C   UNL     1       1.944   8.645  18.345  0.00  0.00    +0.000 C 
BRANCH  22  23
ATOM     23  O   UNL     1       3.044   7.725  18.522  0.00  0.00    +0.000 OA
BRANCH  23  24
ATOM     24  C   UNL     1       2.933   6.502  17.932  0.00  0.00    +0.000 C 
ATOM     25  O   UNL     1       1.937   6.107  17.340  0.00  0.00    +0.000 OA
BRANCH  24  26
ATOM     26  C   UNL     1       4.207   5.657  18.142  0.00  0.00    +0.000 C 
ATOM     27  C   UNL     1       3.960   4.128  18.109  0.00  0.00    +0.000 C 
ATOM     28  C   UNL     1       5.375   3.567  17.874  0.00  0.00    +0.000 C 
ATOM     29  C   UNL     1       6.230   4.851  17.811  0.00  0.00    +0.000 C 
ATOM     30  C   UNL     1       7.627   4.657  17.263  0.00  0.00    +0.000 C 
ATOM     31  C   UNL     1       6.165   5.377  19.240  0.00  0.00    +0.000 C 
ATOM     32  O   UNL     1       7.010   5.317  20.106  0.00  0.00    +0.000 OA
ATOM     33  O   UNL     1       4.893   5.904  19.389  0.00  0.00    +0.000 OA
ATOM     34  C   UNL     1       5.329   5.895  17.110  0.00  0.00    +0.000 C 
ATOM     35  C   UNL     1       5.923   7.323  17.119  0.00  0.00    +0.000 C 
ATOM     36  C   UNL     1       4.969   5.553  15.655  0.00  0.00    +0.000 C 
ENDBRANCH  24  26
ENDBRANCH  23  24
ENDBRANCH  22  23
ENDBRANCH   9  22
TORSDOF 8
ENDMDL
MODEL 7
REMARK VINA RESULT:      -7.4      3.217      7.979
REMARK  Name = 
REMARK  12 active torsions:
REMARK  status: ('A' for Active; 'I' for Inactive)
REMARK    1  A    between atoms: C_1  and  C_2
REMARK    2  A    between atoms: C_2  and  C_3
REMARK    3  A    between atoms: C_10  and  O_11
REMARK    4  A    between atoms: O_11  and  C_12
REMARK    5  A    between atoms: C_12  and  C_13
REMARK    6  A    between atoms: C_19  and  C_20
REMARK    7  A    between atoms: C_20  and  O_21
REMARK    8  A    between atoms: O_21  and  C_22
REMARK    9  A    between atoms: C_22  and  C_24
REMARK   10  A    between atoms: C_27  and  C_28
REMARK   11  A    between atoms: C_32  and  C_33
REMARK   12  A    between atoms: C_32  and  C_34
REMARK                            x       y       z     vdW  Elec       q    Type
REMARK                         _______ _______ _______ _____ _____    ______ ____
ROOT
ATOM      1  C   UNL     1      -3.738  12.817  20.535  0.00  0.00    +0.000 A 
ATOM      2  C   UNL     1      -4.539  12.517  19.504  0.00  0.00    +0.000 A 
ATOM      3  C   UNL     1      -4.016  11.680  18.421  0.00  0.00    +0.000 A 
ATOM      4  O   UNL     1      -4.713  11.387  17.459  0.00  0.00    +0.000 OA
ATOM      5  C   UNL     1      -2.631  11.210  18.567  0.00  0.00    +0.000 A 
ATOM      6  C   UNL     1      -2.089  10.359  17.608  0.00  0.00    +0.000 A 
ATOM      7  C   UNL     1      -0.772   9.928  17.733  0.00  0.00    +0.000 A 
ATOM      8  C   UNL     1       0.018  10.339  18.818  0.00  0.00    +0.000 A 
ATOM      9  C   UNL     1      -0.522  11.201  19.799  0.00  0.00    +0.000 A 
ATOM     10  C   UNL     1      -1.867  11.621  19.661  0.00  0.00    +0.000 A 
ATOM     11  O   UNL     1      -2.402  12.444  20.627  0.00  0.00    +0.000 OA
ENDROOT
BRANCH   1  13
ATOM     12  C   UNL     1      -5.544  14.308  21.386  0.00  0.00    +0.000 C 
ATOM     13  C   UNL     1      -4.238  13.600  21.716  0.00  0.00    +0.000 C 
ENDBRANCH   1  13
BRANCH   8  14
ATOM     14  O   UNL     1       1.340   9.984  18.954  0.00  0.00    +0.000 OA
BRANCH  14  15
ATOM     15  C   UNL     1       1.937   9.316  17.834  0.00  0.00    +0.000 C 
BRANCH  15  16
ATOM     16  C   UNL     1       2.581   8.021  18.272  0.00  0.00    +0.000 A 
ATOM     17  C   UNL     1       2.159   7.381  19.446  0.00  0.00    +0.000 A 
ATOM     18  C   UNL     1       2.729   6.162  19.783  0.00  0.00    +0.000 A 
ATOM     19  N   UNL     1       3.668   5.540  19.040  0.00  0.00    +0.000 NA
ATOM     20  C   UNL     1       4.049   6.161  17.905  0.00  0.00    +0.000 A 
ATOM     21  C   UNL     1       3.537   7.378  17.483  0.00  0.00    +0.000 A 
ENDBRANCH  15  16
ENDBRANCH  14  15
ENDBRANCH   8  14
BRANCH   9  22
ATOM     22  C   UNL     1       0.325  11.684  20.965  0.00  0.00    +0.000 C 
BRANCH  22  23
ATOM     23  O   UNL     1       0.363  13.124  21.076  0.00  0.00    +0.000 OA
BRANCH  23  24
ATOM     24  C   UNL     1       1.530  13.744  20.742  0.00  0.00    +0.000 C 
ATOM     25  O   UNL     1       2.636  13.393  21.133  0.00  0.00    +0.000 OA
BRANCH  24  26
ATOM     26  C   UNL     1       1.280  14.971  19.841  0.00  0.00    +0.000 C 
ATOM     27  C   UNL     1       0.009  14.860  18.964  0.00  0.00    +0.000 C 
ATOM     28  C   UNL     1      -0.244  16.324  18.556  0.00  0.00    +0.000 C 
ATOM     29  C   UNL     1       0.918  17.063  19.253  0.00  0.00    +0.000 C 
ATOM     30  C   UNL     1       0.767  18.567  19.316  0.00  0.00    +0.000 C 
ATOM     31  C   UNL     1       2.144  16.569  18.493  0.00  0.00    +0.000 C 
ATOM     32  O   UNL     1       2.792  17.146  17.647  0.00  0.00    +0.000 OA
ATOM     33  O   UNL     1       2.353  15.269  18.921  0.00  0.00    +0.000 OA
ATOM     34  C   UNL     1       1.124  16.312  20.589  0.00  0.00    +0.000 C 
ATOM     35  C   UNL     1       2.381  16.771  21.364  0.00  0.00    +0.000 C 
ATOM     36  C   UNL     1      -0.070  16.391  21.555  0.00  0.00    +0.000 C 
ENDBRANCH  24  26
ENDBRANCH  23  24
ENDBRANCH  22  23
ENDBRANCH   9  22
TORSDOF 8
ENDMDL
MODEL 8
REMARK VINA RESULT:      -7.4      4.861      8.895
REMARK  Name = 
REMARK  12 active torsions:
REMARK  status: ('A' for Active; 'I' for Inactive)
REMARK    1  A    between atoms: C_1  and  C_2
REMARK    2  A    between atoms: C_2  and  C_3
REMARK    3  A    between atoms: C_10  and  O_11
REMARK    4  A    between atoms: O_11  and  C_12
REMARK    5  A    between atoms: C_12  and  C_13
REMARK    6  A    between atoms: C_19  and  C_20
REMARK    7  A    between atoms: C_20  and  O_21
REMARK    8  A    between atoms: O_21  and  C_22
REMARK    9  A    between atoms: C_22  and  C_24
REMARK   10  A    between atoms: C_27  and  C_28
REMARK   11  A    between atoms: C_32  and  C_33
REMARK   12  A    between atoms: C_32  and  C_34
REMARK                            x       y       z     vdW  Elec       q    Type
REMARK                         _______ _______ _______ _____ _____    ______ ____
ROOT
ATOM      1  C   UNL     1       0.935   9.928  19.319  0.00  0.00    +0.000 A 
ATOM      2  C   UNL     1       1.254   9.010  20.240  0.00  0.00    +0.000 A 
ATOM      3  C   UNL     1       0.672   9.117  21.580  0.00  0.00    +0.000 A 
ATOM      4  O   UNL     1       0.942   8.302  22.451  0.00  0.00    +0.000 OA
ATOM      5  C   UNL     1      -0.252  10.238  21.804  0.00  0.00    +0.000 A 
ATOM      6  C   UNL     1      -0.891  10.366  23.034  0.00  0.00    +0.000 A 
ATOM      7  C   UNL     1      -1.751  11.438  23.256  0.00  0.00    +0.000 A 
ATOM      8  C   UNL     1      -1.986  12.390  22.253  0.00  0.00    +0.000 A 
ATOM      9  C   UNL     1      -1.344  12.269  20.999  0.00  0.00    +0.000 A 
ATOM     10  C   UNL     1      -0.480  11.168  20.788  0.00  0.00    +0.000 A 
ATOM     11  O   UNL     1       0.131  11.036  19.560  0.00  0.00    +0.000 OA
ENDROOT
BRANCH   1  13
ATOM     12  C   UNL     1       2.301   8.594  17.718  0.00  0.00    +0.000 C 
ATOM     13  C   UNL     1       1.431   9.829  17.905  0.00  0.00    +0.000 C 
ENDBRANCH   1  13
BRANCH   8  14
ATOM     14  O   UNL     1      -2.783  13.494  22.445  0.00  0.00    +0.000 OA
BRANCH  14  15
ATOM     15  C   UNL     1      -3.660  13.455  23.580  0.00  0.00    +0.000 C 
BRANCH  15  16
ATOM     16  C   UNL     1      -5.066  13.106  23.150  0.00  0.00    +0.000 A 
ATOM     17  C   UNL     1      -5.385  12.996  21.790  0.00  0.00    +0.000 A 
ATOM     18  C   UNL     1      -6.670  12.612  21.435  0.00  0.00    +0.000 A 
ATOM     19  N   UNL     1      -7.642  12.324  22.326  0.00  0.00    +0.000 NA
ATOM     20  C   UNL     1      -7.312  12.418  23.631  0.00  0.00    +0.000 A 
ATOM     21  C   UNL     1      -6.057  12.791  24.084  0.00  0.00    +0.000 A 
ENDBRANCH  15  16
ENDBRANCH  14  15
ENDBRANCH   8  14
BRANCH   9  22
ATOM     22  C   UNL     1      -1.558  13.308  19.910  0.00  0.00    +0.000 C 
BRANCH  22  23
ATOM     23  O   UNL     1      -0.908  14.567  20.195  0.00  0.00    +0.000 OA
BRANCH  23  24
ATOM     24  C   UNL     1      -0.104  15.086  19.226  0.00  0.00    +0.000 C 
ATOM     25  O   UNL     1      -0.497  15.791  18.305  0.00  0.00    +0.000 OA
BRANCH  24  26
ATOM     26  C   UNL     1       1.361  14.638  19.408  0.00  0.00    +0.000 C 
ATOM     27  C   UNL     1       1.839  13.605  18.358  0.00  0.00    +0.000 C 
ATOM     28  C   UNL     1       3.372  13.696  18.475  0.00  0.00    +0.000 C 
ATOM     29  C   UNL     1       3.554  14.762  19.577  0.00  0.00    +0.000 C 
ATOM     30  C   UNL     1       4.956  15.317  19.697  0.00  0.00    +0.000 C 
ATOM     31  C   UNL     1       3.028  14.059  20.823  0.00  0.00    +0.000 C 
ATOM     32  O   UNL     1       3.657  13.565  21.734  0.00  0.00    +0.000 OA
ATOM     33  O   UNL     1       1.651  14.038  20.690  0.00  0.00    +0.000 OA
ATOM     34  C   UNL     1       2.406  15.772  19.347  0.00  0.00    +0.000 C 
ATOM     35  C   UNL     1       2.282  16.827  20.471  0.00  0.00    +0.000 C 
ATOM     36  C   UNL     1       2.479  16.527  18.009  0.00  0.00    +0.000 C 
ENDBRANCH  24  26
ENDBRANCH  23  24
ENDBRANCH  22  23
ENDBRANCH   9  22
TORSDOF 8
ENDMDL
MODEL 9
REMARK VINA RESULT:      -7.3      2.899      7.102
REMARK  Name = 
REMARK  12 active torsions:
REMARK  status: ('A' for Active; 'I' for Inactive)
REMARK    1  A    between atoms: C_1  and  C_2
REMARK    2  A    between atoms: C_2  and  C_3
REMARK    3  A    between atoms: C_10  and  O_11
REMARK    4  A    between atoms: O_11  and  C_12
REMARK    5  A    between atoms: C_12  and  C_13
REMARK    6  A    between atoms: C_19  and  C_20
REMARK    7  A    between atoms: C_20  and  O_21
REMARK    8  A    between atoms: O_21  and  C_22
REMARK    9  A    between atoms: C_22  and  C_24
REMARK   10  A    between atoms: C_27  and  C_28
REMARK   11  A    between atoms: C_32  and  C_33
REMARK   12  A    between atoms: C_32  and  C_34
REMARK                            x       y       z     vdW  Elec       q    Type
REMARK                         _______ _______ _______ _____ _____    ______ ____
ROOT
ATOM      1  C   UNL     1      -3.615  12.529  20.051  0.00  0.00    +0.000 A 
ATOM      2  C   UNL     1      -4.106  12.336  18.820  0.00  0.00    +0.000 A 
ATOM      3  C   UNL     1      -3.346  11.515  17.873  0.00  0.00    +0.000 A 
ATOM      4  O   UNL     1      -3.758  11.318  16.738  0.00  0.00    +0.000 OA
ATOM      5  C   UNL     1      -2.087  10.941  18.370  0.00  0.00    +0.000 A 
ATOM      6  C   UNL     1      -1.344  10.100  17.546  0.00  0.00    +0.000 A 
ATOM      7  C   UNL     1      -0.142   9.571  18.006  0.00  0.00    +0.000 A 
ATOM      8  C   UNL     1       0.331   9.872  19.292  0.00  0.00    +0.000 A 
ATOM      9  C   UNL     1      -0.416  10.724  20.137  0.00  0.00    +0.000 A 
ATOM     10  C   UNL     1      -1.642  11.245  19.657  0.00  0.00    +0.000 A 
ATOM     11  O   UNL     1      -2.382  12.058  20.487  0.00  0.00    +0.000 OA
ENDROOT
BRANCH   1  13
ATOM     12  C   UNL     1      -5.831  13.487  20.667  0.00  0.00    +0.000 C 
ATOM     13  C   UNL     1      -4.383  13.290  21.093  0.00  0.00    +0.000 C 
ENDBRANCH   1  13
BRANCH   8  14
ATOM     14  O   UNL     1       1.539   9.418  19.768  0.00  0.00    +0.000 OA
BRANCH  14  15
ATOM     15  C   UNL     1       1.510   8.186  20.501  0.00  0.00    +0.000 C 
BRANCH  15  16
ATOM     16  C   UNL     1       2.206   7.092  19.723  0.00  0.00    +0.000 A 
ATOM     17  C   UNL     1       2.160   5.765  20.171  0.00  0.00    +0.000 A 
ATOM     18  C   UNL     1       2.756   4.779  19.397  0.00  0.00    +0.000 A 
ATOM     19  N   UNL     1       3.377   5.018  18.223  0.00  0.00    +0.000 NA
ATOM     20  C   UNL     1       3.397   6.298  17.799  0.00  0.00    +0.000 A 
ATOM     21  C   UNL     1       2.828   7.350  18.500  0.00  0.00    +0.000 A 
ENDBRANCH  15  16
ENDBRANCH  14  15
ENDBRANCH   8  14
BRANCH   9  22
ATOM     22  C   UNL     1       0.093  11.091  21.522  0.00  0.00    +0.000 C 
BRANCH  22  23
ATOM     23  O   UNL     1       1.188  12.033  21.489  0.00  0.00    +0.000 OA
BRANCH  23  24
ATOM     24  C   UNL     1       0.870  13.352  21.361  0.00  0.00    +0.000 C 
ATOM     25  O   UNL     1      -0.039  13.906  21.966  0.00  0.00    +0.000 OA
BRANCH  24  26
ATOM     26  C   UNL     1       1.772  14.052  20.324  0.00  0.00    +0.000 C 
ATOM     27  C   UNL     1       2.255  13.124  19.181  0.00  0.00    +0.000 C 
ATOM     28  C   UNL     1       2.705  14.129  18.104  0.00  0.00    +0.000 C 
ATOM     29  C   UNL     1       2.422  15.486  18.783  0.00  0.00    +0.000 C 
ATOM     30  C   UNL     1       2.453  16.680  17.854  0.00  0.00    +0.000 C 
ATOM     31  C   UNL     1       3.442  15.523  19.915  0.00  0.00    +0.000 C 
ATOM     32  O   UNL     1       4.480  16.144  19.976  0.00  0.00    +0.000 OA
ATOM     33  O   UNL     1       2.974  14.637  20.871  0.00  0.00    +0.000 OA
ATOM     34  C   UNL     1       1.132  15.259  19.605  0.00  0.00    +0.000 C 
ATOM     35  C   UNL     1       0.775  16.446  20.529  0.00  0.00    +0.000 C 
ATOM     36  C   UNL     1      -0.113  14.937  18.762  0.00  0.00    +0.000 C 
ENDBRANCH  24  26
ENDBRANCH  23  24
ENDBRANCH  22  23
ENDBRANCH   9  22
TORSDOF 8
ENDMDL
