MODEL 1
REMARK VINA RESULT:      -7.7      0.000      0.000
REMARK  Name = 
REMARK  5 active torsions:
REMARK  status: ('A' for Active; 'I' for Inactive)
REMARK    1  A    between atoms: C_2  and  N_3
REMARK    2  A    between atoms: C_2  and  N_12
REMARK    3  A    between atoms: N_3  and  C_4
REMARK    4  A    between atoms: C_4  and  C_5
REMARK    5  A    between atoms: N_12  and  C_13
REMARK                            x       y       z     vdW  Elec       q    Type
REMARK                         _______ _______ _______ _____ _____    ______ ____
ROOT
ATOM      1  S   UNL     1       1.574   8.929  18.529  0.00  0.00    +0.000 S 
ATOM      2  C   UNL     1       2.679   7.684  18.378  0.00  0.00    +0.000 C 
ENDROOT
BRANCH   2   3
ATOM      3  N   UNL     1       3.568   7.522  17.369  0.00  0.00    +0.000 N 
ATOM      4  H   UNL     1       3.228   7.055  16.550  0.00  0.00    +0.000 HD
BRANCH   3   5
ATOM      5  C   UNL     1       5.022   7.485  17.502  0.00  0.00    +0.000 C 
BRANCH   5   6
ATOM      6  C   UNL     1       5.608   6.222  16.927  0.00  0.00    +0.000 A 
ATOM      7  C   UNL     1       4.886   5.534  15.934  0.00  0.00    +0.000 A 
ATOM      8  C   UNL     1       5.392   4.368  15.354  0.00  0.00    +0.000 A 
ATOM      9  C   UNL     1       6.621   3.863  15.764  0.00  0.00    +0.000 A 
ATOM     10  C   UNL     1       7.343   4.522  16.757  0.00  0.00    +0.000 A 
ATOM     11  C   UNL     1       6.839   5.692  17.341  0.00  0.00    +0.000 A 
ATOM     12 CL   UNL     1       7.781   6.440  18.580  0.00  0.00    +0.000 Cl
ENDBRANCH   5   6
ENDBRANCH   3   5
ENDBRANCH   2   3
BRANCH   2  13
ATOM     13  N   UNL     1       2.656   6.739  19.353  0.00  0.00    +0.000 N 
ATOM     14  H   UNL     1       2.672   7.174  20.272  0.00  0.00    +0.000 HD
BRANCH  13  15
ATOM     15  C   UNL     1       2.447   5.278  19.359  0.00  0.00    +0.000 C 
ATOM     16  C   UNL     1       1.930   4.729  18.006  0.00  0.00    +0.000 C 
ATOM     17  C   UNL     1       1.804   3.191  18.064  0.00  0.00    +0.000 C 
ATOM     18  C   UNL     1       3.184   2.576  18.344  0.00  0.00    +0.000 C 
ATOM     19  C   UNL     1       3.719   3.088  19.689  0.00  0.00    +0.000 C 
ATOM     20  C   UNL     1       2.748   2.691  20.809  0.00  0.00    +0.000 C 
ATOM     21  C   UNL     1       1.367   3.311  20.547  0.00  0.00    +0.000 C 
ATOM     22  C   UNL     1       0.834   2.805  19.195  0.00  0.00    +0.000 C 
ATOM     23  C   UNL     1       1.495   4.842  20.499  0.00  0.00    +0.000 C 
ATOM     24  C   UNL     1       3.832   4.617  19.631  0.00  0.00    +0.000 C 
ENDBRANCH  13  15
ENDBRANCH   2  13
TORSDOF 5
ENDMDL
MODEL 2
REMARK VINA RESULT:      -7.7      0.179      1.618
REMARK  Name = 
REMARK  5 active torsions:
REMARK  status: ('A' for Active; 'I' for Inactive)
REMARK    1  A    between atoms: C_2  and  N_3
REMARK    2  A    between atoms: C_2  and  N_12
REMARK    3  A    between atoms: N_3  and  C_4
REMARK    4  A    between atoms: C_4  and  C_5
REMARK    5  A    between atoms: N_12  and  C_13
REMARK                            x       y       z     vdW  Elec       q    Type
REMARK                         _______ _______ _______ _____ _____    ______ ____
ROOT
ATOM      1  S   UNL     1       1.470   8.966  18.096  0.00  0.00    +0.000 S 
ATOM      2  C   UNL     1       2.636   7.772  18.180  0.00  0.00    +0.000 C 
ENDROOT
BRANCH   2   3
ATOM      3  N   UNL     1       3.633   7.564  17.288  0.00  0.00    +0.000 N 
ATOM      4  H   UNL     1       3.371   7.134  16.423  0.00  0.00    +0.000 HD
BRANCH   3   5
ATOM      5  C   UNL     1       5.053   7.426  17.604  0.00  0.00    +0.000 C 
BRANCH   5   6
ATOM      6  C   UNL     1       5.653   6.197  16.971  0.00  0.00    +0.000 A 
ATOM      7  C   UNL     1       4.933   5.541  15.955  0.00  0.00    +0.000 A 
ATOM      8  C   UNL     1       5.451   4.408  15.323  0.00  0.00    +0.000 A 
ATOM      9  C   UNL     1       6.690   3.904  15.704  0.00  0.00    +0.000 A 
ATOM     10  C   UNL     1       7.410   4.531  16.720  0.00  0.00    +0.000 A 
ATOM     11  C   UNL     1       6.894   5.668  17.355  0.00  0.00    +0.000 A 
ATOM     12 CL   UNL     1       7.834   6.377  18.619  0.00  0.00    +0.000 Cl
ENDBRANCH   5   6
ENDBRANCH   3   5
ENDBRANCH   2   3
BRANCH   2  13
ATOM     13  N   UNL     1       2.548   6.922  19.235  0.00  0.00    +0.000 N 
ATOM     14  H   UNL     1       2.398   7.437  20.098  0.00  0.00    +0.000 HD
BRANCH  13  15
ATOM     15  C   UNL     1       2.458   5.454  19.363  0.00  0.00    +0.000 C 
ATOM     16  C   UNL     1       1.475   4.996  20.470  0.00  0.00    +0.000 C 
ATOM     17  C   UNL     1       1.378   3.455  20.498  0.00  0.00    +0.000 C 
ATOM     18  C   UNL     1       0.855   2.952  19.143  0.00  0.00    +0.000 C 
ATOM     19  C   UNL     1       1.817   3.376  18.024  0.00  0.00    +0.000 C 
ATOM     20  C   UNL     1       3.205   2.776  18.289  0.00  0.00    +0.000 C 
ATOM     21  C   UNL     1       3.744   3.281  19.636  0.00  0.00    +0.000 C 
ATOM     22  C   UNL     1       2.776   2.865  20.757  0.00  0.00    +0.000 C 
ATOM     23  C   UNL     1       3.848   4.814  19.601  0.00  0.00    +0.000 C 
ATOM     24  C   UNL     1       1.920   4.907  18.008  0.00  0.00    +0.000 C 
ENDBRANCH  13  15
ENDBRANCH   2  13
TORSDOF 5
ENDMDL
MODEL 3
REMARK VINA RESULT:      -7.2      1.188      1.647
REMARK  Name = 
REMARK  5 active torsions:
REMARK  status: ('A' for Active; 'I' for Inactive)
REMARK    1  A    between atoms: C_2  and  N_3
REMARK    2  A    between atoms: C_2  and  N_12
REMARK    3  A    between atoms: N_3  and  C_4
REMARK    4  A    between atoms: C_4  and  C_5
REMARK    5  A    between atoms: N_12  and  C_13
REMARK                            x       y       z     vdW  Elec       q    Type
REMARK                         _______ _______ _______ _____ _____    ______ ____
ROOT
ATOM      1  S   UNL     1       1.999   8.924  18.113  0.00  0.00    +0.000 S 
ATOM      2  C   UNL     1       2.792   7.453  18.095  0.00  0.00    +0.000 C 
ENDROOT
BRANCH   2   3
ATOM      3  N   UNL     1       3.599   6.992  17.111  0.00  0.00    +0.000 N 
ATOM      4  H   UNL     1       3.415   6.063  16.785  0.00  0.00    +0.000 HD
BRANCH   3   5
ATOM      5  C   UNL     1       4.955   7.453  16.825  0.00  0.00    +0.000 C 
BRANCH   5   6
ATOM      6  C   UNL     1       5.987   6.402  17.146  0.00  0.00    +0.000 A 
ATOM      7  C   UNL     1       6.720   6.519  18.341  0.00  0.00    +0.000 A 
ATOM      8  C   UNL     1       7.675   5.562  18.695  0.00  0.00    +0.000 A 
ATOM      9  C   UNL     1       7.922   4.481  17.856  0.00  0.00    +0.000 A 
ATOM     10  C   UNL     1       7.215   4.358  16.661  0.00  0.00    +0.000 A 
ATOM     11  C   UNL     1       6.257   5.315  16.303  0.00  0.00    +0.000 A 
ATOM     12 CL   UNL     1       5.438   5.105  14.796  0.00  0.00    +0.000 Cl
ENDBRANCH   5   6
ENDBRANCH   3   5
ENDBRANCH   2   3
BRANCH   2  13
ATOM     13  N   UNL     1       2.576   6.642  19.163  0.00  0.00    +0.000 N 
ATOM     14  H   UNL     1       2.410   7.192  20.001  0.00  0.00    +0.000 HD
BRANCH  13  15
ATOM     15  C   UNL     1       2.372   5.189  19.322  0.00  0.00    +0.000 C 
ATOM     16  C   UNL     1       1.781   4.514  18.058  0.00  0.00    +0.000 C 
ATOM     17  C   UNL     1       1.662   2.989  18.271  0.00  0.00    +0.000 C 
ATOM     18  C   UNL     1       3.057   2.400  18.532  0.00  0.00    +0.000 C 
ATOM     19  C   UNL     1       3.665   3.037  19.790  0.00  0.00    +0.000 C 
ATOM     20  C   UNL     1       2.758   2.753  20.995  0.00  0.00    +0.000 C 
ATOM     21  C   UNL     1       1.364   3.348  20.752  0.00  0.00    +0.000 C 
ATOM     22  C   UNL     1       0.758   2.716  19.487  0.00  0.00    +0.000 C 
ATOM     23  C   UNL     1       1.485   4.867  20.550  0.00  0.00    +0.000 C 
ATOM     24  C   UNL     1       3.771   4.553  19.579  0.00  0.00    +0.000 C 
ENDBRANCH  13  15
ENDBRANCH   2  13
TORSDOF 5
ENDMDL
MODEL 4
REMARK VINA RESULT:      -7.2      0.779      1.889
REMARK  Name = 
REMARK  5 active torsions:
REMARK  status: ('A' for Active; 'I' for Inactive)
REMARK    1  A    between atoms: C_2  and  N_3
REMARK    2  A    between atoms: C_2  and  N_12
REMARK    3  A    between atoms: N_3  and  C_4
REMARK    4  A    between atoms: C_4  and  C_5
REMARK    5  A    between atoms: N_12  and  C_13
REMARK                            x       y       z     vdW  Elec       q    Type
REMARK                         _______ _______ _______ _____ _____    ______ ____
ROOT
ATOM      1  S   UNL     1       2.028   8.040  19.546  0.00  0.00    +0.000 S 
ATOM      2  C   UNL     1       2.681   7.168  18.279  0.00  0.00    +0.000 C 
ENDROOT
BRANCH   2   3
ATOM      3  N   UNL     1       3.670   7.579  17.451  0.00  0.00    +0.000 N 
ATOM      4  H   UNL     1       3.430   7.669  16.483  0.00  0.00    +0.000 HD
BRANCH   3   5
ATOM      5  C   UNL     1       5.105   7.430  17.685  0.00  0.00    +0.000 C 
BRANCH   5   6
ATOM      6  C   UNL     1       5.672   6.235  16.963  0.00  0.00    +0.000 A 
ATOM      7  C   UNL     1       5.080   5.838  15.749  0.00  0.00    +0.000 A 
ATOM      8  C   UNL     1       5.578   4.748  15.029  0.00  0.00    +0.000 A 
ATOM      9  C   UNL     1       6.666   4.031  15.515  0.00  0.00    +0.000 A 
ATOM     10  C   UNL     1       7.254   4.401  16.724  0.00  0.00    +0.000 A 
ATOM     11  C   UNL     1       6.758   5.494  17.448  0.00  0.00    +0.000 A 
ATOM     12 CL   UNL     1       7.527   5.877  18.946  0.00  0.00    +0.000 Cl
ENDBRANCH   5   6
ENDBRANCH   3   5
ENDBRANCH   2   3
BRANCH   2  13
ATOM     13  N   UNL     1       2.141   5.942  18.053  0.00  0.00    +0.000 N 
ATOM     14  H   UNL     1       1.490   5.977  17.275  0.00  0.00    +0.000 HD
BRANCH  13  15
ATOM     15  C   UNL     1       2.421   4.588  18.571  0.00  0.00    +0.000 C 
ATOM     16  C   UNL     1       3.698   4.521  19.446  0.00  0.00    +0.000 C 
ATOM     17  C   UNL     1       3.887   3.096  20.010  0.00  0.00    +0.000 C 
ATOM     18  C   UNL     1       2.678   2.729  20.884  0.00  0.00    +0.000 C 
ATOM     19  C   UNL     1       1.394   2.770  20.042  0.00  0.00    +0.000 C 
ATOM     20  C   UNL     1       1.510   1.768  18.885  0.00  0.00    +0.000 C 
ATOM     21  C   UNL     1       2.709   2.132  17.996  0.00  0.00    +0.000 C 
ATOM     22  C   UNL     1       3.994   2.099  18.842  0.00  0.00    +0.000 C 
ATOM     23  C   UNL     1       2.513   3.547  17.429  0.00  0.00    +0.000 C 
ATOM     24  C   UNL     1       1.217   4.184  19.473  0.00  0.00    +0.000 C 
ENDBRANCH  13  15
ENDBRANCH   2  13
TORSDOF 5
ENDMDL
MODEL 5
REMARK VINA RESULT:      -7.2      0.571      1.718
REMARK  Name = 
REMARK  5 active torsions:
REMARK  status: ('A' for Active; 'I' for Inactive)
REMARK    1  A    between atoms: C_2  and  N_3
REMARK    2  A    between atoms: C_2  and  N_12
REMARK    3  A    between atoms: N_3  and  C_4
REMARK    4  A    between atoms: C_4  and  C_5
REMARK    5  A    between atoms: N_12  and  C_13
REMARK                            x       y       z     vdW  Elec       q    Type
REMARK                         _______ _______ _______ _____ _____    ______ ____
ROOT
ATOM      1  S   UNL     1       1.764   8.956  18.083  0.00  0.00    +0.000 S 
ATOM      2  C   UNL     1       2.700   7.616  18.428  0.00  0.00    +0.000 C 
ENDROOT
BRANCH   2   3
ATOM      3  N   UNL     1       3.972   7.402  18.017  0.00  0.00    +0.000 N 
ATOM      4  H   UNL     1       4.696   7.675  18.653  0.00  0.00    +0.000 HD
BRANCH   3   5
ATOM      5  C   UNL     1       4.421   7.301  16.630  0.00  0.00    +0.000 C 
BRANCH   5   6
ATOM      6  C   UNL     1       5.321   6.111  16.415  0.00  0.00    +0.000 A 
ATOM      7  C   UNL     1       4.775   4.947  15.844  0.00  0.00    +0.000 A 
ATOM      8  C   UNL     1       5.570   3.821  15.606  0.00  0.00    +0.000 A 
ATOM      9  C   UNL     1       6.918   3.837  15.948  0.00  0.00    +0.000 A 
ATOM     10  C   UNL     1       7.472   4.976  16.529  0.00  0.00    +0.000 A 
ATOM     11  C   UNL     1       6.678   6.106  16.768  0.00  0.00    +0.000 A 
ATOM     12 CL   UNL     1       7.431   7.472  17.511  0.00  0.00    +0.000 Cl
ENDBRANCH   5   6
ENDBRANCH   3   5
ENDBRANCH   2   3
BRANCH   2  13
ATOM     13  N   UNL     1       2.108   6.645  19.171  0.00  0.00    +0.000 N 
ATOM     14  H   UNL     1       1.331   7.026  19.703  0.00  0.00    +0.000 HD
BRANCH  13  15
ATOM     15  C   UNL     1       2.245   5.177  19.235  0.00  0.00    +0.000 C 
ATOM     16  C   UNL     1       3.678   4.712  19.599  0.00  0.00    +0.000 C 
ATOM     17  C   UNL     1       3.729   3.174  19.717  0.00  0.00    +0.000 C 
ATOM     18  C   UNL     1       2.771   2.716  20.829  0.00  0.00    +0.000 C 
ATOM     19  C   UNL     1       1.337   3.147  20.491  0.00  0.00    +0.000 C 
ATOM     20  C   UNL     1       0.913   2.512  19.159  0.00  0.00    +0.000 C 
ATOM     21  C   UNL     1       1.856   2.972  18.037  0.00  0.00    +0.000 C 
ATOM     22  C   UNL     1       3.295   2.548  18.380  0.00  0.00    +0.000 C 
ATOM     23  C   UNL     1       1.796   4.503  17.916  0.00  0.00    +0.000 C 
ATOM     24  C   UNL     1       1.293   4.675  20.362  0.00  0.00    +0.000 C 
ENDBRANCH  13  15
ENDBRANCH   2  13
TORSDOF 5
ENDMDL
MODEL 6
REMARK VINA RESULT:      -7.2      2.788      3.472
REMARK  Name = 
REMARK  5 active torsions:
REMARK  status: ('A' for Active; 'I' for Inactive)
REMARK    1  A    between atoms: C_2  and  N_3
REMARK    2  A    between atoms: C_2  and  N_12
REMARK    3  A    between atoms: N_3  and  C_4
REMARK    4  A    between atoms: C_4  and  C_5
REMARK    5  A    between atoms: N_12  and  C_13
REMARK                            x       y       z     vdW  Elec       q    Type
REMARK                         _______ _______ _______ _____ _____    ______ ____
ROOT
ATOM      1  S   UNL     1       7.701   5.626  18.822  0.00  0.00    +0.000 S 
ATOM      2  C   UNL     1       6.492   4.805  18.013  0.00  0.00    +0.000 C 
ENDROOT
BRANCH   2   3
ATOM      3  N   UNL     1       6.224   4.878  16.688  0.00  0.00    +0.000 N 
ATOM      4  H   UNL     1       5.494   4.280  16.350  0.00  0.00    +0.000 HD
BRANCH   3   5
ATOM      5  C   UNL     1       7.150   5.317  15.647  0.00  0.00    +0.000 C 
BRANCH   5   6
ATOM      6  C   UNL     1       6.819   4.712  14.307  0.00  0.00    +0.000 A 
ATOM      7  C   UNL     1       5.696   3.869  14.207  0.00  0.00    +0.000 A 
ATOM      8  C   UNL     1       5.334   3.296  12.984  0.00  0.00    +0.000 A 
ATOM      9  C   UNL     1       6.094   3.545  11.847  0.00  0.00    +0.000 A 
ATOM     10  C   UNL     1       7.218   4.365  11.931  0.00  0.00    +0.000 A 
ATOM     11  C   UNL     1       7.583   4.942  13.154  0.00  0.00    +0.000 A 
ATOM     12 CL   UNL     1       9.001   5.928  13.184  0.00  0.00    +0.000 Cl
ENDBRANCH   5   6
ENDBRANCH   3   5
ENDBRANCH   2   3
BRANCH   2  13
ATOM     13  N   UNL     1       5.693   4.012  18.774  0.00  0.00    +0.000 N 
ATOM     14  H   UNL     1       6.224   3.589  19.529  0.00  0.00    +0.000 HD
BRANCH  13  15
ATOM     15  C   UNL     1       4.236   3.780  18.831  0.00  0.00    +0.000 C 
ATOM     16  C   UNL     1       3.689   3.016  17.599  0.00  0.00    +0.000 C 
ATOM     17  C   UNL     1       2.178   2.748  17.762  0.00  0.00    +0.000 C 
ATOM     18  C   UNL     1       1.944   1.885  19.012  0.00  0.00    +0.000 C 
ATOM     19  C   UNL     1       2.461   2.622  20.257  0.00  0.00    +0.000 C 
ATOM     20  C   UNL     1       1.713   3.954  20.409  0.00  0.00    +0.000 C 
ATOM     21  C   UNL     1       1.949   4.830  19.170  0.00  0.00    +0.000 C 
ATOM     22  C   UNL     1       1.439   4.089  17.922  0.00  0.00    +0.000 C 
ATOM     23  C   UNL     1       3.454   5.103  19.016  0.00  0.00    +0.000 C 
ATOM     24  C   UNL     1       3.961   2.898  20.086  0.00  0.00    +0.000 C 
ENDBRANCH  13  15
ENDBRANCH   2  13
TORSDOF 5
ENDMDL
MODEL 7
REMARK VINA RESULT:      -7.0      1.254      2.366
REMARK  Name = 
REMARK  5 active torsions:
REMARK  status: ('A' for Active; 'I' for Inactive)
REMARK    1  A    between atoms: C_2  and  N_3
REMARK    2  A    between atoms: C_2  and  N_12
REMARK    3  A    between atoms: N_3  and  C_4
REMARK    4  A    between atoms: C_4  and  C_5
REMARK    5  A    between atoms: N_12  and  C_13
REMARK                            x       y       z     vdW  Elec       q    Type
REMARK                         _______ _______ _______ _____ _____    ______ ____
ROOT
ATOM      1  S   UNL     1       1.337   8.257  18.130  0.00  0.00    +0.000 S 
ATOM      2  C   UNL     1       2.836   7.521  18.184  0.00  0.00    +0.000 C 
ENDROOT
BRANCH   2   3
ATOM      3  N   UNL     1       3.868   7.746  17.337  0.00  0.00    +0.000 N 
ATOM      4  H   UNL     1       3.970   8.684  17.001  0.00  0.00    +0.000 HD
BRANCH   3   5
ATOM      5  C   UNL     1       4.516   6.748  16.489  0.00  0.00    +0.000 C 
BRANCH   5   6
ATOM      6  C   UNL     1       5.763   6.192  17.127  0.00  0.00    +0.000 A 
ATOM      7  C   UNL     1       6.592   7.063  17.858  0.00  0.00    +0.000 A 
ATOM      8  C   UNL     1       7.751   6.595  18.484  0.00  0.00    +0.000 A 
ATOM      9  C   UNL     1       8.106   5.255  18.381  0.00  0.00    +0.000 A 
ATOM     10  C   UNL     1       7.304   4.381  17.648  0.00  0.00    +0.000 A 
ATOM     11  C   UNL     1       6.142   4.846  17.019  0.00  0.00    +0.000 A 
ATOM     12 CL   UNL     1       5.212   3.708  16.111  0.00  0.00    +0.000 Cl
ENDBRANCH   5   6
ENDBRANCH   3   5
ENDBRANCH   2   3
BRANCH   2  13
ATOM     13  N   UNL     1       3.014   6.593  19.160  0.00  0.00    +0.000 N 
ATOM     14  H   UNL     1       3.338   7.033  20.017  0.00  0.00    +0.000 HD
BRANCH  13  15
ATOM     15  C   UNL     1       2.685   5.159  19.283  0.00  0.00    +0.000 C 
ATOM     16  C   UNL     1       3.905   4.283  19.662  0.00  0.00    +0.000 C 
ATOM     17  C   UNL     1       3.473   2.812  19.843  0.00  0.00    +0.000 C 
ATOM     18  C   UNL     1       2.436   2.719  20.973  0.00  0.00    +0.000 C 
ATOM     19  C   UNL     1       1.204   3.565  20.620  0.00  0.00    +0.000 C 
ATOM     20  C   UNL     1       0.585   3.045  19.316  0.00  0.00    +0.000 C 
ATOM     21  C   UNL     1       1.608   3.144  18.175  0.00  0.00    +0.000 C 
ATOM     22  C   UNL     1       2.846   2.304  18.532  0.00  0.00    +0.000 C 
ATOM     23  C   UNL     1       2.029   4.611  17.992  0.00  0.00    +0.000 C 
ATOM     24  C   UNL     1       1.640   5.024  20.430  0.00  0.00    +0.000 C 
ENDBRANCH  13  15
ENDBRANCH   2  13
TORSDOF 5
ENDMDL
MODEL 8
REMARK VINA RESULT:      -6.9      2.772      3.710
REMARK  Name = 
REMARK  5 active torsions:
REMARK  status: ('A' for Active; 'I' for Inactive)
REMARK    1  A    between atoms: C_2  and  N_3
REMARK    2  A    between atoms: C_2  and  N_12
REMARK    3  A    between atoms: N_3  and  C_4
REMARK    4  A    between atoms: C_4  and  C_5
REMARK    5  A    between atoms: N_12  and  C_13
REMARK                            x       y       z     vdW  Elec       q    Type
REMARK                         _______ _______ _______ _____ _____    ______ ____
ROOT
ATOM      1  S   UNL     1       7.593   5.711  19.142  0.00  0.00    +0.000 S 
ATOM      2  C   UNL     1       6.571   5.185  17.930  0.00  0.00    +0.000 C 
ENDROOT
BRANCH   2   3
ATOM      3  N   UNL     1       6.946   4.640  16.748  0.00  0.00    +0.000 N 
ATOM      4  H   UNL     1       7.269   3.693  16.780  0.00  0.00    +0.000 HD
BRANCH   3   5
ATOM      5  C   UNL     1       7.399   5.374  15.569  0.00  0.00    +0.000 C 
BRANCH   5   6
ATOM      6  C   UNL     1       6.932   4.729  14.290  0.00  0.00    +0.000 A 
ATOM      7  C   UNL     1       5.816   3.872  14.336  0.00  0.00    +0.000 A 
ATOM      8  C   UNL     1       5.330   3.262  13.176  0.00  0.00    +0.000 A 
ATOM      9  C   UNL     1       5.958   3.487  11.956  0.00  0.00    +0.000 A 
ATOM     10  C   UNL     1       7.073   4.321  11.895  0.00  0.00    +0.000 A 
ATOM     11  C   UNL     1       7.563   4.935  13.055  0.00  0.00    +0.000 A 
ATOM     12 CL   UNL     1       8.962   5.936  12.903  0.00  0.00    +0.000 Cl
ENDBRANCH   5   6
ENDBRANCH   3   5
ENDBRANCH   2   3
BRANCH   2  13
ATOM     13  N   UNL     1       5.241   5.349  18.153  0.00  0.00    +0.000 N 
ATOM     14  H   UNL     1       4.952   6.292  17.910  0.00  0.00    +0.000 HD
BRANCH  13  15
ATOM     15  C   UNL     1       4.139   4.429  18.499  0.00  0.00    +0.000 C 
ATOM     16  C   UNL     1       4.557   3.326  19.504  0.00  0.00    +0.000 C 
ATOM     17  C   UNL     1       3.341   2.449  19.873  0.00  0.00    +0.000 C 
ATOM     18  C   UNL     1       2.262   3.324  20.530  0.00  0.00    +0.000 C 
ATOM     19  C   UNL     1       1.813   4.420  19.553  0.00  0.00    +0.000 C 
ATOM     20  C   UNL     1       1.241   3.771  18.285  0.00  0.00    +0.000 C 
ATOM     21  C   UNL     1       2.315   2.903  17.612  0.00  0.00    +0.000 C 
ATOM     22  C   UNL     1       2.771   1.810  18.594  0.00  0.00    +0.000 C 
ATOM     23  C   UNL     1       3.519   3.781  17.237  0.00  0.00    +0.000 C 
ATOM     24  C   UNL     1       3.027   5.282  19.179  0.00  0.00    +0.000 C 
ENDBRANCH  13  15
ENDBRANCH   2  13
TORSDOF 5
ENDMDL
MODEL 9
REMARK VINA RESULT:      -6.8      2.998      5.901
REMARK  Name = 
REMARK  5 active torsions:
REMARK  status: ('A' for Active; 'I' for Inactive)
REMARK    1  A    between atoms: C_2  and  N_3
REMARK    2  A    between atoms: C_2  and  N_12
REMARK    3  A    between atoms: N_3  and  C_4
REMARK    4  A    between atoms: C_4  and  C_5
REMARK    5  A    between atoms: N_12  and  C_13
REMARK                            x       y       z     vdW  Elec       q    Type
REMARK                         _______ _______ _______ _____ _____    ______ ____
ROOT
ATOM      1  S   UNL     1       2.081   3.908  20.955  0.00  0.00    +0.000 S 
ATOM      2  C   UNL     1       2.643   5.148  19.987  0.00  0.00    +0.000 C 
ENDROOT
BRANCH   2   3
ATOM      3  N   UNL     1       2.669   6.464  20.307  0.00  0.00    +0.000 N 
ATOM      4  H   UNL     1       3.568   6.849  20.528  0.00  0.00    +0.000 HD
BRANCH   3   5
ATOM      5  C   UNL     1       1.553   7.240  20.842  0.00  0.00    +0.000 C 
BRANCH   5   6
ATOM      6  C   UNL     1       1.382   8.551  20.117  0.00  0.00    +0.000 A 
ATOM      7  C   UNL     1       1.826   8.649  18.786  0.00  0.00    +0.000 A 
ATOM      8  C   UNL     1       1.674   9.835  18.062  0.00  0.00    +0.000 A 
ATOM      9  C   UNL     1       1.089  10.945  18.661  0.00  0.00    +0.000 A 
ATOM     10  C   UNL     1       0.658  10.871  19.984  0.00  0.00    +0.000 A 
ATOM     11  C   UNL     1       0.807   9.683  20.712  0.00  0.00    +0.000 A 
ATOM     12 CL   UNL     1       0.268   9.675  22.353  0.00  0.00    +0.000 Cl
ENDBRANCH   5   6
ENDBRANCH   3   5
ENDBRANCH   2   3
BRANCH   2  13
ATOM     13  N   UNL     1       3.089   4.792  18.755  0.00  0.00    +0.000 N 
ATOM     14  H   UNL     1       2.340   4.374  18.210  0.00  0.00    +0.000 HD
BRANCH  13  15
ATOM     15  C   UNL     1       4.341   5.031  18.009  0.00  0.00    +0.000 C 
ATOM     16  C   UNL     1       4.704   3.879  17.039  0.00  0.00    +0.000 C 
ATOM     17  C   UNL     1       5.981   4.228  16.245  0.00  0.00    +0.000 C 
ATOM     18  C   UNL     1       5.736   5.501  15.420  0.00  0.00    +0.000 C 
ATOM     19  C   UNL     1       5.389   6.669  16.354  0.00  0.00    +0.000 C 
ATOM     20  C   UNL     1       6.553   6.909  17.326  0.00  0.00    +0.000 C 
ATOM     21  C   UNL     1       6.800   5.646  18.166  0.00  0.00    +0.000 C 
ATOM     22  C   UNL     1       7.139   4.474  17.230  0.00  0.00    +0.000 C 
ATOM     23  C   UNL     1       5.530   5.307  18.963  0.00  0.00    +0.000 C 
ATOM     24  C   UNL     1       4.127   6.313  17.150  0.00  0.00    +0.000 C 
ENDBRANCH  13  15
ENDBRANCH   2  13
TORSDOF 5
ENDMDL
