MODEL 1
REMARK VINA RESULT:      -7.9      0.000      0.000
REMARK  Name = 
REMARK  11 active torsions:
REMARK  status: ('A' for Active; 'I' for Inactive)
REMARK    1  A    between atoms: C_1  and  O_2
REMARK    2  A    between atoms: O_2  and  C_3
REMARK    3  A    between atoms: C_5  and  C_6
REMARK    4  A    between atoms: C_9  and  C_10
REMARK    5  A    between atoms: C_10  and  C_11
REMARK    6  A    between atoms: C_20  and  C_21
REMARK    7  A    between atoms: C_23  and  C_24
REMARK    8  A    between atoms: C_24  and  O_25
REMARK    9  A    between atoms: C_26  and  O_27
REMARK   10  A    between atoms: C_28  and  O_29
REMARK   11  A    between atoms: C_30  and  O_31
REMARK                            x       y       z     vdW  Elec       q    Type
REMARK                         _______ _______ _______ _____ _____    ______ ____
ROOT
ATOM      1  C   UNL     1       2.170   6.711  20.060  0.00  0.00    +0.000 A 
ATOM      2  C   UNL     1       1.366   7.518  20.876  0.00  0.00    +0.000 A 
ATOM      3  C   UNL     1       0.859   8.759  20.445  0.00  0.00    +0.000 A 
ATOM      4  C   UNL     1       1.324   9.250  19.205  0.00  0.00    +0.000 A 
ATOM      5  C   UNL     1       2.229   8.488  18.443  0.00  0.00    +0.000 A 
ATOM      6  C   UNL     1       2.577   7.179  18.802  0.00  0.00    +0.000 A 
ENDROOT
BRANCH   6   7
ATOM      7  C   UNL     1       3.100   6.226  17.723  0.00  0.00    +0.000 C 
ATOM      8  O   UNL     1       2.628   4.892  17.989  0.00  0.00    +0.000 OA
ATOM      9  C   UNL     1       3.171   3.886  17.126  0.00  0.00    +0.000 C 
ATOM     10  C   UNL     1       4.699   3.821  17.254  0.00  0.00    +0.000 C 
ATOM     11  C   UNL     1       5.300   5.187  16.937  0.00  0.00    +0.000 C 
ATOM     12  C   UNL     1       4.659   6.284  17.785  0.00  0.00    +0.000 C 
BRANCH  10  13
ATOM     13  O   UNL     1       5.229   2.808  16.384  0.00  0.00    +0.000 OA
ATOM     14  H   UNL     1       4.667   2.014  16.469  0.00  0.00    +0.000 HD
ENDBRANCH  10  13
BRANCH  11  15
ATOM     15  O   UNL     1       6.721   5.121  17.137  0.00  0.00    +0.000 OA
ATOM     16  H   UNL     1       6.908   5.334  18.069  0.00  0.00    +0.000 HD
ENDBRANCH  11  15
BRANCH  12  17
ATOM     17  O   UNL     1       5.215   7.529  17.340  0.00  0.00    +0.000 OA
ATOM     18  H   UNL     1       4.580   8.233  17.567  0.00  0.00    +0.000 HD
ENDBRANCH  12  17
BRANCH   9  19
ATOM     19  C   UNL     1       2.555   2.525  17.491  0.00  0.00    +0.000 C 
BRANCH  19  20
ATOM     20  O   UNL     1       3.456   1.685  18.210  0.00  0.00    +0.000 OA
ATOM     21  H   UNL     1       3.171   0.753  18.053  0.00  0.00    +0.000 HD
ENDBRANCH  19  20
ENDBRANCH   9  19
ENDBRANCH   6   7
BRANCH   3  22
ATOM     22  C   UNL     1      -0.221   9.468  21.239  0.00  0.00    +0.000 C 
ATOM     23  C   UNL     1      -0.326   9.391  22.746  0.00  0.00    +0.000 C 
ATOM     24  C   UNL     1       0.143  10.656  22.095  0.00  0.00    +0.000 C 
ENDBRANCH   3  22
BRANCH   1  26
ATOM     25  C   UNL     1       1.463   4.605  20.873  0.00  0.00    +0.000 C 
ATOM     26  O   UNL     1       2.535   5.429  20.402  0.00  0.00    +0.000 OA
ENDBRANCH   1  26
BRANCH   4  27
ATOM     27  C   UNL     1       0.785  10.526  18.581  0.00  0.00    +0.000 C 
BRANCH  27  28
ATOM     28  C   UNL     1      -0.701  10.490  18.257  0.00  0.00    +0.000 A 
ATOM     29  C   UNL     1      -1.217   9.610  17.267  0.00  0.00    +0.000 A 
ATOM     30  C   UNL     1      -2.577   9.596  16.935  0.00  0.00    +0.000 A 
ATOM     31  C   UNL     1      -3.392  10.478  17.592  0.00  0.00    +0.000 A 
ATOM     32  C   UNL     1      -2.908  11.348  18.547  0.00  0.00    +0.000 A 
ATOM     33  C   UNL     1      -1.579  11.374  18.904  0.00  0.00    +0.000 A 
ATOM     34  C   UNL     1      -4.248  11.973  18.790  0.00  0.00    +0.000 C 
ATOM     35  C   UNL     1      -4.799  10.981  17.715  0.00  0.00    +0.000 C 
ENDBRANCH  27  28
ENDBRANCH   4  27
TORSDOF 10
ENDMDL
MODEL 2
REMARK VINA RESULT:      -7.7      1.769      3.074
REMARK  Name = 
REMARK  11 active torsions:
REMARK  status: ('A' for Active; 'I' for Inactive)
REMARK    1  A    between atoms: C_1  and  O_2
REMARK    2  A    between atoms: O_2  and  C_3
REMARK    3  A    between atoms: C_5  and  C_6
REMARK    4  A    between atoms: C_9  and  C_10
REMARK    5  A    between atoms: C_10  and  C_11
REMARK    6  A    between atoms: C_20  and  C_21
REMARK    7  A    between atoms: C_23  and  C_24
REMARK    8  A    between atoms: C_24  and  O_25
REMARK    9  A    between atoms: C_26  and  O_27
REMARK   10  A    between atoms: C_28  and  O_29
REMARK   11  A    between atoms: C_30  and  O_31
REMARK                            x       y       z     vdW  Elec       q    Type
REMARK                         _______ _______ _______ _____ _____    ______ ____
ROOT
ATOM      1  C   UNL     1       2.364   6.817  20.011  0.00  0.00    +0.000 A 
ATOM      2  C   UNL     1       1.558   7.629  20.819  0.00  0.00    +0.000 A 
ATOM      3  C   UNL     1       0.851   8.736  20.311  0.00  0.00    +0.000 A 
ATOM      4  C   UNL     1       1.109   9.106  18.973  0.00  0.00    +0.000 A 
ATOM      5  C   UNL     1       2.015   8.356  18.199  0.00  0.00    +0.000 A 
ATOM      6  C   UNL     1       2.566   7.155  18.665  0.00  0.00    +0.000 A 
ENDROOT
BRANCH   6   7
ATOM      7  C   UNL     1       3.085   6.132  17.650  0.00  0.00    +0.000 C 
ATOM      8  O   UNL     1       2.523   4.838  17.940  0.00  0.00    +0.000 OA
ATOM      9  C   UNL     1       3.048   3.770  17.145  0.00  0.00    +0.000 C 
ATOM     10  C   UNL     1       4.562   3.624  17.353  0.00  0.00    +0.000 C 
ATOM     11  C   UNL     1       5.257   4.940  17.017  0.00  0.00    +0.000 C 
ATOM     12  C   UNL     1       4.640   6.105  17.791  0.00  0.00    +0.000 C 
BRANCH  10  13
ATOM     13  O   UNL     1       5.075   2.549  16.549  0.00  0.00    +0.000 OA
ATOM     14  H   UNL     1       4.324   1.977  16.299  0.00  0.00    +0.000 HD
ENDBRANCH  10  13
BRANCH  11  15
ATOM     15  O   UNL     1       6.660   4.803  17.292  0.00  0.00    +0.000 OA
ATOM     16  H   UNL     1       7.085   5.667  17.147  0.00  0.00    +0.000 HD
ENDBRANCH  11  15
BRANCH  12  17
ATOM     17  O   UNL     1       5.288   7.297  17.329  0.00  0.00    +0.000 OA
ATOM     18  H   UNL     1       6.067   7.027  16.809  0.00  0.00    +0.000 HD
ENDBRANCH  12  17
BRANCH   9  19
ATOM     19  C   UNL     1       2.337   2.461  17.527  0.00  0.00    +0.000 C 
BRANCH  19  20
ATOM     20  O   UNL     1       3.191   1.547  18.212  0.00  0.00    +0.000 OA
ATOM     21  H   UNL     1       3.594   0.960  17.529  0.00  0.00    +0.000 HD
ENDBRANCH  19  20
ENDBRANCH   9  19
ENDBRANCH   6   7
BRANCH   3  22
ATOM     22  C   UNL     1      -0.217   9.417  21.144  0.00  0.00    +0.000 C 
ATOM     23  C   UNL     1      -0.306   9.281  22.648  0.00  0.00    +0.000 C 
ATOM     24  C   UNL     1       0.162  10.569  22.042  0.00  0.00    +0.000 C 
ENDBRANCH   3  22
BRANCH   1  26
ATOM     25  C   UNL     1       2.016   4.748  21.105  0.00  0.00    +0.000 C 
ATOM     26  O   UNL     1       2.926   5.642  20.454  0.00  0.00    +0.000 OA
ENDBRANCH   1  26
BRANCH   4  27
ATOM     27  C   UNL     1       0.345  10.217  18.274  0.00  0.00    +0.000 C 
BRANCH  27  28
ATOM     28  C   UNL     1       0.867  11.617  18.561  0.00  0.00    +0.000 A 
ATOM     29  C   UNL     1       0.019  12.624  19.096  0.00  0.00    +0.000 A 
ATOM     30  C   UNL     1       0.480  13.924  19.329  0.00  0.00    +0.000 A 
ATOM     31  C   UNL     1       1.781  14.196  19.005  0.00  0.00    +0.000 A 
ATOM     32  C   UNL     1       2.618  13.236  18.473  0.00  0.00    +0.000 A 
ATOM     33  C   UNL     1       2.196  11.946  18.247  0.00  0.00    +0.000 A 
ATOM     34  C   UNL     1       3.776  14.179  18.353  0.00  0.00    +0.000 C 
ATOM     35  C   UNL     1       2.833  15.264  18.964  0.00  0.00    +0.000 C 
ENDBRANCH  27  28
ENDBRANCH   4  27
TORSDOF 10
ENDMDL
MODEL 3
REMARK VINA RESULT:      -7.6      0.947      1.437
REMARK  Name = 
REMARK  11 active torsions:
REMARK  status: ('A' for Active; 'I' for Inactive)
REMARK    1  A    between atoms: C_1  and  O_2
REMARK    2  A    between atoms: O_2  and  C_3
REMARK    3  A    between atoms: C_5  and  C_6
REMARK    4  A    between atoms: C_9  and  C_10
REMARK    5  A    between atoms: C_10  and  C_11
REMARK    6  A    between atoms: C_20  and  C_21
REMARK    7  A    between atoms: C_23  and  C_24
REMARK    8  A    between atoms: C_24  and  O_25
REMARK    9  A    between atoms: C_26  and  O_27
REMARK   10  A    between atoms: C_28  and  O_29
REMARK   11  A    between atoms: C_30  and  O_31
REMARK                            x       y       z     vdW  Elec       q    Type
REMARK                         _______ _______ _______ _____ _____    ______ ____
ROOT
ATOM      1  C   UNL     1       1.797   6.462  20.398  0.00  0.00    +0.000 A 
ATOM      2  C   UNL     1       1.035   7.295  21.228  0.00  0.00    +0.000 A 
ATOM      3  C   UNL     1       0.729   8.626  20.886  0.00  0.00    +0.000 A 
ATOM      4  C   UNL     1       1.358   9.157  19.738  0.00  0.00    +0.000 A 
ATOM      5  C   UNL     1       2.222   8.350  18.973  0.00  0.00    +0.000 A 
ATOM      6  C   UNL     1       2.367   6.980  19.227  0.00  0.00    +0.000 A 
ENDROOT
BRANCH   6   7
ATOM      7  C   UNL     1       2.856   6.063  18.100  0.00  0.00    +0.000 C 
ATOM      8  O   UNL     1       3.169   4.764  18.638  0.00  0.00    +0.000 OA
ATOM      9  C   UNL     1       3.773   3.864  17.703  0.00  0.00    +0.000 C 
ATOM     10  C   UNL     1       5.100   4.429  17.176  0.00  0.00    +0.000 C 
ATOM     11  C   UNL     1       4.859   5.793  16.535  0.00  0.00    +0.000 C 
ATOM     12  C   UNL     1       4.128   6.733  17.492  0.00  0.00    +0.000 C 
BRANCH  10  13
ATOM     13  O   UNL     1       5.694   3.515  16.239  0.00  0.00    +0.000 OA
ATOM     14  H   UNL     1       5.683   2.625  16.641  0.00  0.00    +0.000 HD
ENDBRANCH  10  13
BRANCH  11  15
ATOM     15  O   UNL     1       6.123   6.334  16.119  0.00  0.00    +0.000 OA
ATOM     16  H   UNL     1       6.591   5.654  15.601  0.00  0.00    +0.000 HD
ENDBRANCH  11  15
BRANCH  12  17
ATOM     17  O   UNL     1       3.861   7.939  16.764  0.00  0.00    +0.000 OA
ATOM     18  H   UNL     1       4.476   8.622  17.088  0.00  0.00    +0.000 HD
ENDBRANCH  12  17
BRANCH   9  19
ATOM     19  C   UNL     1       4.016   2.511  18.392  0.00  0.00    +0.000 C 
BRANCH  19  20
ATOM     20  O   UNL     1       5.135   2.533  19.275  0.00  0.00    +0.000 OA
ATOM     21  H   UNL     1       5.925   2.262  18.749  0.00  0.00    +0.000 HD
ENDBRANCH  19  20
ENDBRANCH   9  19
ENDBRANCH   6   7
BRANCH   3  22
ATOM     22  C   UNL     1      -0.316   9.401  21.664  0.00  0.00    +0.000 C 
ATOM     23  C   UNL     1      -0.350   9.459  23.175  0.00  0.00    +0.000 C 
ATOM     24  C   UNL     1       0.082  10.662  22.393  0.00  0.00    +0.000 C 
ENDBRANCH   3  22
BRANCH   1  26
ATOM     25  C   UNL     1       0.784   4.324  20.466  0.00  0.00    +0.000 C 
ATOM     26  O   UNL     1       1.964   5.117  20.638  0.00  0.00    +0.000 OA
ENDBRANCH   1  26
BRANCH   4  27
ATOM     27  C   UNL     1       1.043  10.544  19.205  0.00  0.00    +0.000 C 
BRANCH  27  28
ATOM     28  C   UNL     1      -0.343  10.683  18.594  0.00  0.00    +0.000 A 
ATOM     29  C   UNL     1      -1.307  11.570  19.147  0.00  0.00    +0.000 A 
ATOM     30  C   UNL     1      -2.596  11.678  18.614  0.00  0.00    +0.000 A 
ATOM     31  C   UNL     1      -2.901  10.880  17.545  0.00  0.00    +0.000 A 
ATOM     32  C   UNL     1      -1.985  10.004  17.001  0.00  0.00    +0.000 A 
ATOM     33  C   UNL     1      -0.706   9.888  17.495  0.00  0.00    +0.000 A 
ATOM     34  C   UNL     1      -2.946   9.491  15.973  0.00  0.00    +0.000 C 
ATOM     35  C   UNL     1      -3.982  10.490  16.582  0.00  0.00    +0.000 C 
ENDBRANCH  27  28
ENDBRANCH   4  27
TORSDOF 10
ENDMDL
MODEL 4
REMARK VINA RESULT:      -7.5      1.798      2.734
REMARK  Name = 
REMARK  11 active torsions:
REMARK  status: ('A' for Active; 'I' for Inactive)
REMARK    1  A    between atoms: C_1  and  O_2
REMARK    2  A    between atoms: O_2  and  C_3
REMARK    3  A    between atoms: C_5  and  C_6
REMARK    4  A    between atoms: C_9  and  C_10
REMARK    5  A    between atoms: C_10  and  C_11
REMARK    6  A    between atoms: C_20  and  C_21
REMARK    7  A    between atoms: C_23  and  C_24
REMARK    8  A    between atoms: C_24  and  O_25
REMARK    9  A    between atoms: C_26  and  O_27
REMARK   10  A    between atoms: C_28  and  O_29
REMARK   11  A    between atoms: C_30  and  O_31
REMARK                            x       y       z     vdW  Elec       q    Type
REMARK                         _______ _______ _______ _____ _____    ______ ____
ROOT
ATOM      1  C   UNL     1       2.267   6.864  20.196  0.00  0.00    +0.000 A 
ATOM      2  C   UNL     1       1.501   7.799  20.905  0.00  0.00    +0.000 A 
ATOM      3  C   UNL     1       0.822   8.856  20.269  0.00  0.00    +0.000 A 
ATOM      4  C   UNL     1       1.071   9.046  18.893  0.00  0.00    +0.000 A 
ATOM      5  C   UNL     1       1.940   8.175  18.209  0.00  0.00    +0.000 A 
ATOM      6  C   UNL     1       2.458   7.024  18.816  0.00  0.00    +0.000 A 
ENDROOT
BRANCH   6   7
ATOM      7  C   UNL     1       2.929   5.864  17.932  0.00  0.00    +0.000 C 
ATOM      8  O   UNL     1       2.145   4.691  18.221  0.00  0.00    +0.000 OA
ATOM      9  C   UNL     1       2.589   3.503  17.558  0.00  0.00    +0.000 C 
ATOM     10  C   UNL     1       4.028   3.153  17.963  0.00  0.00    +0.000 C 
ATOM     11  C   UNL     1       4.950   4.326  17.644  0.00  0.00    +0.000 C 
ATOM     12  C   UNL     1       4.434   5.622  18.268  0.00  0.00    +0.000 C 
BRANCH  10  13
ATOM     13  O   UNL     1       4.459   1.959  17.290  0.00  0.00    +0.000 OA
ATOM     14  H   UNL     1       3.832   1.782  16.562  0.00  0.00    +0.000 HD
ENDBRANCH  10  13
BRANCH  11  15
ATOM     15  O   UNL     1       6.274   4.006  18.100  0.00  0.00    +0.000 OA
ATOM     16  H   UNL     1       6.228   3.800  19.051  0.00  0.00    +0.000 HD
ENDBRANCH  11  15
BRANCH  12  17
ATOM     17  O   UNL     1       5.307   6.670  17.826  0.00  0.00    +0.000 OA
ATOM     18  H   UNL     1       4.802   7.235  17.214  0.00  0.00    +0.000 HD
ENDBRANCH  12  17
BRANCH   9  19
ATOM     19  C   UNL     1       1.646   2.343  17.920  0.00  0.00    +0.000 C 
BRANCH  19  20
ATOM     20  O   UNL     1       2.168   1.506  18.950  0.00  0.00    +0.000 OA
ATOM     21  H   UNL     1       2.662   0.775  18.507  0.00  0.00    +0.000 HD
ENDBRANCH  19  20
ENDBRANCH   9  19
ENDBRANCH   6   7
BRANCH   3  22
ATOM     22  C   UNL     1      -0.211   9.672  21.023  0.00  0.00    +0.000 C 
ATOM     23  C   UNL     1      -0.328   9.671  22.531  0.00  0.00    +0.000 C 
ATOM     24  C   UNL     1       0.232  10.870  21.828  0.00  0.00    +0.000 C 
ENDBRANCH   3  22
BRANCH   1  26
ATOM     25  C   UNL     1       1.833   4.766  21.199  0.00  0.00    +0.000 C 
ATOM     26  O   UNL     1       2.798   5.736  20.778  0.00  0.00    +0.000 OA
ENDBRANCH   1  26
BRANCH   4  27
ATOM     27  C   UNL     1       0.332  10.086  18.068  0.00  0.00    +0.000 C 
BRANCH  27  28
ATOM     28  C   UNL     1       0.824  11.512  18.266  0.00  0.00    +0.000 A 
ATOM     29  C   UNL     1       2.208  11.829  18.212  0.00  0.00    +0.000 A 
ATOM     30  C   UNL     1       2.673  13.130  18.429  0.00  0.00    +0.000 A 
ATOM     31  C   UNL     1       1.740  14.090  18.715  0.00  0.00    +0.000 A 
ATOM     32  C   UNL     1       0.392  13.801  18.785  0.00  0.00    +0.000 A 
ATOM     33  C   UNL     1      -0.094  12.533  18.561  0.00  0.00    +0.000 A 
ATOM     34  C   UNL     1       0.015  15.207  19.138  0.00  0.00    +0.000 C 
ATOM     35  C   UNL     1       1.540  15.537  19.049  0.00  0.00    +0.000 C 
ENDBRANCH  27  28
ENDBRANCH   4  27
TORSDOF 10
ENDMDL
MODEL 5
REMARK VINA RESULT:      -7.5      4.914      8.573
REMARK  Name = 
REMARK  11 active torsions:
REMARK  status: ('A' for Active; 'I' for Inactive)
REMARK    1  A    between atoms: C_1  and  O_2
REMARK    2  A    between atoms: O_2  and  C_3
REMARK    3  A    between atoms: C_5  and  C_6
REMARK    4  A    between atoms: C_9  and  C_10
REMARK    5  A    between atoms: C_10  and  C_11
REMARK    6  A    between atoms: C_20  and  C_21
REMARK    7  A    between atoms: C_23  and  C_24
REMARK    8  A    between atoms: C_24  and  O_25
REMARK    9  A    between atoms: C_26  and  O_27
REMARK   10  A    between atoms: C_28  and  O_29
REMARK   11  A    between atoms: C_30  and  O_31
REMARK                            x       y       z     vdW  Elec       q    Type
REMARK                         _______ _______ _______ _____ _____    ______ ____
ROOT
ATOM      1  C   UNL     1       0.656  14.268  18.706  0.00  0.00    +0.000 A 
ATOM      2  C   UNL     1      -0.456  13.441  18.493  0.00  0.00    +0.000 A 
ATOM      3  C   UNL     1      -0.551  12.147  19.040  0.00  0.00    +0.000 A 
ATOM      4  C   UNL     1       0.595  11.636  19.688  0.00  0.00    +0.000 A 
ATOM      5  C   UNL     1       1.755  12.427  19.793  0.00  0.00    +0.000 A 
ATOM      6  C   UNL     1       1.766  13.774  19.406  0.00  0.00    +0.000 A 
ENDROOT
BRANCH   6   7
ATOM      7  C   UNL     1       2.815  14.713  20.010  0.00  0.00    +0.000 C 
ATOM      8  O   UNL     1       4.062  14.559  19.306  0.00  0.00    +0.000 OA
ATOM      9  C   UNL     1       5.158  15.282  19.875  0.00  0.00    +0.000 C 
ATOM     10  C   UNL     1       5.433  14.821  21.313  0.00  0.00    +0.000 C 
ATOM     11  C   UNL     1       4.175  14.996  22.157  0.00  0.00    +0.000 C 
ATOM     12  C   UNL     1       2.973  14.308  21.510  0.00  0.00    +0.000 C 
BRANCH  10  13
ATOM     13  O   UNL     1       6.536  15.554  21.870  0.00  0.00    +0.000 OA
ATOM     14  H   UNL     1       6.714  16.317  21.286  0.00  0.00    +0.000 HD
ENDBRANCH  10  13
BRANCH  11  15
ATOM     15  O   UNL     1       4.432  14.488  23.476  0.00  0.00    +0.000 OA
ATOM     16  H   UNL     1       5.380  14.599  23.666  0.00  0.00    +0.000 HD
ENDBRANCH  11  15
BRANCH  12  17
ATOM     17  O   UNL     1       1.833  14.618  22.322  0.00  0.00    +0.000 OA
ATOM     18  H   UNL     1       1.041  14.541  21.759  0.00  0.00    +0.000 HD
ENDBRANCH  12  17
BRANCH   9  19
ATOM     19  C   UNL     1       6.409  15.064  19.006  0.00  0.00    +0.000 C 
BRANCH  19  20
ATOM     20  O   UNL     1       6.126  14.369  17.793  0.00  0.00    +0.000 OA
ATOM     21  H   UNL     1       6.989  14.054  17.432  0.00  0.00    +0.000 HD
ENDBRANCH  19  20
ENDBRANCH   9  19
ENDBRANCH   6   7
BRANCH   3  22
ATOM     22  C   UNL     1      -1.869  11.398  19.022  0.00  0.00    +0.000 C 
ATOM     23  C   UNL     1      -2.868  11.508  17.892  0.00  0.00    +0.000 C 
ATOM     24  C   UNL     1      -2.061  10.256  18.054  0.00  0.00    +0.000 C 
ENDBRANCH   3  22
BRANCH   1  26
ATOM     25  C   UNL     1      -0.429  16.370  18.745  0.00  0.00    +0.000 C 
ATOM     26  O   UNL     1       0.692  15.588  18.320  0.00  0.00    +0.000 OA
ENDBRANCH   1  26
BRANCH   4  27
ATOM     27  C   UNL     1       0.596  10.296  20.403  0.00  0.00    +0.000 C 
BRANCH  27  28
ATOM     28  C   UNL     1       1.334   9.189  19.666  0.00  0.00    +0.000 A 
ATOM     29  C   UNL     1       1.637   9.300  18.282  0.00  0.00    +0.000 A 
ATOM     30  C   UNL     1       2.282   8.272  17.587  0.00  0.00    +0.000 A 
ATOM     31  C   UNL     1       2.597   7.141  18.291  0.00  0.00    +0.000 A 
ATOM     32  C   UNL     1       2.301   7.007  19.631  0.00  0.00    +0.000 A 
ATOM     33  C   UNL     1       1.680   8.009  20.343  0.00  0.00    +0.000 A 
ATOM     34  C   UNL     1       2.862   5.621  19.713  0.00  0.00    +0.000 C 
ATOM     35  C   UNL     1       3.207   5.774  18.197  0.00  0.00    +0.000 C 
ENDBRANCH  27  28
ENDBRANCH   4  27
TORSDOF 10
ENDMDL
MODEL 6
REMARK VINA RESULT:      -7.3      4.485      7.708
REMARK  Name = 
REMARK  11 active torsions:
REMARK  status: ('A' for Active; 'I' for Inactive)
REMARK    1  A    between atoms: C_1  and  O_2
REMARK    2  A    between atoms: O_2  and  C_3
REMARK    3  A    between atoms: C_5  and  C_6
REMARK    4  A    between atoms: C_9  and  C_10
REMARK    5  A    between atoms: C_10  and  C_11
REMARK    6  A    between atoms: C_20  and  C_21
REMARK    7  A    between atoms: C_23  and  C_24
REMARK    8  A    between atoms: C_24  and  O_25
REMARK    9  A    between atoms: C_26  and  O_27
REMARK   10  A    between atoms: C_28  and  O_29
REMARK   11  A    between atoms: C_30  and  O_31
REMARK                            x       y       z     vdW  Elec       q    Type
REMARK                         _______ _______ _______ _____ _____    ______ ____
ROOT
ATOM      1  C   UNL     1       0.645  10.463  18.586  0.00  0.00    +0.000 A 
ATOM      2  C   UNL     1      -0.578   9.958  18.123  0.00  0.00    +0.000 A 
ATOM      3  C   UNL     1      -1.800  10.622  18.340  0.00  0.00    +0.000 A 
ATOM      4  C   UNL     1      -1.778  11.749  19.191  0.00  0.00    +0.000 A 
ATOM      5  C   UNL     1      -0.563  12.181  19.754  0.00  0.00    +0.000 A 
ATOM      6  C   UNL     1       0.664  11.619  19.379  0.00  0.00    +0.000 A 
ENDROOT
BRANCH   6   7
ATOM      7  C   UNL     1       1.947  12.433  19.578  0.00  0.00    +0.000 C 
ATOM      8  O   UNL     1       1.768  13.356  20.669  0.00  0.00    +0.000 OA
ATOM      9  C   UNL     1       2.851  14.272  20.856  0.00  0.00    +0.000 C 
ATOM     10  C   UNL     1       3.059  15.139  19.606  0.00  0.00    +0.000 C 
ATOM     11  C   UNL     1       3.311  14.244  18.396  0.00  0.00    +0.000 C 
ATOM     12  C   UNL     1       2.208  13.198  18.242  0.00  0.00    +0.000 C 
BRANCH  10  13
ATOM     13  O   UNL     1       4.149  16.053  19.809  0.00  0.00    +0.000 OA
ATOM     14  H   UNL     1       4.009  16.822  19.223  0.00  0.00    +0.000 HD
ENDBRANCH  10  13
BRANCH  11  15
ATOM     15  O   UNL     1       3.426  15.072  17.228  0.00  0.00    +0.000 OA
ATOM     16  H   UNL     1       3.862  15.904  17.485  0.00  0.00    +0.000 HD
ENDBRANCH  11  15
BRANCH  12  17
ATOM     17  O   UNL     1       2.591  12.351  17.150  0.00  0.00    +0.000 OA
ATOM     18  H   UNL     1       2.230  11.463  17.325  0.00  0.00    +0.000 HD
ENDBRANCH  12  17
BRANCH   9  19
ATOM     19  C   UNL     1       2.550  15.167  22.070  0.00  0.00    +0.000 C 
BRANCH  19  20
ATOM     20  O   UNL     1       3.511  15.025  23.114  0.00  0.00    +0.000 OA
ATOM     21  H   UNL     1       3.992  15.884  23.184  0.00  0.00    +0.000 HD
ENDBRANCH  19  20
ENDBRANCH   9  19
ENDBRANCH   6   7
BRANCH   3  22
ATOM     22  C   UNL     1      -3.051  10.198  17.595  0.00  0.00    +0.000 C 
ATOM     23  C   UNL     1      -3.626  10.975  16.432  0.00  0.00    +0.000 C 
ATOM     24  C   UNL     1      -2.934   9.669  16.186  0.00  0.00    +0.000 C 
ENDBRANCH   3  22
BRANCH   1  26
ATOM     25  C   UNL     1       1.813   8.532  17.875  0.00  0.00    +0.000 C 
ATOM     26  O   UNL     1       1.859   9.915  18.242  0.00  0.00    +0.000 OA
ENDBRANCH   1  26
BRANCH   4  27
ATOM     27  C   UNL     1      -3.006  12.610  19.432  0.00  0.00    +0.000 C 
BRANCH  27  28
ATOM     28  C   UNL     1      -3.087  13.216  20.825  0.00  0.00    +0.000 A 
ATOM     29  C   UNL     1      -2.589  14.520  21.091  0.00  0.00    +0.000 A 
ATOM     30  C   UNL     1      -2.625  15.072  22.376  0.00  0.00    +0.000 A 
ATOM     31  C   UNL     1      -3.146  14.297  23.377  0.00  0.00    +0.000 A 
ATOM     32  C   UNL     1      -3.623  13.024  23.142  0.00  0.00    +0.000 A 
ATOM     33  C   UNL     1      -3.614  12.462  21.886  0.00  0.00    +0.000 A 
ATOM     34  C   UNL     1      -3.977  12.791  24.579  0.00  0.00    +0.000 C 
ATOM     35  C   UNL     1      -3.446  14.237  24.845  0.00  0.00    +0.000 C 
ENDBRANCH  27  28
ENDBRANCH   4  27
TORSDOF 10
ENDMDL
MODEL 7
REMARK VINA RESULT:      -7.3      4.453      7.600
REMARK  Name = 
REMARK  11 active torsions:
REMARK  status: ('A' for Active; 'I' for Inactive)
REMARK    1  A    between atoms: C_1  and  O_2
REMARK    2  A    between atoms: O_2  and  C_3
REMARK    3  A    between atoms: C_5  and  C_6
REMARK    4  A    between atoms: C_9  and  C_10
REMARK    5  A    between atoms: C_10  and  C_11
REMARK    6  A    between atoms: C_20  and  C_21
REMARK    7  A    between atoms: C_23  and  C_24
REMARK    8  A    between atoms: C_24  and  O_25
REMARK    9  A    between atoms: C_26  and  O_27
REMARK   10  A    between atoms: C_28  and  O_29
REMARK   11  A    between atoms: C_30  and  O_31
REMARK                            x       y       z     vdW  Elec       q    Type
REMARK                         _______ _______ _______ _____ _____    ______ ____
ROOT
ATOM      1  C   UNL     1       0.614  10.698  19.074  0.00  0.00    +0.000 A 
ATOM      2  C   UNL     1      -0.689  10.309  18.733  0.00  0.00    +0.000 A 
ATOM      3  C   UNL     1      -1.798  11.161  18.897  0.00  0.00    +0.000 A 
ATOM      4  C   UNL     1      -1.580  12.379  19.576  0.00  0.00    +0.000 A 
ATOM      5  C   UNL     1      -0.288  12.711  20.027  0.00  0.00    +0.000 A 
ATOM      6  C   UNL     1       0.831  11.937  19.692  0.00  0.00    +0.000 A 
ENDROOT
BRANCH   6   7
ATOM      7  C   UNL     1       2.219  12.585  19.725  0.00  0.00    +0.000 C 
ATOM      8  O   UNL     1       2.296  13.503  20.831  0.00  0.00    +0.000 OA
ATOM      9  C   UNL     1       3.499  14.277  20.879  0.00  0.00    +0.000 C 
ATOM     10  C   UNL     1       3.652  15.134  19.614  0.00  0.00    +0.000 C 
ATOM     11  C   UNL     1       3.635  14.236  18.380  0.00  0.00    +0.000 C 
ATOM     12  C   UNL     1       2.400  13.335  18.368  0.00  0.00    +0.000 C 
BRANCH  10  13
ATOM     13  O   UNL     1       4.863  15.903  19.676  0.00  0.00    +0.000 OA
ATOM     14  H   UNL     1       5.197  15.865  20.593  0.00  0.00    +0.000 HD
ENDBRANCH  10  13
BRANCH  11  15
ATOM     15  O   UNL     1       3.701  15.063  17.208  0.00  0.00    +0.000 OA
ATOM     16  H   UNL     1       2.977  14.806  16.611  0.00  0.00    +0.000 HD
ENDBRANCH  11  15
BRANCH  12  17
ATOM     17  O   UNL     1       2.532  12.467  17.234  0.00  0.00    +0.000 OA
ATOM     18  H   UNL     1       1.668  12.434  16.786  0.00  0.00    +0.000 HD
ENDBRANCH  12  17
BRANCH   9  19
ATOM     19  C   UNL     1       3.468  15.180  22.123  0.00  0.00    +0.000 C 
BRANCH  19  20
ATOM     20  O   UNL     1       4.138  14.603  23.243  0.00  0.00    +0.000 OA
ATOM     21  H   UNL     1       4.787  13.950  22.887  0.00  0.00    +0.000 HD
ENDBRANCH  19  20
ENDBRANCH   9  19
ENDBRANCH   6   7
BRANCH   3  22
ATOM     22  C   UNL     1      -3.133  10.816  18.267  0.00  0.00    +0.000 C 
ATOM     23  C   UNL     1      -3.524  11.242  16.869  0.00  0.00    +0.000 C 
ATOM     24  C   UNL     1      -3.188   9.808  17.144  0.00  0.00    +0.000 C 
ENDBRANCH   3  22
BRANCH   1  26
ATOM     25  C   UNL     1       1.527   8.976  17.732  0.00  0.00    +0.000 C 
ATOM     26  O   UNL     1       1.724   9.945  18.768  0.00  0.00    +0.000 OA
ENDBRANCH   1  26
BRANCH   4  27
ATOM     27  C   UNL     1      -2.667  13.428  19.735  0.00  0.00    +0.000 C 
BRANCH  27  28
ATOM     28  C   UNL     1      -3.650  13.151  20.862  0.00  0.00    +0.000 A 
ATOM     29  C   UNL     1      -5.052  13.126  20.628  0.00  0.00    +0.000 A 
ATOM     30  C   UNL     1      -5.966  12.909  21.665  0.00  0.00    +0.000 A 
ATOM     31  C   UNL     1      -5.457  12.736  22.923  0.00  0.00    +0.000 A 
ATOM     32  C   UNL     1      -4.100  12.768  23.174  0.00  0.00    +0.000 A 
ATOM     33  C   UNL     1      -3.178  12.965  22.172  0.00  0.00    +0.000 A 
ATOM     34  C   UNL     1      -4.273  12.555  24.647  0.00  0.00    +0.000 C 
ATOM     35  C   UNL     1      -5.809  12.508  24.363  0.00  0.00    +0.000 C 
ENDBRANCH  27  28
ENDBRANCH   4  27
TORSDOF 10
ENDMDL
MODEL 8
REMARK VINA RESULT:      -7.3      5.592      9.208
REMARK  Name = 
REMARK  11 active torsions:
REMARK  status: ('A' for Active; 'I' for Inactive)
REMARK    1  A    between atoms: C_1  and  O_2
REMARK    2  A    between atoms: O_2  and  C_3
REMARK    3  A    between atoms: C_5  and  C_6
REMARK    4  A    between atoms: C_9  and  C_10
REMARK    5  A    between atoms: C_10  and  C_11
REMARK    6  A    between atoms: C_20  and  C_21
REMARK    7  A    between atoms: C_23  and  C_24
REMARK    8  A    between atoms: C_24  and  O_25
REMARK    9  A    between atoms: C_26  and  O_27
REMARK   10  A    between atoms: C_28  and  O_29
REMARK   11  A    between atoms: C_30  and  O_31
REMARK                            x       y       z     vdW  Elec       q    Type
REMARK                         _______ _______ _______ _____ _____    ______ ____
ROOT
ATOM      1  C   UNL     1      -0.798  10.093  21.639  0.00  0.00    +0.000 A 
ATOM      2  C   UNL     1      -0.223   9.640  20.444  0.00  0.00    +0.000 A 
ATOM      3  C   UNL     1      -0.157  10.440  19.287  0.00  0.00    +0.000 A 
ATOM      4  C   UNL     1      -0.842  11.675  19.318  0.00  0.00    +0.000 A 
ATOM      5  C   UNL     1      -1.522  12.072  20.484  0.00  0.00    +0.000 A 
ATOM      6  C   UNL     1      -1.422  11.348  21.679  0.00  0.00    +0.000 A 
ENDROOT
BRANCH   6   7
ATOM      7  C   UNL     1      -1.705  12.061  23.006  0.00  0.00    +0.000 C 
ATOM      8  O   UNL     1      -3.108  11.965  23.314  0.00  0.00    +0.000 OA
ATOM      9  C   UNL     1      -3.518  12.718  24.460  0.00  0.00    +0.000 C 
ATOM     10  C   UNL     1      -3.235  14.215  24.263  0.00  0.00    +0.000 C 
ATOM     11  C   UNL     1      -1.751  14.424  23.981  0.00  0.00    +0.000 C 
ATOM     12  C   UNL     1      -1.279  13.552  22.818  0.00  0.00    +0.000 C 
BRANCH  10  13
ATOM     13  O   UNL     1      -3.651  14.957  25.421  0.00  0.00    +0.000 OA
ATOM     14  H   UNL     1      -3.040  15.710  25.530  0.00  0.00    +0.000 HD
ENDBRANCH  10  13
BRANCH  11  15
ATOM     15  O   UNL     1      -1.524  15.819  23.725  0.00  0.00    +0.000 OA
ATOM     16  H   UNL     1      -1.687  16.311  24.550  0.00  0.00    +0.000 HD
ENDBRANCH  11  15
BRANCH  12  17
ATOM     17  O   UNL     1       0.137  13.744  22.705  0.00  0.00    +0.000 OA
ATOM     18  H   UNL     1       0.304  14.704  22.691  0.00  0.00    +0.000 HD
ENDBRANCH  12  17
BRANCH   9  19
ATOM     19  C   UNL     1      -5.021  12.495  24.698  0.00  0.00    +0.000 C 
BRANCH  19  20
ATOM     20  O   UNL     1      -5.821  13.585  24.244  0.00  0.00    +0.000 OA
ATOM     21  H   UNL     1      -5.249  14.142  23.663  0.00  0.00    +0.000 HD
ENDBRANCH  19  20
ENDBRANCH   9  19
ENDBRANCH   6   7
BRANCH   3  22
ATOM     22  C   UNL     1       0.709  10.027  18.113  0.00  0.00    +0.000 C 
ATOM     23  C   UNL     1       2.205  10.246  18.069  0.00  0.00    +0.000 C 
ATOM     24  C   UNL     1       1.660   8.864  18.263  0.00  0.00    +0.000 C 
ENDBRANCH   3  22
BRANCH   1  26
ATOM     25  C   UNL     1       0.596   9.263  23.361  0.00  0.00    +0.000 C 
ATOM     26  O   UNL     1      -0.723   9.390  22.819  0.00  0.00    +0.000 OA
ENDBRANCH   1  26
BRANCH   4  27
ATOM     27  C   UNL     1      -0.771  12.673  18.175  0.00  0.00    +0.000 C 
BRANCH  27  28
ATOM     28  C   UNL     1       0.174  13.840  18.416  0.00  0.00    +0.000 A 
ATOM     29  C   UNL     1      -0.319  15.131  18.747  0.00  0.00    +0.000 A 
ATOM     30  C   UNL     1       0.540  16.220  18.934  0.00  0.00    +0.000 A 
ATOM     31  C   UNL     1       1.880  15.996  18.770  0.00  0.00    +0.000 A 
ATOM     32  C   UNL     1       2.379  14.754  18.437  0.00  0.00    +0.000 A 
ATOM     33  C   UNL     1       1.559  13.663  18.262  0.00  0.00    +0.000 A 
ATOM     34  C   UNL     1       3.799  15.230  18.400  0.00  0.00    +0.000 C 
ATOM     35  C   UNL     1       3.236  16.636  18.787  0.00  0.00    +0.000 C 
ENDBRANCH  27  28
ENDBRANCH   4  27
TORSDOF 10
ENDMDL
MODEL 9
REMARK VINA RESULT:      -7.3      4.611      8.211
REMARK  Name = 
REMARK  11 active torsions:
REMARK  status: ('A' for Active; 'I' for Inactive)
REMARK    1  A    between atoms: C_1  and  O_2
REMARK    2  A    between atoms: O_2  and  C_3
REMARK    3  A    between atoms: C_5  and  C_6
REMARK    4  A    between atoms: C_9  and  C_10
REMARK    5  A    between atoms: C_10  and  C_11
REMARK    6  A    between atoms: C_20  and  C_21
REMARK    7  A    between atoms: C_23  and  C_24
REMARK    8  A    between atoms: C_24  and  O_25
REMARK    9  A    between atoms: C_26  and  O_27
REMARK   10  A    between atoms: C_28  and  O_29
REMARK   11  A    between atoms: C_30  and  O_31
REMARK                            x       y       z     vdW  Elec       q    Type
REMARK                         _______ _______ _______ _____ _____    ______ ____
ROOT
ATOM      1  C   UNL     1      -0.319  10.665  18.732  0.00  0.00    +0.000 A 
ATOM      2  C   UNL     1      -1.204  10.010  17.865  0.00  0.00    +0.000 A 
ATOM      3  C   UNL     1      -2.509  10.481  17.621  0.00  0.00    +0.000 A 
ATOM      4  C   UNL     1      -2.963  11.558  18.412  0.00  0.00    +0.000 A 
ATOM      5  C   UNL     1      -2.109  12.136  19.370  0.00  0.00    +0.000 A 
ATOM      6  C   UNL     1      -0.760  11.774  19.468  0.00  0.00    +0.000 A 
ENDROOT
BRANCH   6   7
ATOM      7  C   UNL     1       0.229  12.756  20.107  0.00  0.00    +0.000 C 
ATOM      8  O   UNL     1      -0.431  13.487  21.158  0.00  0.00    +0.000 OA
ATOM      9  C   UNL     1       0.353  14.537  21.734  0.00  0.00    +0.000 C 
ATOM     10  C   UNL     1       0.735  15.581  20.675  0.00  0.00    +0.000 C 
ATOM     11  C   UNL     1       1.491  14.905  19.536  0.00  0.00    +0.000 C 
ATOM     12  C   UNL     1       0.704  13.721  18.975  0.00  0.00    +0.000 C 
BRANCH  10  13
ATOM     13  O   UNL     1       1.521  16.628  21.268  0.00  0.00    +0.000 OA
ATOM     14  H   UNL     1       1.008  17.457  21.212  0.00  0.00    +0.000 HD
ENDBRANCH  10  13
BRANCH  11  15
ATOM     15  O   UNL     1       1.769  15.885  18.523  0.00  0.00    +0.000 OA
ATOM     16  H   UNL     1       2.227  15.442  17.787  0.00  0.00    +0.000 HD
ENDBRANCH  11  15
BRANCH  12  17
ATOM     17  O   UNL     1       1.539  13.098  17.991  0.00  0.00    +0.000 OA
ATOM     18  H   UNL     1       0.972  12.843  17.241  0.00  0.00    +0.000 HD
ENDBRANCH  12  17
BRANCH   9  19
ATOM     19  C   UNL     1      -0.450  15.204  22.863  0.00  0.00    +0.000 C 
BRANCH  19  20
ATOM     20  O   UNL     1      -0.804  14.293  23.902  0.00  0.00    +0.000 OA
ATOM     21  H   UNL     1      -0.574  13.388  23.586  0.00  0.00    +0.000 HD
ENDBRANCH  19  20
ENDBRANCH   9  19
ENDBRANCH   6   7
BRANCH   3  22
ATOM     22  C   UNL     1      -3.331   9.914  16.479  0.00  0.00    +0.000 C 
ATOM     23  C   UNL     1      -3.677  10.704  15.237  0.00  0.00    +0.000 C 
ATOM     24  C   UNL     1      -2.661   9.605  15.162  0.00  0.00    +0.000 C 
ENDBRANCH   3  22
BRANCH   1  26
ATOM     25  C   UNL     1       1.450   9.313  17.933  0.00  0.00    +0.000 C 
ATOM     26  O   UNL     1       1.006  10.315  18.854  0.00  0.00    +0.000 OA
ENDBRANCH   1  26
BRANCH   4  27
ATOM     27  C   UNL     1      -4.311  12.222  18.185  0.00  0.00    +0.000 C 
BRANCH  27  28
ATOM     28  C   UNL     1      -5.339  11.945  19.271  0.00  0.00    +0.000 A 
ATOM     29  C   UNL     1      -6.385  11.004  19.073  0.00  0.00    +0.000 A 
ATOM     30  C   UNL     1      -7.357  10.769  20.052  0.00  0.00    +0.000 A 
ATOM     31  C   UNL     1      -7.272  11.498  21.207  0.00  0.00    +0.000 A 
ATOM     32  C   UNL     1      -6.273  12.426  21.415  0.00  0.00    +0.000 A 
ATOM     33  C   UNL     1      -5.295  12.666  20.476  0.00  0.00    +0.000 A 
ATOM     34  C   UNL     1      -6.789  12.819  22.765  0.00  0.00    +0.000 C 
ATOM     35  C   UNL     1      -7.916  11.761  22.535  0.00  0.00    +0.000 C 
ENDBRANCH  27  28
ENDBRANCH   4  27
TORSDOF 10
ENDMDL
