MODEL 1
REMARK VINA RESULT:      -7.3      0.000      0.000
REMARK  Name = 
REMARK  10 active torsions:
REMARK  status: ('A' for Active; 'I' for Inactive)
REMARK    1  A    between atoms: C_1  and  C_2
REMARK    2  A    between atoms: N_4  and  C_5
REMARK    3  A    between atoms: C_5  and  C_6
REMARK    4  A    between atoms: C_10  and  C_11
REMARK    5  A    between atoms: C_11  and  N_12
REMARK    6  A    between atoms: N_15  and  C_16
REMARK    7  A    between atoms: C_21  and  O_22
REMARK    8  A    between atoms: O_22  and  C_23
REMARK    9  A    between atoms: C_23  and  C_24
REMARK   10  A    between atoms: C_23  and  C_25
REMARK                            x       y       z     vdW  Elec       q    Type
REMARK                         _______ _______ _______ _____ _____    ______ ____
ROOT
ATOM      1  N   UNL     1       2.399   7.456  19.588  0.00  0.00    +0.000 NA
ATOM      2  C   UNL     1       2.387   8.243  18.344  0.00  0.00    +0.000 C 
ATOM      3  C   UNL     1       1.221   9.238  18.084  0.00  0.00    +0.000 C 
ATOM      4  N   UNL     1       0.729   9.898  19.305  0.00  0.00    +0.000 N 
ATOM      5  C   UNL     1       0.650   9.061  20.511  0.00  0.00    +0.000 C 
ATOM      6  C   UNL     1       1.957   8.275  20.725  0.00  0.00    +0.000 C 
ENDROOT
BRANCH   4   7
ATOM      7  C   UNL     1       0.128  11.153  19.262  0.00  0.00    +0.000 A 
ATOM      8  C   UNL     1       0.875  12.283  19.676  0.00  0.00    +0.000 A 
ATOM      9  C   UNL     1       0.294  13.532  19.936  0.00  0.00    +0.000 A 
ATOM     10  C   UNL     1      -1.074  13.700  19.796  0.00  0.00    +0.000 A 
ATOM     11  C   UNL     1      -1.832  12.647  19.300  0.00  0.00    +0.000 A 
ATOM     12  C   UNL     1      -1.234  11.411  18.972  0.00  0.00    +0.000 A 
BRANCH  12  13
ATOM     13  O   UNL     1      -2.133  10.544  18.400  0.00  0.00    +0.000 OA
BRANCH  13  14
ATOM     14  C   UNL     1      -2.977  11.072  17.370  0.00  0.00    +0.000 C 
ATOM     15  C   UNL     1      -2.502  10.391  16.088  0.00  0.00    +0.000 C 
ATOM     16  C   UNL     1      -4.466  10.813  17.585  0.00  0.00    +0.000 C 
ENDBRANCH  13  14
ENDBRANCH  12  13
ENDBRANCH   4   7
BRANCH   1  17
ATOM     17  C   UNL     1       1.755   6.139  19.488  0.00  0.00    +0.000 C 
BRANCH  17  22
ATOM     18  C   UNL     1       4.860   4.342  18.109  0.00  0.00    +0.000 A 
ATOM     19  C   UNL     1       4.280   3.486  17.161  0.00  0.00    +0.000 A 
ATOM     20  C   UNL     1       2.892   3.452  16.995  0.00  0.00    +0.000 A 
ATOM     21  C   UNL     1       2.067   4.283  17.762  0.00  0.00    +0.000 A 
ATOM     22  C   UNL     1       2.620   5.152  18.710  0.00  0.00    +0.000 A 
ATOM     23  C   UNL     1       4.013   5.130  18.905  0.00  0.00    +0.000 A 
BRANCH  18  24
ATOM     24  C   UNL     1       6.352   4.518  18.200  0.00  0.00    +0.000 C 
BRANCH  24  28
ATOM     25  C   UNL     1       7.566   8.026  17.538  0.00  0.00    +0.000 C 
ATOM     26  C   UNL     1       7.272   6.575  17.286  0.00  0.00    +0.000 C 
ATOM     27  O   UNL     1       7.487   6.046  16.204  0.00  0.00    +0.000 OA
ATOM     28  N   UNL     1       6.776   5.884  18.382  0.00  0.00    +0.000 N 
ATOM     29  H   UNL     1       6.448   6.395  19.190  0.00  0.00    +0.000 HD
ENDBRANCH  24  28
ENDBRANCH  18  24
ENDBRANCH  17  22
ENDBRANCH   1  17
TORSDOF 7
ENDMDL
MODEL 2
REMARK VINA RESULT:      -7.3      1.505      1.758
REMARK  Name = 
REMARK  10 active torsions:
REMARK  status: ('A' for Active; 'I' for Inactive)
REMARK    1  A    between atoms: C_1  and  C_2
REMARK    2  A    between atoms: N_4  and  C_5
REMARK    3  A    between atoms: C_5  and  C_6
REMARK    4  A    between atoms: C_10  and  C_11
REMARK    5  A    between atoms: C_11  and  N_12
REMARK    6  A    between atoms: N_15  and  C_16
REMARK    7  A    between atoms: C_21  and  O_22
REMARK    8  A    between atoms: O_22  and  C_23
REMARK    9  A    between atoms: C_23  and  C_24
REMARK   10  A    between atoms: C_23  and  C_25
REMARK                            x       y       z     vdW  Elec       q    Type
REMARK                         _______ _______ _______ _____ _____    ______ ____
ROOT
ATOM      1  N   UNL     1       1.939   7.410  20.489  0.00  0.00    +0.000 NA
ATOM      2  C   UNL     1       2.323   7.875  19.146  0.00  0.00    +0.000 C 
ATOM      3  C   UNL     1       1.427   8.916  18.416  0.00  0.00    +0.000 C 
ATOM      4  N   UNL     1       0.813   9.900  19.322  0.00  0.00    +0.000 N 
ATOM      5  C   UNL     1       0.340   9.389  20.617  0.00  0.00    +0.000 C 
ATOM      6  C   UNL     1       1.417   8.522  21.294  0.00  0.00    +0.000 C 
ENDROOT
BRANCH   4   7
ATOM      7  C   UNL     1       0.460  11.173  18.882  0.00  0.00    +0.000 A 
ATOM      8  C   UNL     1       1.464  12.170  18.800  0.00  0.00    +0.000 A 
ATOM      9  C   UNL     1       1.177  13.533  18.642  0.00  0.00    +0.000 A 
ATOM     10  C   UNL     1      -0.139  13.958  18.565  0.00  0.00    +0.000 A 
ATOM     11  C   UNL     1      -1.151  13.007  18.544  0.00  0.00    +0.000 A 
ATOM     12  C   UNL     1      -0.857  11.629  18.632  0.00  0.00    +0.000 A 
BRANCH  12  13
ATOM     13  O   UNL     1      -1.983  10.856  18.485  0.00  0.00    +0.000 OA
BRANCH  13  14
ATOM     14  C   UNL     1      -2.808  11.123  17.345  0.00  0.00    +0.000 C 
ATOM     15  C   UNL     1      -2.491   9.998  16.362  0.00  0.00    +0.000 C 
ATOM     16  C   UNL     1      -4.304  11.155  17.647  0.00  0.00    +0.000 C 
ENDBRANCH  13  14
ENDBRANCH  12  13
ENDBRANCH   4   7
BRANCH   1  17
ATOM     17  C   UNL     1       1.112   6.195  20.503  0.00  0.00    +0.000 C 
BRANCH  17  22
ATOM     18  C   UNL     1       3.840   3.673  19.521  0.00  0.00    +0.000 A 
ATOM     19  C   UNL     1       3.477   2.563  20.298  0.00  0.00    +0.000 A 
ATOM     20  C   UNL     1       2.385   2.637  21.169  0.00  0.00    +0.000 A 
ATOM     21  C   UNL     1       1.635   3.814  21.265  0.00  0.00    +0.000 A 
ATOM     22  C   UNL     1       1.971   4.935  20.495  0.00  0.00    +0.000 A 
ATOM     23  C   UNL     1       3.107   4.861  19.668  0.00  0.00    +0.000 A 
BRANCH  18  24
ATOM     24  C   UNL     1       4.905   3.575  18.461  0.00  0.00    +0.000 C 
BRANCH  24  28
ATOM     25  C   UNL     1       7.845   5.845  19.111  0.00  0.00    +0.000 C 
ATOM     26  C   UNL     1       6.544   5.370  18.531  0.00  0.00    +0.000 C 
ATOM     27  O   UNL     1       5.867   6.070  17.789  0.00  0.00    +0.000 OA
ATOM     28  N   UNL     1       6.194   4.072  18.873  0.00  0.00    +0.000 N 
ATOM     29  H   UNL     1       6.684   3.603  19.623  0.00  0.00    +0.000 HD
ENDBRANCH  24  28
ENDBRANCH  18  24
ENDBRANCH  17  22
ENDBRANCH   1  17
TORSDOF 7
ENDMDL
MODEL 3
REMARK VINA RESULT:      -7.2      1.322      1.427
REMARK  Name = 
REMARK  10 active torsions:
REMARK  status: ('A' for Active; 'I' for Inactive)
REMARK    1  A    between atoms: C_1  and  C_2
REMARK    2  A    between atoms: N_4  and  C_5
REMARK    3  A    between atoms: C_5  and  C_6
REMARK    4  A    between atoms: C_10  and  C_11
REMARK    5  A    between atoms: C_11  and  N_12
REMARK    6  A    between atoms: N_15  and  C_16
REMARK    7  A    between atoms: C_21  and  O_22
REMARK    8  A    between atoms: O_22  and  C_23
REMARK    9  A    between atoms: C_23  and  C_24
REMARK   10  A    between atoms: C_23  and  C_25
REMARK                            x       y       z     vdW  Elec       q    Type
REMARK                         _______ _______ _______ _____ _____    ______ ____
ROOT
ATOM      1  N   UNL     1       2.184   7.168  20.130  0.00  0.00    +0.000 NA
ATOM      2  C   UNL     1       2.472   7.689  18.783  0.00  0.00    +0.000 C 
ATOM      3  C   UNL     1       1.504   8.726  18.145  0.00  0.00    +0.000 C 
ATOM      4  N   UNL     1       0.920   9.661  19.121  0.00  0.00    +0.000 N 
ATOM      5  C   UNL     1       0.542   9.093  20.423  0.00  0.00    +0.000 C 
ATOM      6  C   UNL     1       1.683   8.237  21.004  0.00  0.00    +0.000 C 
ENDROOT
BRANCH   4   7
ATOM      7  C   UNL     1       0.505  10.936  18.748  0.00  0.00    +0.000 A 
ATOM      8  C   UNL     1       1.459  11.984  18.722  0.00  0.00    +0.000 A 
ATOM      9  C   UNL     1       1.106  13.338  18.634  0.00  0.00    +0.000 A 
ATOM     10  C   UNL     1      -0.229  13.702  18.576  0.00  0.00    +0.000 A 
ATOM     11  C   UNL     1      -1.193  12.705  18.502  0.00  0.00    +0.000 A 
ATOM     12  C   UNL     1      -0.832  11.340  18.519  0.00  0.00    +0.000 A 
BRANCH  12  13
ATOM     13  O   UNL     1      -1.919  10.522  18.328  0.00  0.00    +0.000 OA
BRANCH  13  14
ATOM     14  C   UNL     1      -2.859  10.917  17.321  0.00  0.00    +0.000 C 
ATOM     15  C   UNL     1      -2.575   9.993  16.138  0.00  0.00    +0.000 C 
ATOM     16  C   UNL     1      -4.320  10.796  17.746  0.00  0.00    +0.000 C 
ENDBRANCH  13  14
ENDBRANCH  12  13
ENDBRANCH   4   7
BRANCH   1  17
ATOM     17  C   UNL     1       1.394   5.929  20.152  0.00  0.00    +0.000 C 
BRANCH  17  22
ATOM     18  C   UNL     1       4.066   3.975  18.202  0.00  0.00    +0.000 A 
ATOM     19  C   UNL     1       3.305   2.917  17.683  0.00  0.00    +0.000 A 
ATOM     20  C   UNL     1       1.946   2.805  17.994  0.00  0.00    +0.000 A 
ATOM     21  C   UNL     1       1.328   3.755  18.814  0.00  0.00    +0.000 A 
ATOM     22  C   UNL     1       2.063   4.825  19.340  0.00  0.00    +0.000 A 
ATOM     23  C   UNL     1       3.441   4.889  19.064  0.00  0.00    +0.000 A 
BRANCH  18  24
ATOM     24  C   UNL     1       5.486   4.211  17.759  0.00  0.00    +0.000 C 
BRANCH  24  28
ATOM     25  C   UNL     1       6.940   4.746  14.322  0.00  0.00    +0.000 C 
ATOM     26  C   UNL     1       6.899   4.557  15.811  0.00  0.00    +0.000 C 
ATOM     27  O   UNL     1       7.917   4.484  16.486  0.00  0.00    +0.000 OA
ATOM     28  N   UNL     1       5.624   4.510  16.356  0.00  0.00    +0.000 N 
ATOM     29  H   UNL     1       4.825   4.394  15.748  0.00  0.00    +0.000 HD
ENDBRANCH  24  28
ENDBRANCH  18  24
ENDBRANCH  17  22
ENDBRANCH   1  17
TORSDOF 7
ENDMDL
MODEL 4
REMARK VINA RESULT:      -7.2      2.597      3.901
REMARK  Name = 
REMARK  10 active torsions:
REMARK  status: ('A' for Active; 'I' for Inactive)
REMARK    1  A    between atoms: C_1  and  C_2
REMARK    2  A    between atoms: N_4  and  C_5
REMARK    3  A    between atoms: C_5  and  C_6
REMARK    4  A    between atoms: C_10  and  C_11
REMARK    5  A    between atoms: C_11  and  N_12
REMARK    6  A    between atoms: N_15  and  C_16
REMARK    7  A    between atoms: C_21  and  O_22
REMARK    8  A    between atoms: O_22  and  C_23
REMARK    9  A    between atoms: C_23  and  C_24
REMARK   10  A    between atoms: C_23  and  C_25
REMARK                            x       y       z     vdW  Elec       q    Type
REMARK                         _______ _______ _______ _____ _____    ______ ____
ROOT
ATOM      1  N   UNL     1       2.192   7.539  18.120  0.00  0.00    +0.000 NA
ATOM      2  C   UNL     1       1.951   7.070  19.495  0.00  0.00    +0.000 C 
ATOM      3  C   UNL     1       1.812   8.111  20.642  0.00  0.00    +0.000 C 
ATOM      4  N   UNL     1       1.145   9.356  20.227  0.00  0.00    +0.000 N 
ATOM      5  C   UNL     1       1.484   9.863  18.889  0.00  0.00    +0.000 C 
ATOM      6  C   UNL     1       1.398   8.742  17.836  0.00  0.00    +0.000 C 
ENDROOT
BRANCH   4   7
ATOM      7  C   UNL     1       0.446  10.145  21.136  0.00  0.00    +0.000 A 
ATOM      8  C   UNL     1       0.084   9.587  22.387  0.00  0.00    +0.000 A 
ATOM      9  C   UNL     1      -0.844  10.184  23.251  0.00  0.00    +0.000 A 
ATOM     10  C   UNL     1      -1.459  11.372  22.892  0.00  0.00    +0.000 A 
ATOM     11  C   UNL     1      -1.064  12.004  21.719  0.00  0.00    +0.000 A 
ATOM     12  C   UNL     1      -0.077  11.436  20.885  0.00  0.00    +0.000 A 
BRANCH  12  13
ATOM     13  O   UNL     1       0.245  12.266  19.838  0.00  0.00    +0.000 OA
BRANCH  13  14
ATOM     14  C   UNL     1      -0.842  12.912  19.165  0.00  0.00    +0.000 C 
ATOM     15  C   UNL     1      -0.240  14.193  18.591  0.00  0.00    +0.000 C 
ATOM     16  C   UNL     1      -1.473  12.080  18.051  0.00  0.00    +0.000 C 
ENDBRANCH  13  14
ENDBRANCH  12  13
ENDBRANCH   4   7
BRANCH   1  17
ATOM     17  C   UNL     1       3.609   7.631  17.744  0.00  0.00    +0.000 C 
BRANCH  17  22
ATOM     18  C   UNL     1       4.117   3.867  17.159  0.00  0.00    +0.000 A 
ATOM     19  C   UNL     1       5.143   3.876  16.203  0.00  0.00    +0.000 A 
ATOM     20  C   UNL     1       5.642   5.088  15.713  0.00  0.00    +0.000 A 
ATOM     21  C   UNL     1       5.133   6.303  16.182  0.00  0.00    +0.000 A 
ATOM     22  C   UNL     1       4.112   6.323  17.141  0.00  0.00    +0.000 A 
ATOM     23  C   UNL     1       3.583   5.096  17.579  0.00  0.00    +0.000 A 
BRANCH  18  24
ATOM     24  C   UNL     1       3.671   2.590  17.820  0.00  0.00    +0.000 C 
BRANCH  24  28
ATOM     25  C   UNL     1       1.529   2.631  20.923  0.00  0.00    +0.000 C 
ATOM     26  C   UNL     1       1.879   2.567  19.464  0.00  0.00    +0.000 C 
ATOM     27  O   UNL     1       1.032   2.395  18.598  0.00  0.00    +0.000 OA
ATOM     28  N   UNL     1       3.224   2.755  19.181  0.00  0.00    +0.000 N 
ATOM     29  H   UNL     1       3.903   2.712  19.929  0.00  0.00    +0.000 HD
ENDBRANCH  24  28
ENDBRANCH  18  24
ENDBRANCH  17  22
ENDBRANCH   1  17
TORSDOF 7
ENDMDL
MODEL 5
REMARK VINA RESULT:      -7.1      2.651      3.897
REMARK  Name = 
REMARK  10 active torsions:
REMARK  status: ('A' for Active; 'I' for Inactive)
REMARK    1  A    between atoms: C_1  and  C_2
REMARK    2  A    between atoms: N_4  and  C_5
REMARK    3  A    between atoms: C_5  and  C_6
REMARK    4  A    between atoms: C_10  and  C_11
REMARK    5  A    between atoms: C_11  and  N_12
REMARK    6  A    between atoms: N_15  and  C_16
REMARK    7  A    between atoms: C_21  and  O_22
REMARK    8  A    between atoms: O_22  and  C_23
REMARK    9  A    between atoms: C_23  and  C_24
REMARK   10  A    between atoms: C_23  and  C_25
REMARK                            x       y       z     vdW  Elec       q    Type
REMARK                         _______ _______ _______ _____ _____    ______ ____
ROOT
ATOM      1  N   UNL     1       2.196   7.583  18.248  0.00  0.00    +0.000 NA
ATOM      2  C   UNL     1       1.893   7.162  19.626  0.00  0.00    +0.000 C 
ATOM      3  C   UNL     1       1.700   8.243  20.727  0.00  0.00    +0.000 C 
ATOM      4  N   UNL     1       1.052   9.471  20.238  0.00  0.00    +0.000 N 
ATOM      5  C   UNL     1       1.452   9.930  18.900  0.00  0.00    +0.000 C 
ATOM      6  C   UNL     1       1.415   8.773  17.885  0.00  0.00    +0.000 C 
ENDROOT
BRANCH   4   7
ATOM      7  C   UNL     1       0.311  10.290  21.086  0.00  0.00    +0.000 A 
ATOM      8  C   UNL     1      -0.005   9.821  22.385  0.00  0.00    +0.000 A 
ATOM      9  C   UNL     1      -0.963  10.431  23.206  0.00  0.00    +0.000 A 
ATOM     10  C   UNL     1      -1.655  11.542  22.754  0.00  0.00    +0.000 A 
ATOM     11  C   UNL     1      -1.310  12.093  21.527  0.00  0.00    +0.000 A 
ATOM     12  C   UNL     1      -0.295  11.519  20.731  0.00  0.00    +0.000 A 
BRANCH  12  13
ATOM     13  O   UNL     1      -0.035  12.274  19.613  0.00  0.00    +0.000 OA
BRANCH  13  14
ATOM     14  C   UNL     1       0.373  13.631  19.827  0.00  0.00    +0.000 C 
ATOM     15  C   UNL     1       1.900  13.584  19.824  0.00  0.00    +0.000 C 
ATOM     16  C   UNL     1      -0.128  14.610  18.769  0.00  0.00    +0.000 C 
ENDBRANCH  13  14
ENDBRANCH  12  13
ENDBRANCH   4   7
BRANCH   1  17
ATOM     17  C   UNL     1       3.629   7.665  17.934  0.00  0.00    +0.000 C 
BRANCH  17  22
ATOM     18  C   UNL     1       4.197   3.965  17.064  0.00  0.00    +0.000 A 
ATOM     19  C   UNL     1       5.125   4.071  16.018  0.00  0.00    +0.000 A 
ATOM     20  C   UNL     1       5.535   5.328  15.561  0.00  0.00    +0.000 A 
ATOM     21  C   UNL     1       5.035   6.493  16.153  0.00  0.00    +0.000 A 
ATOM     22  C   UNL     1       4.113   6.416  17.205  0.00  0.00    +0.000 A 
ATOM     23  C   UNL     1       3.668   5.145  17.611  0.00  0.00    +0.000 A 
BRANCH  18  24
ATOM     24  C   UNL     1       3.859   2.634  17.681  0.00  0.00    +0.000 C 
BRANCH  24  28
ATOM     25  C   UNL     1       2.728   2.776  21.276  0.00  0.00    +0.000 C 
ATOM     26  C   UNL     1       3.632   2.537  20.101  0.00  0.00    +0.000 C 
ATOM     27  O   UNL     1       4.793   2.175  20.235  0.00  0.00    +0.000 OA
ATOM     28  N   UNL     1       3.036   2.723  18.862  0.00  0.00    +0.000 N 
ATOM     29  H   UNL     1       2.142   3.192  18.802  0.00  0.00    +0.000 HD
ENDBRANCH  24  28
ENDBRANCH  18  24
ENDBRANCH  17  22
ENDBRANCH   1  17
TORSDOF 7
ENDMDL
MODEL 6
REMARK VINA RESULT:      -7.1      1.669      2.146
REMARK  Name = 
REMARK  10 active torsions:
REMARK  status: ('A' for Active; 'I' for Inactive)
REMARK    1  A    between atoms: C_1  and  C_2
REMARK    2  A    between atoms: N_4  and  C_5
REMARK    3  A    between atoms: C_5  and  C_6
REMARK    4  A    between atoms: C_10  and  C_11
REMARK    5  A    between atoms: C_11  and  N_12
REMARK    6  A    between atoms: N_15  and  C_16
REMARK    7  A    between atoms: C_21  and  O_22
REMARK    8  A    between atoms: O_22  and  C_23
REMARK    9  A    between atoms: C_23  and  C_24
REMARK   10  A    between atoms: C_23  and  C_25
REMARK                            x       y       z     vdW  Elec       q    Type
REMARK                         _______ _______ _______ _____ _____    ______ ____
ROOT
ATOM      1  N   UNL     1       1.909   9.193  18.861  0.00  0.00    +0.000 NA
ATOM      2  C   UNL     1       1.786  10.602  18.450  0.00  0.00    +0.000 C 
ATOM      3  C   UNL     1       0.419  11.325  18.608  0.00  0.00    +0.000 C 
ATOM      4  N   UNL     1      -0.334  10.902  19.800  0.00  0.00    +0.000 N 
ATOM      5  C   UNL     1      -0.283   9.470  20.130  0.00  0.00    +0.000 C 
ATOM      6  C   UNL     1       1.166   8.950  20.105  0.00  0.00    +0.000 C 
ENDROOT
BRANCH   4   7
ATOM      7  C   UNL     1      -1.249  11.748  20.421  0.00  0.00    +0.000 A 
ATOM      8  C   UNL     1      -1.042  12.100  21.778  0.00  0.00    +0.000 A 
ATOM      9  C   UNL     1      -2.028  12.706  22.570  0.00  0.00    +0.000 A 
ATOM     10  C   UNL     1      -3.274  12.981  22.033  0.00  0.00    +0.000 A 
ATOM     11  C   UNL     1      -3.490  12.741  20.681  0.00  0.00    +0.000 A 
ATOM     12  C   UNL     1      -2.473  12.196  19.868  0.00  0.00    +0.000 A 
BRANCH  12  13
ATOM     13  O   UNL     1      -2.851  12.138  18.548  0.00  0.00    +0.000 OA
BRANCH  13  14
ATOM     14  C   UNL     1      -3.724  11.066  18.170  0.00  0.00    +0.000 C 
ATOM     15  C   UNL     1      -4.656  11.673  17.123  0.00  0.00    +0.000 C 
ATOM     16  C   UNL     1      -3.007   9.847  17.596  0.00  0.00    +0.000 C 
ENDBRANCH  13  14
ENDBRANCH  12  13
ENDBRANCH   4   7
BRANCH   1  17
ATOM     17  C   UNL     1       1.659   8.218  17.791  0.00  0.00    +0.000 C 
BRANCH  17  22
ATOM     18  C   UNL     1       4.872   6.140  17.433  0.00  0.00    +0.000 A 
ATOM     19  C   UNL     1       4.416   4.868  17.806  0.00  0.00    +0.000 A 
ATOM     20  C   UNL     1       3.091   4.684  18.215  0.00  0.00    +0.000 A 
ATOM     21  C   UNL     1       2.202   5.764  18.242  0.00  0.00    +0.000 A 
ATOM     22  C   UNL     1       2.629   7.044  17.868  0.00  0.00    +0.000 A 
ATOM     23  C   UNL     1       3.980   7.222  17.516  0.00  0.00    +0.000 A 
BRANCH  18  24
ATOM     24  C   UNL     1       6.241   6.341  16.839  0.00  0.00    +0.000 C 
BRANCH  24  28
ATOM     25  C   UNL     1       8.408   9.186  18.035  0.00  0.00    +0.000 C 
ATOM     26  C   UNL     1       7.812   7.808  17.975  0.00  0.00    +0.000 C 
ATOM     27  O   UNL     1       8.186   6.905  18.712  0.00  0.00    +0.000 OA
ATOM     28  N   UNL     1       6.789   7.657  17.051  0.00  0.00    +0.000 N 
ATOM     29  H   UNL     1       6.640   8.369  16.349  0.00  0.00    +0.000 HD
ENDBRANCH  24  28
ENDBRANCH  18  24
ENDBRANCH  17  22
ENDBRANCH   1  17
TORSDOF 7
ENDMDL
MODEL 7
REMARK VINA RESULT:      -7.1      2.309      3.062
REMARK  Name = 
REMARK  10 active torsions:
REMARK  status: ('A' for Active; 'I' for Inactive)
REMARK    1  A    between atoms: C_1  and  C_2
REMARK    2  A    between atoms: N_4  and  C_5
REMARK    3  A    between atoms: C_5  and  C_6
REMARK    4  A    between atoms: C_10  and  C_11
REMARK    5  A    between atoms: C_11  and  N_12
REMARK    6  A    between atoms: N_15  and  C_16
REMARK    7  A    between atoms: C_21  and  O_22
REMARK    8  A    between atoms: O_22  and  C_23
REMARK    9  A    between atoms: C_23  and  C_24
REMARK   10  A    between atoms: C_23  and  C_25
REMARK                            x       y       z     vdW  Elec       q    Type
REMARK                         _______ _______ _______ _____ _____    ______ ____
ROOT
ATOM      1  N   UNL     1       2.425   7.523  18.642  0.00  0.00    +0.000 NA
ATOM      2  C   UNL     1       2.109   8.890  18.193  0.00  0.00    +0.000 C 
ATOM      3  C   UNL     1       0.987   9.688  18.915  0.00  0.00    +0.000 C 
ATOM      4  N   UNL     1       0.909   9.417  20.360  0.00  0.00    +0.000 N 
ATOM      5  C   UNL     1       1.123   8.022  20.774  0.00  0.00    +0.000 C 
ATOM      6  C   UNL     1       2.381   7.435  20.108  0.00  0.00    +0.000 C 
ENDROOT
BRANCH   4   7
ATOM      7  C   UNL     1       0.405  10.360  21.251  0.00  0.00    +0.000 A 
ATOM      8  C   UNL     1      -0.369   9.915  22.351  0.00  0.00    +0.000 A 
ATOM      9  C   UNL     1      -1.145  10.777  23.138  0.00  0.00    +0.000 A 
ATOM     10  C   UNL     1      -1.184  12.130  22.850  0.00  0.00    +0.000 A 
ATOM     11  C   UNL     1      -0.367  12.625  21.841  0.00  0.00    +0.000 A 
ATOM     12  C   UNL     1       0.469  11.766  21.095  0.00  0.00    +0.000 A 
BRANCH  12  13
ATOM     13  O   UNL     1       1.271  12.463  20.225  0.00  0.00    +0.000 OA
BRANCH  13  14
ATOM     14  C   UNL     1       0.651  13.512  19.470  0.00  0.00    +0.000 C 
ATOM     15  C   UNL     1       1.806  14.219  18.764  0.00  0.00    +0.000 C 
ATOM     16  C   UNL     1      -0.375  13.026  18.449  0.00  0.00    +0.000 C 
ENDBRANCH  13  14
ENDBRANCH  12  13
ENDBRANCH   4   7
BRANCH   1  17
ATOM     17  C   UNL     1       1.693   6.462  17.937  0.00  0.00    +0.000 C 
BRANCH  17  22
ATOM     18  C   UNL     1       4.560   4.002  17.230  0.00  0.00    +0.000 A 
ATOM     19  C   UNL     1       3.965   2.782  17.585  0.00  0.00    +0.000 A 
ATOM     20  C   UNL     1       2.662   2.753  18.093  0.00  0.00    +0.000 A 
ATOM     21  C   UNL     1       1.932   3.937  18.238  0.00  0.00    +0.000 A 
ATOM     22  C   UNL     1       2.499   5.168  17.885  0.00  0.00    +0.000 A 
ATOM     23  C   UNL     1       3.831   5.185  17.432  0.00  0.00    +0.000 A 
BRANCH  18  24
ATOM     24  C   UNL     1       5.894   4.052  16.535  0.00  0.00    +0.000 C 
BRANCH  24  28
ATOM     25  C   UNL     1       6.667   3.985  12.846  0.00  0.00    +0.000 C 
ATOM     26  C   UNL     1       6.712   4.435  14.277  0.00  0.00    +0.000 C 
ATOM     27  O   UNL     1       7.444   5.340  14.653  0.00  0.00    +0.000 OA
ATOM     28  N   UNL     1       5.835   3.771  15.123  0.00  0.00    +0.000 N 
ATOM     29  H   UNL     1       5.388   2.919  14.811  0.00  0.00    +0.000 HD
ENDBRANCH  24  28
ENDBRANCH  18  24
ENDBRANCH  17  22
ENDBRANCH   1  17
TORSDOF 7
ENDMDL
MODEL 8
REMARK VINA RESULT:      -7.1      0.888      1.120
REMARK  Name = 
REMARK  10 active torsions:
REMARK  status: ('A' for Active; 'I' for Inactive)
REMARK    1  A    between atoms: C_1  and  C_2
REMARK    2  A    between atoms: N_4  and  C_5
REMARK    3  A    between atoms: C_5  and  C_6
REMARK    4  A    between atoms: C_10  and  C_11
REMARK    5  A    between atoms: C_11  and  N_12
REMARK    6  A    between atoms: N_15  and  C_16
REMARK    7  A    between atoms: C_21  and  O_22
REMARK    8  A    between atoms: O_22  and  C_23
REMARK    9  A    between atoms: C_23  and  C_24
REMARK   10  A    between atoms: C_23  and  C_25
REMARK                            x       y       z     vdW  Elec       q    Type
REMARK                         _______ _______ _______ _____ _____    ______ ____
ROOT
ATOM      1  N   UNL     1       2.336   7.722  18.810  0.00  0.00    +0.000 NA
ATOM      2  C   UNL     1       2.602   8.854  17.907  0.00  0.00    +0.000 C 
ATOM      3  C   UNL     1       1.633  10.070  17.905  0.00  0.00    +0.000 C 
ATOM      4  N   UNL     1       1.080  10.382  19.233  0.00  0.00    +0.000 N 
ATOM      5  C   UNL     1       0.722   9.232  20.077  0.00  0.00    +0.000 C 
ATOM      6  C   UNL     1       1.864   8.200  20.117  0.00  0.00    +0.000 C 
ENDROOT
BRANCH   4   7
ATOM      7  C   UNL     1       0.672  11.670  19.567  0.00  0.00    +0.000 A 
ATOM      8  C   UNL     1       1.368  12.363  20.589  0.00  0.00    +0.000 A 
ATOM      9  C   UNL     1       0.880  13.532  21.189  0.00  0.00    +0.000 A 
ATOM     10  C   UNL     1      -0.339  14.056  20.793  0.00  0.00    +0.000 A 
ATOM     11  C   UNL     1      -1.009  13.465  19.730  0.00  0.00    +0.000 A 
ATOM     12  C   UNL     1      -0.482  12.329  19.079  0.00  0.00    +0.000 A 
BRANCH  12  13
ATOM     13  O   UNL     1      -1.239  11.966  17.991  0.00  0.00    +0.000 OA
BRANCH  13  14
ATOM     14  C   UNL     1      -2.140  10.866  18.166  0.00  0.00    +0.000 C 
ATOM     15  C   UNL     1      -3.529  11.501  18.203  0.00  0.00    +0.000 C 
ATOM     16  C   UNL     1      -2.069   9.815  17.062  0.00  0.00    +0.000 C 
ENDBRANCH  13  14
ENDBRANCH  12  13
ENDBRANCH   4   7
BRANCH   1  17
ATOM     17  C   UNL     1       1.532   6.643  18.221  0.00  0.00    +0.000 C 
BRANCH  17  22
ATOM     18  C   UNL     1       4.548   4.304  17.769  0.00  0.00    +0.000 A 
ATOM     19  C   UNL     1       3.909   3.077  17.536  0.00  0.00    +0.000 A 
ATOM     20  C   UNL     1       2.513   2.991  17.568  0.00  0.00    +0.000 A 
ATOM     21  C   UNL     1       1.739   4.129  17.818  0.00  0.00    +0.000 A 
ATOM     22  C   UNL     1       2.351   5.368  18.046  0.00  0.00    +0.000 A 
ATOM     23  C   UNL     1       3.757   5.424  18.069  0.00  0.00    +0.000 A 
BRANCH  18  24
ATOM     24  C   UNL     1       6.034   4.462  17.585  0.00  0.00    +0.000 C 
BRANCH  24  28
ATOM     25  C   UNL     1       7.640   7.872  17.664  0.00  0.00    +0.000 C 
ATOM     26  C   UNL     1       7.250   6.520  17.140  0.00  0.00    +0.000 C 
ATOM     27  O   UNL     1       7.556   6.144  16.016  0.00  0.00    +0.000 OA
ATOM     28  N   UNL     1       6.554   5.727  18.040  0.00  0.00    +0.000 N 
ATOM     29  H   UNL     1       6.171   6.141  18.879  0.00  0.00    +0.000 HD
ENDBRANCH  24  28
ENDBRANCH  18  24
ENDBRANCH  17  22
ENDBRANCH   1  17
TORSDOF 7
ENDMDL
MODEL 9
REMARK VINA RESULT:      -7.0      2.431      3.651
REMARK  Name = 
REMARK  10 active torsions:
REMARK  status: ('A' for Active; 'I' for Inactive)
REMARK    1  A    between atoms: C_1  and  C_2
REMARK    2  A    between atoms: N_4  and  C_5
REMARK    3  A    between atoms: C_5  and  C_6
REMARK    4  A    between atoms: C_10  and  C_11
REMARK    5  A    between atoms: C_11  and  N_12
REMARK    6  A    between atoms: N_15  and  C_16
REMARK    7  A    between atoms: C_21  and  O_22
REMARK    8  A    between atoms: O_22  and  C_23
REMARK    9  A    between atoms: C_23  and  C_24
REMARK   10  A    between atoms: C_23  and  C_25
REMARK                            x       y       z     vdW  Elec       q    Type
REMARK                         _______ _______ _______ _____ _____    ______ ____
ROOT
ATOM      1  N   UNL     1       2.463   7.369  17.821  0.00  0.00    +0.000 NA
ATOM      2  C   UNL     1       2.093   6.722  19.091  0.00  0.00    +0.000 C 
ATOM      3  C   UNL     1       1.933   7.592  20.370  0.00  0.00    +0.000 C 
ATOM      4  N   UNL     1       1.375   8.928  20.105  0.00  0.00    +0.000 N 
ATOM      5  C   UNL     1       1.842   9.600  18.882  0.00  0.00    +0.000 C 
ATOM      6  C   UNL     1       1.766   8.653  17.670  0.00  0.00    +0.000 C 
ENDROOT
BRANCH   4   7
ATOM      7  C   UNL     1       0.660   9.624  21.076  0.00  0.00    +0.000 A 
ATOM      8  C   UNL     1       0.838   9.274  22.437  0.00  0.00    +0.000 A 
ATOM      9  C   UNL     1      -0.020   9.707  23.457  0.00  0.00    +0.000 A 
ATOM     10  C   UNL     1      -1.105  10.511  23.153  0.00  0.00    +0.000 A 
ATOM     11  C   UNL     1      -1.264  10.958  21.847  0.00  0.00    +0.000 A 
ATOM     12  C   UNL     1      -0.358  10.578  20.833  0.00  0.00    +0.000 A 
BRANCH  12  13
ATOM     13  O   UNL     1      -0.628  11.210  19.644  0.00  0.00    +0.000 OA
BRANCH  13  14
ATOM     14  C   UNL     1      -1.811  10.800  18.946  0.00  0.00    +0.000 C 
ATOM     15  C   UNL     1      -2.627  12.080  18.776  0.00  0.00    +0.000 C 
ATOM     16  C   UNL     1      -1.546  10.157  17.587  0.00  0.00    +0.000 C 
ENDBRANCH  13  14
ENDBRANCH  12  13
ENDBRANCH   4   7
BRANCH   1  17
ATOM     17  C   UNL     1       3.907   7.414  17.553  0.00  0.00    +0.000 C 
BRANCH  17  22
ATOM     18  C   UNL     1       4.421   3.649  16.980  0.00  0.00    +0.000 A 
ATOM     19  C   UNL     1       5.427   3.658  16.002  0.00  0.00    +0.000 A 
ATOM     20  C   UNL     1       5.908   4.869  15.494  0.00  0.00    +0.000 A 
ATOM     21  C   UNL     1       5.403   6.085  15.967  0.00  0.00    +0.000 A 
ATOM     22  C   UNL     1       4.404   6.105  16.948  0.00  0.00    +0.000 A 
ATOM     23  C   UNL     1       3.890   4.878  17.404  0.00  0.00    +0.000 A 
BRANCH  18  24
ATOM     24  C   UNL     1       3.997   2.374  17.658  0.00  0.00    +0.000 C 
BRANCH  24  28
ATOM     25  C   UNL     1       2.721   2.837  21.176  0.00  0.00    +0.000 C 
ATOM     26  C   UNL     1       3.671   2.493  20.065  0.00  0.00    +0.000 C 
ATOM     27  O   UNL     1       4.824   2.142  20.279  0.00  0.00    +0.000 OA
ATOM     28  N   UNL     1       3.127   2.569  18.791  0.00  0.00    +0.000 N 
ATOM     29  H   UNL     1       2.239   3.032  18.653  0.00  0.00    +0.000 HD
ENDBRANCH  24  28
ENDBRANCH  18  24
ENDBRANCH  17  22
ENDBRANCH   1  17
TORSDOF 7
ENDMDL
