MODEL 1
REMARK VINA RESULT:      -7.5      0.000      0.000
REMARK  Name = 
REMARK  12 active torsions:
REMARK  status: ('A' for Active; 'I' for Inactive)
REMARK    1  A    between atoms: C_1  and  C_2
REMARK    2  A    between atoms: C_2  and  O_3
REMARK    3  A    between atoms: O_3  and  C_4
REMARK    4  A    between atoms: C_4  and  C_6
REMARK    5  A    between atoms: C_7  and  N_8
REMARK    6  A    between atoms: C_9  and  C_11
REMARK    7  A    between atoms: C_19  and  O_20
REMARK    8  A    between atoms: C_21  and  C_22
REMARK    9  A    between atoms: C_22  and  C_23
REMARK   10  A    between atoms: C_23  and  N_24
REMARK   11  A    between atoms: N_24  and  C_25
REMARK   12  A    between atoms: N_24  and  C_26
REMARK                            x       y       z     vdW  Elec       q    Type
REMARK                         _______ _______ _______ _____ _____    ______ ____
ROOT
ATOM      1  C   UNL     1       2.662   5.190  18.647  0.00  0.00    +0.000 A 
ATOM      2  C   UNL     1       2.801   6.511  19.024  0.00  0.00    +0.000 A 
ATOM      3  S   UNL     1       4.000   7.344  18.174  0.00  0.00    +0.000 S 
ATOM      4  C   UNL     1       4.523   5.917  17.377  0.00  0.00    +0.000 A 
ATOM      5  C   UNL     1       5.598   5.803  16.472  0.00  0.00    +0.000 A 
ATOM      6  C   UNL     1       5.843   4.590  15.822  0.00  0.00    +0.000 A 
ATOM      7  C   UNL     1       5.041   3.491  16.121  0.00  0.00    +0.000 A 
ATOM      8  C   UNL     1       3.995   3.596  17.044  0.00  0.00    +0.000 A 
ATOM      9  C   UNL     1       3.711   4.825  17.700  0.00  0.00    +0.000 A 
ENDROOT
BRANCH   2  10
ATOM     10  N   UNL     1       2.153   7.333  19.919  0.00  0.00    +0.000 N 
ATOM     11  C   UNL     1       1.466   8.454  19.485  0.00  0.00    +0.000 C 
ATOM     12  O   UNL     1       1.374   8.806  18.312  0.00  0.00    +0.000 OA
ATOM     13  H   UNL     1       1.900   6.908  20.796  0.00  0.00    +0.000 HD
BRANCH  11  14
ATOM     14  C   UNL     1       0.766   9.248  20.541  0.00  0.00    +0.000 A 
ATOM     15  C   UNL     1       0.886   8.805  21.866  0.00  0.00    +0.000 A 
ATOM     16  C   UNL     1       0.251   9.491  22.903  0.00  0.00    +0.000 A 
ATOM     17  C   UNL     1      -0.507  10.626  22.626  0.00  0.00    +0.000 A 
ATOM     18  C   UNL     1      -0.624  11.083  21.314  0.00  0.00    +0.000 A 
ATOM     19  C   UNL     1       0.010  10.400  20.272  0.00  0.00    +0.000 A 
ENDBRANCH  11  14
ENDBRANCH   2  10
BRANCH   1  20
ATOM     20  C   UNL     1       1.542   4.309  19.014  0.00  0.00    +0.000 C 
ATOM     21  O   UNL     1       0.914   3.646  18.199  0.00  0.00    +0.000 OA
BRANCH  20  22
ATOM     22  O   UNL     1       1.155   4.465  20.312  0.00  0.00    +0.000 OA
BRANCH  22  24
ATOM     23  C   UNL     1       1.570   2.511  21.570  0.00  0.00    +0.000 C 
ATOM     24  C   UNL     1       2.025   3.935  21.314  0.00  0.00    +0.000 C 
ENDBRANCH  22  24
ENDBRANCH  20  22
ENDBRANCH   1  20
BRANCH   5  25
ATOM     25  O   UNL     1       6.413   6.878  16.193  0.00  0.00    +0.000 OA
ATOM     26  H   UNL     1       6.636   7.292  17.046  0.00  0.00    +0.000 HD
ENDBRANCH   5  25
BRANCH   6  27
ATOM     27  C   UNL     1       6.961   4.453  14.813  0.00  0.00    +0.000 C 
BRANCH  27  28
ATOM     28  C   UNL     1       6.449   4.629  13.378  0.00  0.00    +0.000 C 
BRANCH  28  29
ATOM     29  N   UNL     1       6.110   3.356  12.701  0.00  0.00    +0.000 NA
ATOM     30  C   UNL     1       4.781   3.405  12.091  0.00  0.00    +0.000 C 
ATOM     31  C   UNL     1       7.111   3.070  11.667  0.00  0.00    +0.000 C 
ENDBRANCH  28  29
ENDBRANCH  27  28
ENDBRANCH   6  27
TORSDOF 9
ENDMDL
MODEL 2
REMARK VINA RESULT:      -7.5      3.236      6.253
REMARK  Name = 
REMARK  12 active torsions:
REMARK  status: ('A' for Active; 'I' for Inactive)
REMARK    1  A    between atoms: C_1  and  C_2
REMARK    2  A    between atoms: C_2  and  O_3
REMARK    3  A    between atoms: O_3  and  C_4
REMARK    4  A    between atoms: C_4  and  C_6
REMARK    5  A    between atoms: C_7  and  N_8
REMARK    6  A    between atoms: C_9  and  C_11
REMARK    7  A    between atoms: C_19  and  O_20
REMARK    8  A    between atoms: C_21  and  C_22
REMARK    9  A    between atoms: C_22  and  C_23
REMARK   10  A    between atoms: C_23  and  N_24
REMARK   11  A    between atoms: N_24  and  C_25
REMARK   12  A    between atoms: N_24  and  C_26
REMARK                            x       y       z     vdW  Elec       q    Type
REMARK                         _______ _______ _______ _____ _____    ______ ____
ROOT
ATOM      1  C   UNL     1       0.239  10.700  19.511  0.00  0.00    +0.000 A 
ATOM      2  C   UNL     1      -0.180  10.491  20.810  0.00  0.00    +0.000 A 
ATOM      3  S   UNL     1       0.502   9.129  21.540  0.00  0.00    +0.000 S 
ATOM      4  C   UNL     1       1.261   8.642  20.079  0.00  0.00    +0.000 A 
ATOM      5  C   UNL     1       2.033   7.479  19.877  0.00  0.00    +0.000 A 
ATOM      6  C   UNL     1       2.675   7.266  18.654  0.00  0.00    +0.000 A 
ATOM      7  C   UNL     1       2.497   8.193  17.630  0.00  0.00    +0.000 A 
ATOM      8  C   UNL     1       1.704   9.330  17.820  0.00  0.00    +0.000 A 
ATOM      9  C   UNL     1       1.061   9.581  19.062  0.00  0.00    +0.000 A 
ENDROOT
BRANCH   2  10
ATOM     10  N   UNL     1      -1.008  11.167  21.679  0.00  0.00    +0.000 N 
ATOM     11  C   UNL     1      -0.615  12.367  22.246  0.00  0.00    +0.000 C 
ATOM     12  O   UNL     1       0.463  12.919  22.037  0.00  0.00    +0.000 OA
ATOM     13  H   UNL     1      -1.990  10.958  21.595  0.00  0.00    +0.000 HD
BRANCH  11  14
ATOM     14  C   UNL     1      -1.612  13.032  23.140  0.00  0.00    +0.000 A 
ATOM     15  C   UNL     1      -2.833  12.374  23.344  0.00  0.00    +0.000 A 
ATOM     16  C   UNL     1      -3.816  12.940  24.158  0.00  0.00    +0.000 A 
ATOM     17  C   UNL     1      -3.586  14.166  24.777  0.00  0.00    +0.000 A 
ATOM     18  C   UNL     1      -2.372  14.825  24.591  0.00  0.00    +0.000 A 
ATOM     19  C   UNL     1      -1.385  14.261  23.777  0.00  0.00    +0.000 A 
ENDBRANCH  11  14
ENDBRANCH   2  10
BRANCH   1  20
ATOM     20  C   UNL     1       0.028  11.930  18.732  0.00  0.00    +0.000 C 
ATOM     21  O   UNL     1       0.933  12.697  18.428  0.00  0.00    +0.000 OA
BRANCH  20  22
ATOM     22  O   UNL     1      -1.293  12.224  18.562  0.00  0.00    +0.000 OA
BRANCH  22  24
ATOM     23  C   UNL     1      -3.221  10.941  18.103  0.00  0.00    +0.000 C 
ATOM     24  C   UNL     1      -1.972  11.554  17.498  0.00  0.00    +0.000 C 
ENDBRANCH  22  24
ENDBRANCH  20  22
ENDBRANCH   1  20
BRANCH   5  25
ATOM     25  O   UNL     1       2.190   6.544  20.877  0.00  0.00    +0.000 OA
ATOM     26  H   UNL     1       2.980   6.803  21.385  0.00  0.00    +0.000 HD
ENDBRANCH   5  25
BRANCH   6  27
ATOM     27  C   UNL     1       3.545   6.051  18.427  0.00  0.00    +0.000 C 
BRANCH  27  28
ATOM     28  C   UNL     1       2.740   4.884  17.839  0.00  0.00    +0.000 C 
BRANCH  28  29
ATOM     29  N   UNL     1       3.565   3.897  17.104  0.00  0.00    +0.000 NA
ATOM     30  C   UNL     1       4.910   4.407  16.838  0.00  0.00    +0.000 C 
ATOM     31  C   UNL     1       3.659   2.659  17.887  0.00  0.00    +0.000 C 
ENDBRANCH  28  29
ENDBRANCH  27  28
ENDBRANCH   6  27
TORSDOF 9
ENDMDL
MODEL 3
REMARK VINA RESULT:      -7.5      3.510      6.210
REMARK  Name = 
REMARK  12 active torsions:
REMARK  status: ('A' for Active; 'I' for Inactive)
REMARK    1  A    between atoms: C_1  and  C_2
REMARK    2  A    between atoms: C_2  and  O_3
REMARK    3  A    between atoms: O_3  and  C_4
REMARK    4  A    between atoms: C_4  and  C_6
REMARK    5  A    between atoms: C_7  and  N_8
REMARK    6  A    between atoms: C_9  and  C_11
REMARK    7  A    between atoms: C_19  and  O_20
REMARK    8  A    between atoms: C_21  and  C_22
REMARK    9  A    between atoms: C_22  and  C_23
REMARK   10  A    between atoms: C_23  and  N_24
REMARK   11  A    between atoms: N_24  and  C_25
REMARK   12  A    between atoms: N_24  and  C_26
REMARK                            x       y       z     vdW  Elec       q    Type
REMARK                         _______ _______ _______ _____ _____    ______ ____
ROOT
ATOM      1  C   UNL     1       0.572  10.384  19.449  0.00  0.00    +0.000 A 
ATOM      2  C   UNL     1       0.041  10.153  20.703  0.00  0.00    +0.000 A 
ATOM      3  S   UNL     1       0.612   8.746  21.442  0.00  0.00    +0.000 S 
ATOM      4  C   UNL     1       1.470   8.272  20.033  0.00  0.00    +0.000 A 
ATOM      5  C   UNL     1       2.214   7.088  19.858  0.00  0.00    +0.000 A 
ATOM      6  C   UNL     1       2.946   6.885  18.684  0.00  0.00    +0.000 A 
ATOM      7  C   UNL     1       2.886   7.847  17.679  0.00  0.00    +0.000 A 
ATOM      8  C   UNL     1       2.121   9.007  17.840  0.00  0.00    +0.000 A 
ATOM      9  C   UNL     1       1.388   9.247  19.033  0.00  0.00    +0.000 A 
ENDROOT
BRANCH   2  10
ATOM     10  N   UNL     1      -0.832  10.835  21.522  0.00  0.00    +0.000 N 
ATOM     11  C   UNL     1      -0.470  12.041  22.098  0.00  0.00    +0.000 C 
ATOM     12  O   UNL     1       0.615  12.594  21.939  0.00  0.00    +0.000 OA
ATOM     13  H   UNL     1      -1.807  10.623  21.391  0.00  0.00    +0.000 HD
BRANCH  11  14
ATOM     14  C   UNL     1      -1.512  12.712  22.934  0.00  0.00    +0.000 A 
ATOM     15  C   UNL     1      -1.192  13.961  23.483  0.00  0.00    +0.000 A 
ATOM     16  C   UNL     1      -2.111  14.642  24.282  0.00  0.00    +0.000 A 
ATOM     17  C   UNL     1      -3.359  14.081  24.540  0.00  0.00    +0.000 A 
ATOM     18  C   UNL     1      -3.694  12.844  23.991  0.00  0.00    +0.000 A 
ATOM     19  C   UNL     1      -2.776  12.159  23.189  0.00  0.00    +0.000 A 
ENDBRANCH  11  14
ENDBRANCH   2  10
BRANCH   1  20
ATOM     20  C   UNL     1       0.469  11.642  18.695  0.00  0.00    +0.000 C 
ATOM     21  O   UNL     1       1.433  12.352  18.438  0.00  0.00    +0.000 OA
BRANCH  20  22
ATOM     22  O   UNL     1      -0.823  12.030  18.493  0.00  0.00    +0.000 OA
BRANCH  22  24
ATOM     23  C   UNL     1      -3.038  11.240  18.284  0.00  0.00    +0.000 C 
ATOM     24  C   UNL     1      -1.640  11.165  17.701  0.00  0.00    +0.000 C 
ENDBRANCH  22  24
ENDBRANCH  20  22
ENDBRANCH   1  20
BRANCH   5  25
ATOM     25  O   UNL     1       2.255   6.119  20.837  0.00  0.00    +0.000 OA
ATOM     26  H   UNL     1       3.189   6.012  21.089  0.00  0.00    +0.000 HD
ENDBRANCH   5  25
BRANCH   6  27
ATOM     27  C   UNL     1       3.788   5.645  18.490  0.00  0.00    +0.000 C 
BRANCH  27  28
ATOM     28  C   UNL     1       3.098   4.635  17.564  0.00  0.00    +0.000 C 
BRANCH  28  29
ATOM     29  N   UNL     1       2.715   3.371  18.236  0.00  0.00    +0.000 NA
ATOM     30  C   UNL     1       3.484   3.155  19.461  0.00  0.00    +0.000 C 
ATOM     31  C   UNL     1       1.283   3.403  18.559  0.00  0.00    +0.000 C 
ENDBRANCH  28  29
ENDBRANCH  27  28
ENDBRANCH   6  27
TORSDOF 9
ENDMDL
MODEL 4
REMARK VINA RESULT:      -7.5      3.939      6.816
REMARK  Name = 
REMARK  12 active torsions:
REMARK  status: ('A' for Active; 'I' for Inactive)
REMARK    1  A    between atoms: C_1  and  C_2
REMARK    2  A    between atoms: C_2  and  O_3
REMARK    3  A    between atoms: O_3  and  C_4
REMARK    4  A    between atoms: C_4  and  C_6
REMARK    5  A    between atoms: C_7  and  N_8
REMARK    6  A    between atoms: C_9  and  C_11
REMARK    7  A    between atoms: C_19  and  O_20
REMARK    8  A    between atoms: C_21  and  C_22
REMARK    9  A    between atoms: C_22  and  C_23
REMARK   10  A    between atoms: C_23  and  N_24
REMARK   11  A    between atoms: N_24  and  C_25
REMARK   12  A    between atoms: N_24  and  C_26
REMARK                            x       y       z     vdW  Elec       q    Type
REMARK                         _______ _______ _______ _____ _____    ______ ____
ROOT
ATOM      1  C   UNL     1      -0.074  10.891  19.633  0.00  0.00    +0.000 A 
ATOM      2  C   UNL     1      -0.385  10.751  20.971  0.00  0.00    +0.000 A 
ATOM      3  S   UNL     1       0.386   9.448  21.721  0.00  0.00    +0.000 S 
ATOM      4  C   UNL     1       1.040   8.891  20.235  0.00  0.00    +0.000 A 
ATOM      5  C   UNL     1       1.824   7.735  20.040  0.00  0.00    +0.000 A 
ATOM      6  C   UNL     1       2.373   7.463  18.784  0.00  0.00    +0.000 A 
ATOM      7  C   UNL     1       2.093   8.324  17.726  0.00  0.00    +0.000 A 
ATOM      8  C   UNL     1       1.289   9.453  17.913  0.00  0.00    +0.000 A 
ATOM      9  C   UNL     1       0.739   9.764  19.185  0.00  0.00    +0.000 A 
ENDROOT
BRANCH   2  10
ATOM     10  N   UNL     1      -1.160  11.460  21.862  0.00  0.00    +0.000 N 
ATOM     11  C   UNL     1      -0.725  12.670  22.376  0.00  0.00    +0.000 C 
ATOM     12  O   UNL     1       0.346  13.202  22.097  0.00  0.00    +0.000 OA
ATOM     13  H   UNL     1      -2.146  11.261  21.835  0.00  0.00    +0.000 HD
BRANCH  11  14
ATOM     14  C   UNL     1      -1.667  13.370  23.301  0.00  0.00    +0.000 A 
ATOM     15  C   UNL     1      -1.213  14.548  23.912  0.00  0.00    +0.000 A 
ATOM     16  C   UNL     1      -2.034  15.251  24.795  0.00  0.00    +0.000 A 
ATOM     17  C   UNL     1      -3.316  14.784  25.075  0.00  0.00    +0.000 A 
ATOM     18  C   UNL     1      -3.783  13.620  24.466  0.00  0.00    +0.000 A 
ATOM     19  C   UNL     1      -2.964  12.914  23.579  0.00  0.00    +0.000 A 
ENDBRANCH  11  14
ENDBRANCH   2  10
BRANCH   1  20
ATOM     20  C   UNL     1      -0.375  12.068  18.804  0.00  0.00    +0.000 C 
ATOM     21  O   UNL     1       0.481  12.848  18.407  0.00  0.00    +0.000 OA
BRANCH  20  22
ATOM     22  O   UNL     1      -1.714  12.307  18.697  0.00  0.00    +0.000 OA
BRANCH  22  24
ATOM     23  C   UNL     1      -2.392  11.174  16.740  0.00  0.00    +0.000 C 
ATOM     24  C   UNL     1      -2.529  11.223  18.250  0.00  0.00    +0.000 C 
ENDBRANCH  22  24
ENDBRANCH  20  22
ENDBRANCH   1  20
BRANCH   5  25
ATOM     25  O   UNL     1       2.080   6.864  21.076  0.00  0.00    +0.000 OA
ATOM     26  H   UNL     1       2.918   7.149  21.484  0.00  0.00    +0.000 HD
ENDBRANCH   5  25
BRANCH   6  27
ATOM     27  C   UNL     1       3.253   6.254  18.559  0.00  0.00    +0.000 C 
BRANCH  27  28
ATOM     28  C   UNL     1       2.421   4.976  18.394  0.00  0.00    +0.000 C 
BRANCH  28  29
ATOM     29  N   UNL     1       2.355   4.141  19.616  0.00  0.00    +0.000 NA
ATOM     30  C   UNL     1       0.983   3.736  19.920  0.00  0.00    +0.000 C 
ATOM     31  C   UNL     1       3.188   2.946  19.438  0.00  0.00    +0.000 C 
ENDBRANCH  28  29
ENDBRANCH  27  28
ENDBRANCH   6  27
TORSDOF 9
ENDMDL
MODEL 5
REMARK VINA RESULT:      -7.4      3.216      6.163
REMARK  Name = 
REMARK  12 active torsions:
REMARK  status: ('A' for Active; 'I' for Inactive)
REMARK    1  A    between atoms: C_1  and  C_2
REMARK    2  A    between atoms: C_2  and  O_3
REMARK    3  A    between atoms: O_3  and  C_4
REMARK    4  A    between atoms: C_4  and  C_6
REMARK    5  A    between atoms: C_7  and  N_8
REMARK    6  A    between atoms: C_9  and  C_11
REMARK    7  A    between atoms: C_19  and  O_20
REMARK    8  A    between atoms: C_21  and  C_22
REMARK    9  A    between atoms: C_22  and  C_23
REMARK   10  A    between atoms: C_23  and  N_24
REMARK   11  A    between atoms: N_24  and  C_25
REMARK   12  A    between atoms: N_24  and  C_26
REMARK                            x       y       z     vdW  Elec       q    Type
REMARK                         _______ _______ _______ _____ _____    ______ ____
ROOT
ATOM      1  C   UNL     1       0.296  10.656  19.483  0.00  0.00    +0.000 A 
ATOM      2  C   UNL     1      -0.168  10.412  20.760  0.00  0.00    +0.000 A 
ATOM      3  S   UNL     1       0.493   9.034  21.480  0.00  0.00    +0.000 S 
ATOM      4  C   UNL     1       1.306   8.587  20.036  0.00  0.00    +0.000 A 
ATOM      5  C   UNL     1       2.090   7.433  19.833  0.00  0.00    +0.000 A 
ATOM      6  C   UNL     1       2.776   7.253  18.628  0.00  0.00    +0.000 A 
ATOM      7  C   UNL     1       2.632   8.205  17.622  0.00  0.00    +0.000 A 
ATOM      8  C   UNL     1       1.828   9.333  17.812  0.00  0.00    +0.000 A 
ATOM      9  C   UNL     1       1.139   9.551  19.036  0.00  0.00    +0.000 A 
ENDROOT
BRANCH   2  10
ATOM     10  N   UNL     1      -1.030  11.064  21.615  0.00  0.00    +0.000 N 
ATOM     11  C   UNL     1      -0.657  12.240  22.240  0.00  0.00    +0.000 C 
ATOM     12  O   UNL     1       0.432  12.792  22.099  0.00  0.00    +0.000 OA
ATOM     13  H   UNL     1      -2.008  10.864  21.481  0.00  0.00    +0.000 HD
BRANCH  11  14
ATOM     14  C   UNL     1      -1.689  12.881  23.113  0.00  0.00    +0.000 A 
ATOM     15  C   UNL     1      -1.383  14.136  23.656  0.00  0.00    +0.000 A 
ATOM     16  C   UNL     1      -2.294  14.790  24.487  0.00  0.00    +0.000 A 
ATOM     17  C   UNL     1      -3.518  14.195  24.782  0.00  0.00    +0.000 A 
ATOM     18  C   UNL     1      -3.838  12.952  24.239  0.00  0.00    +0.000 A 
ATOM     19  C   UNL     1      -2.929  12.294  23.405  0.00  0.00    +0.000 A 
ENDBRANCH  11  14
ENDBRANCH   2  10
BRANCH   1  20
ATOM     20  C   UNL     1       0.109  11.904  18.728  0.00  0.00    +0.000 C 
ATOM     21  O   UNL     1       1.023  12.673  18.462  0.00  0.00    +0.000 OA
BRANCH  20  22
ATOM     22  O   UNL     1      -1.207  12.209  18.535  0.00  0.00    +0.000 OA
BRANCH  22  24
ATOM     23  C   UNL     1      -3.247  11.087  18.142  0.00  0.00    +0.000 C 
ATOM     24  C   UNL     1      -1.905  11.458  17.540  0.00  0.00    +0.000 C 
ENDBRANCH  22  24
ENDBRANCH  20  22
ENDBRANCH   1  20
BRANCH   5  25
ATOM     25  O   UNL     1       2.213   6.473  20.814  0.00  0.00    +0.000 OA
ATOM     26  H   UNL     1       1.310   6.229  21.085  0.00  0.00    +0.000 HD
ENDBRANCH   5  25
BRANCH   6  27
ATOM     27  C   UNL     1       3.659   6.047  18.403  0.00  0.00    +0.000 C 
BRANCH  27  28
ATOM     28  C   UNL     1       4.579   6.241  17.190  0.00  0.00    +0.000 C 
BRANCH  28  29
ATOM     29  N   UNL     1       5.894   5.572  17.322  0.00  0.00    +0.000 NA
ATOM     30  C   UNL     1       6.148   4.655  16.211  0.00  0.00    +0.000 C 
ATOM     31  C   UNL     1       6.955   6.585  17.369  0.00  0.00    +0.000 C 
ENDBRANCH  28  29
ENDBRANCH  27  28
ENDBRANCH   6  27
TORSDOF 9
ENDMDL
MODEL 6
REMARK VINA RESULT:      -7.3      3.729      6.560
REMARK  Name = 
REMARK  12 active torsions:
REMARK  status: ('A' for Active; 'I' for Inactive)
REMARK    1  A    between atoms: C_1  and  C_2
REMARK    2  A    between atoms: C_2  and  O_3
REMARK    3  A    between atoms: O_3  and  C_4
REMARK    4  A    between atoms: C_4  and  C_6
REMARK    5  A    between atoms: C_7  and  N_8
REMARK    6  A    between atoms: C_9  and  C_11
REMARK    7  A    between atoms: C_19  and  O_20
REMARK    8  A    between atoms: C_21  and  C_22
REMARK    9  A    between atoms: C_22  and  C_23
REMARK   10  A    between atoms: C_23  and  N_24
REMARK   11  A    between atoms: N_24  and  C_25
REMARK   12  A    between atoms: N_24  and  C_26
REMARK                            x       y       z     vdW  Elec       q    Type
REMARK                         _______ _______ _______ _____ _____    ______ ____
ROOT
ATOM      1  C   UNL     1       0.349  10.630  19.518  0.00  0.00    +0.000 A 
ATOM      2  C   UNL     1      -0.118  10.415  20.800  0.00  0.00    +0.000 A 
ATOM      3  S   UNL     1       0.504   9.026  21.533  0.00  0.00    +0.000 S 
ATOM      4  C   UNL     1       1.299   8.539  20.092  0.00  0.00    +0.000 A 
ATOM      5  C   UNL     1       2.048   7.360  19.900  0.00  0.00    +0.000 A 
ATOM      6  C   UNL     1       2.725   7.146  18.696  0.00  0.00    +0.000 A 
ATOM      7  C   UNL     1       2.605   8.090  17.679  0.00  0.00    +0.000 A 
ATOM      8  C   UNL     1       1.835   9.244  17.858  0.00  0.00    +0.000 A 
ATOM      9  C   UNL     1       1.157   9.496  19.082  0.00  0.00    +0.000 A 
ENDROOT
BRANCH   2  10
ATOM     10  N   UNL     1      -0.958  11.101  21.649  0.00  0.00    +0.000 N 
ATOM     11  C   UNL     1      -0.556  12.285  22.243  0.00  0.00    +0.000 C 
ATOM     12  O   UNL     1       0.540  12.814  22.075  0.00  0.00    +0.000 OA
ATOM     13  H   UNL     1      -1.941  10.916  21.532  0.00  0.00    +0.000 HD
BRANCH  11  14
ATOM     14  C   UNL     1      -1.566  12.963  23.112  0.00  0.00    +0.000 A 
ATOM     15  C   UNL     1      -2.793  12.312  23.303  0.00  0.00    +0.000 A 
ATOM     16  C   UNL     1      -3.787  12.890  24.095  0.00  0.00    +0.000 A 
ATOM     17  C   UNL     1      -3.563  14.122  24.703  0.00  0.00    +0.000 A 
ATOM     18  C   UNL     1      -2.344  14.775  24.529  0.00  0.00    +0.000 A 
ATOM     19  C   UNL     1      -1.345  14.199  23.739  0.00  0.00    +0.000 A 
ENDBRANCH  11  14
ENDBRANCH   2  10
BRANCH   1  20
ATOM     20  C   UNL     1       0.195  11.875  18.750  0.00  0.00    +0.000 C 
ATOM     21  O   UNL     1      -0.857  12.214  18.223  0.00  0.00    +0.000 OA
BRANCH  20  22
ATOM     22  O   UNL     1       1.385  12.500  18.519  0.00  0.00    +0.000 OA
BRANCH  22  24
ATOM     23  C   UNL     1       2.534  14.268  19.581  0.00  0.00    +0.000 C 
ATOM     24  C   UNL     1       1.399  13.924  18.635  0.00  0.00    +0.000 C 
ENDBRANCH  22  24
ENDBRANCH  20  22
ENDBRANCH   1  20
BRANCH   5  25
ATOM     25  O   UNL     1       2.147   6.408  20.892  0.00  0.00    +0.000 OA
ATOM     26  H   UNL     1       1.832   6.824  21.714  0.00  0.00    +0.000 HD
ENDBRANCH   5  25
BRANCH   6  27
ATOM     27  C   UNL     1       3.571   5.912  18.481  0.00  0.00    +0.000 C 
BRANCH  27  28
ATOM     28  C   UNL     1       2.733   4.739  17.957  0.00  0.00    +0.000 C 
BRANCH  28  29
ATOM     29  N   UNL     1       2.376   3.745  18.996  0.00  0.00    +0.000 NA
ATOM     30  C   UNL     1       1.796   2.536  18.411  0.00  0.00    +0.000 C 
ATOM     31  C   UNL     1       3.576   3.387  19.763  0.00  0.00    +0.000 C 
ENDBRANCH  28  29
ENDBRANCH  27  28
ENDBRANCH   6  27
TORSDOF 9
ENDMDL
MODEL 7
REMARK VINA RESULT:      -7.3      3.617      6.402
REMARK  Name = 
REMARK  12 active torsions:
REMARK  status: ('A' for Active; 'I' for Inactive)
REMARK    1  A    between atoms: C_1  and  C_2
REMARK    2  A    between atoms: C_2  and  O_3
REMARK    3  A    between atoms: O_3  and  C_4
REMARK    4  A    between atoms: C_4  and  C_6
REMARK    5  A    between atoms: C_7  and  N_8
REMARK    6  A    between atoms: C_9  and  C_11
REMARK    7  A    between atoms: C_19  and  O_20
REMARK    8  A    between atoms: C_21  and  C_22
REMARK    9  A    between atoms: C_22  and  C_23
REMARK   10  A    between atoms: C_23  and  N_24
REMARK   11  A    between atoms: N_24  and  C_25
REMARK   12  A    between atoms: N_24  and  C_26
REMARK                            x       y       z     vdW  Elec       q    Type
REMARK                         _______ _______ _______ _____ _____    ______ ____
ROOT
ATOM      1  C   UNL     1       0.375  10.462  19.492  0.00  0.00    +0.000 A 
ATOM      2  C   UNL     1      -0.094  10.241  20.772  0.00  0.00    +0.000 A 
ATOM      3  S   UNL     1       0.557   8.872  21.516  0.00  0.00    +0.000 S 
ATOM      4  C   UNL     1       1.372   8.397  20.081  0.00  0.00    +0.000 A 
ATOM      5  C   UNL     1       2.151   7.236  19.900  0.00  0.00    +0.000 A 
ATOM      6  C   UNL     1       2.839   7.033  18.700  0.00  0.00    +0.000 A 
ATOM      7  C   UNL     1       2.702   7.969  17.678  0.00  0.00    +0.000 A 
ATOM      8  C   UNL     1       1.903   9.105  17.847  0.00  0.00    +0.000 A 
ATOM      9  C   UNL     1       1.213   9.346  19.066  0.00  0.00    +0.000 A 
ENDROOT
BRANCH   2  10
ATOM     10  N   UNL     1      -0.955  10.911  21.614  0.00  0.00    +0.000 N 
ATOM     11  C   UNL     1      -0.595  12.120  22.184  0.00  0.00    +0.000 C 
ATOM     12  O   UNL     1       0.479  12.686  22.000  0.00  0.00    +0.000 OA
ATOM     13  H   UNL     1      -1.931  10.687  21.506  0.00  0.00    +0.000 HD
BRANCH  11  14
ATOM     14  C   UNL     1      -1.625  12.776  23.046  0.00  0.00    +0.000 A 
ATOM     15  C   UNL     1      -1.289  14.006  23.630  0.00  0.00    +0.000 A 
ATOM     16  C   UNL     1      -2.197  14.671  24.455  0.00  0.00    +0.000 A 
ATOM     17  C   UNL     1      -3.449  14.115  24.703  0.00  0.00    +0.000 A 
ATOM     18  C   UNL     1      -3.800  12.898  24.120  0.00  0.00    +0.000 A 
ATOM     19  C   UNL     1      -2.894  12.229  23.292  0.00  0.00    +0.000 A 
ENDBRANCH  11  14
ENDBRANCH   2  10
BRANCH   1  20
ATOM     20  C   UNL     1       0.195  11.699  18.717  0.00  0.00    +0.000 C 
ATOM     21  O   UNL     1      -0.864  12.014  18.191  0.00  0.00    +0.000 OA
BRANCH  20  22
ATOM     22  O   UNL     1       1.372  12.346  18.480  0.00  0.00    +0.000 OA
BRANCH  22  24
ATOM     23  C   UNL     1       2.659  14.292  18.119  0.00  0.00    +0.000 C 
ATOM     24  C   UNL     1       1.416  13.740  18.790  0.00  0.00    +0.000 C 
ENDBRANCH  22  24
ENDBRANCH  20  22
ENDBRANCH   1  20
BRANCH   5  25
ATOM     25  O   UNL     1       2.267   6.291  20.896  0.00  0.00    +0.000 OA
ATOM     26  H   UNL     1       2.855   5.593  20.556  0.00  0.00    +0.000 HD
ENDBRANCH   5  25
BRANCH   6  27
ATOM     27  C   UNL     1       3.716   5.819  18.496  0.00  0.00    +0.000 C 
BRANCH  27  28
ATOM     28  C   UNL     1       2.974   4.708  17.741  0.00  0.00    +0.000 C 
BRANCH  28  29
ATOM     29  N   UNL     1       3.488   3.347  18.018  0.00  0.00    +0.000 NA
ATOM     30  C   UNL     1       4.327   3.320  19.217  0.00  0.00    +0.000 C 
ATOM     31  C   UNL     1       2.360   2.424  18.192  0.00  0.00    +0.000 C 
ENDBRANCH  28  29
ENDBRANCH  27  28
ENDBRANCH   6  27
TORSDOF 9
ENDMDL
MODEL 8
REMARK VINA RESULT:      -7.2      1.031      1.304
REMARK  Name = 
REMARK  12 active torsions:
REMARK  status: ('A' for Active; 'I' for Inactive)
REMARK    1  A    between atoms: C_1  and  C_2
REMARK    2  A    between atoms: C_2  and  O_3
REMARK    3  A    between atoms: O_3  and  C_4
REMARK    4  A    between atoms: C_4  and  C_6
REMARK    5  A    between atoms: C_7  and  N_8
REMARK    6  A    between atoms: C_9  and  C_11
REMARK    7  A    between atoms: C_19  and  O_20
REMARK    8  A    between atoms: C_21  and  C_22
REMARK    9  A    between atoms: C_22  and  C_23
REMARK   10  A    between atoms: C_23  and  N_24
REMARK   11  A    between atoms: N_24  and  C_25
REMARK   12  A    between atoms: N_24  and  C_26
REMARK                            x       y       z     vdW  Elec       q    Type
REMARK                         _______ _______ _______ _____ _____    ______ ____
ROOT
ATOM      1  C   UNL     1       2.727   5.672  19.479  0.00  0.00    +0.000 A 
ATOM      2  C   UNL     1       2.522   7.033  19.369  0.00  0.00    +0.000 A 
ATOM      3  S   UNL     1       3.209   7.722  17.988  0.00  0.00    +0.000 S 
ATOM      4  C   UNL     1       3.979   6.250  17.554  0.00  0.00    +0.000 A 
ATOM      5  C   UNL     1       4.832   6.039  16.452  0.00  0.00    +0.000 A 
ATOM      6  C   UNL     1       5.307   4.755  16.167  0.00  0.00    +0.000 A 
ATOM      7  C   UNL     1       4.961   3.706  17.016  0.00  0.00    +0.000 A 
ATOM      8  C   UNL     1       4.140   3.922  18.127  0.00  0.00    +0.000 A 
ATOM      9  C   UNL     1       3.626   5.214  18.424  0.00  0.00    +0.000 A 
ENDROOT
BRANCH   2  10
ATOM     10  N   UNL     1       1.843   7.971  20.116  0.00  0.00    +0.000 N 
ATOM     11  C   UNL     1       1.101   8.966  19.503  0.00  0.00    +0.000 C 
ATOM     12  O   UNL     1       0.982   9.101  18.288  0.00  0.00    +0.000 OA
ATOM     13  H   UNL     1       1.618   7.696  21.058  0.00  0.00    +0.000 HD
BRANCH  11  14
ATOM     14  C   UNL     1       0.373   9.902  20.414  0.00  0.00    +0.000 A 
ATOM     15  C   UNL     1       0.314   9.562  21.773  0.00  0.00    +0.000 A 
ATOM     16  C   UNL     1      -0.357  10.383  22.681  0.00  0.00    +0.000 A 
ATOM     17  C   UNL     1      -0.974  11.550  22.239  0.00  0.00    +0.000 A 
ATOM     18  C   UNL     1      -0.914  11.905  20.892  0.00  0.00    +0.000 A 
ATOM     19  C   UNL     1      -0.241  11.086  19.980  0.00  0.00    +0.000 A 
ENDBRANCH  11  14
ENDBRANCH   2  10
BRANCH   1  20
ATOM     20  C   UNL     1       2.032   4.775  20.415  0.00  0.00    +0.000 C 
ATOM     21  O   UNL     1       2.537   4.363  21.451  0.00  0.00    +0.000 OA
BRANCH  20  22
ATOM     22  O   UNL     1       0.858   4.297  19.911  0.00  0.00    +0.000 OA
BRANCH  22  24
ATOM     23  C   UNL     1       0.970   2.291  18.672  0.00  0.00    +0.000 C 
ATOM     24  C   UNL     1       0.632   2.891  20.024  0.00  0.00    +0.000 C 
ENDBRANCH  22  24
ENDBRANCH  20  22
ENDBRANCH   1  20
BRANCH   5  25
ATOM     25  O   UNL     1       5.201   7.078  15.625  0.00  0.00    +0.000 OA
ATOM     26  H   UNL     1       4.393   7.587  15.435  0.00  0.00    +0.000 HD
ENDBRANCH   5  25
BRANCH   6  27
ATOM     27  C   UNL     1       6.187   4.493  14.967  0.00  0.00    +0.000 C 
BRANCH  27  28
ATOM     28  C   UNL     1       5.357   4.132  13.728  0.00  0.00    +0.000 C 
BRANCH  28  29
ATOM     29  N   UNL     1       6.098   3.340  12.719  0.00  0.00    +0.000 NA
ATOM     30  C   UNL     1       5.207   2.812  11.686  0.00  0.00    +0.000 C 
ATOM     31  C   UNL     1       7.124   4.182  12.093  0.00  0.00    +0.000 C 
ENDBRANCH  28  29
ENDBRANCH  27  28
ENDBRANCH   6  27
TORSDOF 9
ENDMDL
MODEL 9
REMARK VINA RESULT:      -7.2      2.085      8.582
REMARK  Name = 
REMARK  12 active torsions:
REMARK  status: ('A' for Active; 'I' for Inactive)
REMARK    1  A    between atoms: C_1  and  C_2
REMARK    2  A    between atoms: C_2  and  O_3
REMARK    3  A    between atoms: O_3  and  C_4
REMARK    4  A    between atoms: C_4  and  C_6
REMARK    5  A    between atoms: C_7  and  N_8
REMARK    6  A    between atoms: C_9  and  C_11
REMARK    7  A    between atoms: C_19  and  O_20
REMARK    8  A    between atoms: C_21  and  C_22
REMARK    9  A    between atoms: C_22  and  C_23
REMARK   10  A    between atoms: C_23  and  N_24
REMARK   11  A    between atoms: N_24  and  C_25
REMARK   12  A    between atoms: N_24  and  C_26
REMARK                            x       y       z     vdW  Elec       q    Type
REMARK                         _______ _______ _______ _____ _____    ______ ____
ROOT
ATOM      1  C   UNL     1       4.074   5.271  18.643  0.00  0.00    +0.000 A 
ATOM      2  C   UNL     1       4.352   5.983  17.493  0.00  0.00    +0.000 A 
ATOM      3  S   UNL     1       3.579   7.482  17.410  0.00  0.00    +0.000 S 
ATOM      4  C   UNL     1       2.680   7.174  18.840  0.00  0.00    +0.000 A 
ATOM      5  C   UNL     1       1.711   8.016  19.424  0.00  0.00    +0.000 A 
ATOM      6  C   UNL     1       1.132   7.675  20.650  0.00  0.00    +0.000 A 
ATOM      7  C   UNL     1       1.492   6.473  21.254  0.00  0.00    +0.000 A 
ATOM      8  C   UNL     1       2.429   5.623  20.657  0.00  0.00    +0.000 A 
ATOM      9  C   UNL     1       3.049   5.958  19.424  0.00  0.00    +0.000 A 
ENDROOT
BRANCH   2  10
ATOM     10  N   UNL     1       5.158   5.769  16.396  0.00  0.00    +0.000 N 
ATOM     11  C   UNL     1       5.011   4.634  15.617  0.00  0.00    +0.000 C 
ATOM     12  O   UNL     1       4.184   3.749  15.821  0.00  0.00    +0.000 OA
ATOM     13  H   UNL     1       5.574   6.594  15.995  0.00  0.00    +0.000 HD
BRANCH  11  14
ATOM     14  C   UNL     1       5.913   4.529  14.429  0.00  0.00    +0.000 A 
ATOM     15  C   UNL     1       5.525   3.657  13.402  0.00  0.00    +0.000 A 
ATOM     16  C   UNL     1       6.321   3.500  12.266  0.00  0.00    +0.000 A 
ATOM     17  C   UNL     1       7.511   4.215  12.146  0.00  0.00    +0.000 A 
ATOM     18  C   UNL     1       7.902   5.093  13.155  0.00  0.00    +0.000 A 
ATOM     19  C   UNL     1       7.106   5.254  14.294  0.00  0.00    +0.000 A 
ENDBRANCH  11  14
ENDBRANCH   2  10
BRANCH   1  20
ATOM     20  C   UNL     1       4.799   4.078  19.108  0.00  0.00    +0.000 C 
ATOM     21  O   UNL     1       5.995   3.902  18.914  0.00  0.00    +0.000 OA
BRANCH  20  22
ATOM     22  O   UNL     1       3.967   3.112  19.591  0.00  0.00    +0.000 OA
BRANCH  22  24
ATOM     23  C   UNL     1       1.909   2.167  18.922  0.00  0.00    +0.000 C 
ATOM     24  C   UNL     1       3.399   2.213  18.637  0.00  0.00    +0.000 C 
ENDBRANCH  22  24
ENDBRANCH  20  22
ENDBRANCH   1  20
BRANCH   5  25
ATOM     25  O   UNL     1       1.329   9.193  18.817  0.00  0.00    +0.000 OA
ATOM     26  H   UNL     1       0.955   8.954  17.950  0.00  0.00    +0.000 HD
ENDBRANCH   5  25
BRANCH   6  27
ATOM     27  C   UNL     1       0.125   8.582  21.319  0.00  0.00    +0.000 C 
BRANCH  27  28
ATOM     28  C   UNL     1       0.750   9.352  22.489  0.00  0.00    +0.000 C 
BRANCH  28  29
ATOM     29  N   UNL     1       0.257  10.743  22.624  0.00  0.00    +0.000 NA
ATOM     30  C   UNL     1       0.274  11.449  21.343  0.00  0.00    +0.000 C 
ATOM     31  C   UNL     1      -1.112  10.727  23.153  0.00  0.00    +0.000 C 
ENDBRANCH  28  29
ENDBRANCH  27  28
ENDBRANCH   6  27
TORSDOF 9
ENDMDL
