MODEL 1
REMARK VINA RESULT:      -7.3      0.000      0.000
REMARK  Name = 
REMARK  7 active torsions:
REMARK  status: ('A' for Active; 'I' for Inactive)
REMARK    1  A    between atoms: C_1  and  O_2
REMARK    2  A    between atoms: O_2  and  C_3
REMARK    3  A    between atoms: C_3  and  C_5
REMARK    4  A    between atoms: C_6  and  C_7
REMARK    5  A    between atoms: C_9  and  C_10
REMARK    6  A    between atoms: C_11  and  C_12
REMARK    7  A    between atoms: C_15  and  N_16
REMARK                            x       y       z     vdW  Elec       q    Type
REMARK                         _______ _______ _______ _____ _____    ______ ____
ROOT
ATOM      1  C   UNL     1       3.698   3.957  19.501  0.00  0.00    +0.000 A 
ATOM      2  C   UNL     1       2.795   4.488  20.421  0.00  0.00    +0.000 A 
ATOM      3  C   UNL     1       2.109   3.922  21.614  0.00  0.00    +0.000 C 
ATOM      4  N   UNL     1       2.522   5.775  20.041  0.00  0.00    +0.000 N 
ATOM      5  C   UNL     1       3.214   6.111  18.907  0.00  0.00    +0.000 A 
ATOM      6  C   UNL     1       3.068   7.487  18.351  0.00  0.00    +0.000 C 
ATOM      7  C   UNL     1       3.957   4.998  18.521  0.00  0.00    +0.000 A 
ATOM      8  H   UNL     1       1.885   6.394  20.530  0.00  0.00    +0.000 HD
ENDROOT
BRANCH   7   9
ATOM      9  C   UNL     1       4.835   4.971  17.339  0.00  0.00    +0.000 A 
ATOM     10  C   UNL     1       4.493   4.229  16.197  0.00  0.00    +0.000 A 
ATOM     11  C   UNL     1       5.295   4.251  15.047  0.00  0.00    +0.000 A 
ATOM     12  C   UNL     1       6.487   4.981  15.053  0.00  0.00    +0.000 A 
ATOM     13  C   UNL     1       6.866   5.699  16.189  0.00  0.00    +0.000 A 
ATOM     14  C   UNL     1       6.028   5.709  17.308  0.00  0.00    +0.000 A 
BRANCH  12  15
ATOM     15  N   UNL     1       7.341   5.012  13.860  0.00  0.00    +0.000 N 
ATOM     16  O   UNL     1       8.352   5.729  13.891  0.00  0.00    +0.000 OA
ATOM     17  O   UNL     1       7.000   4.322  12.889  0.00  0.00    +0.000 OA
ENDBRANCH  12  15
ENDBRANCH   7   9
BRANCH   1  18
ATOM     18  C   UNL     1       4.231   2.593  19.517  0.00  0.00    +0.000 C 
ATOM     19  O   UNL     1       5.007   2.174  20.371  0.00  0.00    +0.000 OA
BRANCH  18  21
ATOM     20  C   UNL     1       2.325   1.739  18.446  0.00  0.00    +0.000 C 
ATOM     21  O   UNL     1       3.747   1.812  18.501  0.00  0.00    +0.000 OA
ENDBRANCH  18  21
ENDBRANCH   1  18
TORSDOF 4
ENDMDL
MODEL 2
REMARK VINA RESULT:      -7.3      0.234      1.299
REMARK  Name = 
REMARK  7 active torsions:
REMARK  status: ('A' for Active; 'I' for Inactive)
REMARK    1  A    between atoms: C_1  and  O_2
REMARK    2  A    between atoms: O_2  and  C_3
REMARK    3  A    between atoms: C_3  and  C_5
REMARK    4  A    between atoms: C_6  and  C_7
REMARK    5  A    between atoms: C_9  and  C_10
REMARK    6  A    between atoms: C_11  and  C_12
REMARK    7  A    between atoms: C_15  and  N_16
REMARK                            x       y       z     vdW  Elec       q    Type
REMARK                         _______ _______ _______ _____ _____    ______ ____
ROOT
ATOM      1  C   UNL     1       3.621   3.806  19.550  0.00  0.00    +0.000 A 
ATOM      2  C   UNL     1       2.707   4.256  20.501  0.00  0.00    +0.000 A 
ATOM      3  C   UNL     1       2.083   3.616  21.691  0.00  0.00    +0.000 C 
ATOM      4  N   UNL     1       2.345   5.532  20.162  0.00  0.00    +0.000 N 
ATOM      5  C   UNL     1       2.990   5.940  19.024  0.00  0.00    +0.000 A 
ATOM      6  C   UNL     1       2.747   7.318  18.508  0.00  0.00    +0.000 C 
ATOM      7  C   UNL     1       3.793   4.886  18.593  0.00  0.00    +0.000 A 
ATOM      8  H   UNL     1       1.682   6.096  20.680  0.00  0.00    +0.000 HD
ENDROOT
BRANCH   7   9
ATOM      9  C   UNL     1       4.645   4.945  17.394  0.00  0.00    +0.000 A 
ATOM     10  C   UNL     1       5.725   5.839  17.313  0.00  0.00    +0.000 A 
ATOM     11  C   UNL     1       6.577   5.856  16.200  0.00  0.00    +0.000 A 
ATOM     12  C   UNL     1       6.318   5.003  15.122  0.00  0.00    +0.000 A 
ATOM     13  C   UNL     1       5.229   4.129  15.164  0.00  0.00    +0.000 A 
ATOM     14  C   UNL     1       4.422   4.089  16.305  0.00  0.00    +0.000 A 
BRANCH  12  15
ATOM     15  N   UNL     1       7.196   5.008  13.947  0.00  0.00    +0.000 N 
ATOM     16  O   UNL     1       6.856   4.328  12.968  0.00  0.00    +0.000 OA
ATOM     17  O   UNL     1       8.229   5.691  14.002  0.00  0.00    +0.000 OA
ENDBRANCH  12  15
ENDBRANCH   7   9
BRANCH   1  18
ATOM     18  C   UNL     1       4.239   2.478  19.518  0.00  0.00    +0.000 C 
ATOM     19  O   UNL     1       5.099   2.108  20.310  0.00  0.00    +0.000 OA
BRANCH  18  21
ATOM     20  C   UNL     1       2.313   1.714  18.415  0.00  0.00    +0.000 C 
ATOM     21  O   UNL     1       3.732   1.671  18.534  0.00  0.00    +0.000 OA
ENDBRANCH  18  21
ENDBRANCH   1  18
TORSDOF 4
ENDMDL
MODEL 3
REMARK VINA RESULT:      -7.2      3.732      5.541
REMARK  Name = 
REMARK  7 active torsions:
REMARK  status: ('A' for Active; 'I' for Inactive)
REMARK    1  A    between atoms: C_1  and  O_2
REMARK    2  A    between atoms: O_2  and  C_3
REMARK    3  A    between atoms: C_3  and  C_5
REMARK    4  A    between atoms: C_6  and  C_7
REMARK    5  A    between atoms: C_9  and  C_10
REMARK    6  A    between atoms: C_11  and  C_12
REMARK    7  A    between atoms: C_15  and  N_16
REMARK                            x       y       z     vdW  Elec       q    Type
REMARK                         _______ _______ _______ _____ _____    ______ ____
ROOT
ATOM      1  C   UNL     1       2.913   3.617  18.631  0.00  0.00    +0.000 A 
ATOM      2  C   UNL     1       3.906   2.639  18.676  0.00  0.00    +0.000 A 
ATOM      3  C   UNL     1       3.878   1.157  18.544  0.00  0.00    +0.000 C 
ATOM      4  N   UNL     1       5.096   3.264  18.935  0.00  0.00    +0.000 N 
ATOM      5  C   UNL     1       4.923   4.618  19.060  0.00  0.00    +0.000 A 
ATOM      6  C   UNL     1       6.113   5.479  19.318  0.00  0.00    +0.000 C 
ATOM      7  C   UNL     1       3.567   4.888  18.890  0.00  0.00    +0.000 A 
ATOM      8  H   UNL     1       5.985   2.788  19.031  0.00  0.00    +0.000 HD
ENDROOT
BRANCH   7   9
ATOM      9  C   UNL     1       2.988   6.240  18.954  0.00  0.00    +0.000 A 
ATOM     10  C   UNL     1       3.123   7.139  17.884  0.00  0.00    +0.000 A 
ATOM     11  C   UNL     1       2.520   8.405  17.915  0.00  0.00    +0.000 A 
ATOM     12  C   UNL     1       1.815   8.804  19.055  0.00  0.00    +0.000 A 
ATOM     13  C   UNL     1       1.697   7.941  20.146  0.00  0.00    +0.000 A 
ATOM     14  C   UNL     1       2.259   6.663  20.077  0.00  0.00    +0.000 A 
BRANCH  12  15
ATOM     15  N   UNL     1       1.181  10.126  19.107  0.00  0.00    +0.000 N 
ATOM     16  O   UNL     1       0.179  10.259  19.824  0.00  0.00    +0.000 OA
ATOM     17  O   UNL     1       1.684  11.034  18.428  0.00  0.00    +0.000 OA
ENDBRANCH  12  15
ENDBRANCH   7   9
BRANCH   1  18
ATOM     18  C   UNL     1       1.485   3.376  18.409  0.00  0.00    +0.000 C 
ATOM     19  O   UNL     1       0.869   3.786  17.430  0.00  0.00    +0.000 OA
BRANCH  18  21
ATOM     20  C   UNL     1       1.007   3.164  20.697  0.00  0.00    +0.000 C 
ATOM     21  O   UNL     1       0.908   2.611  19.388  0.00  0.00    +0.000 OA
ENDBRANCH  18  21
ENDBRANCH   1  18
TORSDOF 4
ENDMDL
MODEL 4
REMARK VINA RESULT:      -7.1      3.727      5.493
REMARK  Name = 
REMARK  7 active torsions:
REMARK  status: ('A' for Active; 'I' for Inactive)
REMARK    1  A    between atoms: C_1  and  O_2
REMARK    2  A    between atoms: O_2  and  C_3
REMARK    3  A    between atoms: C_3  and  C_5
REMARK    4  A    between atoms: C_6  and  C_7
REMARK    5  A    between atoms: C_9  and  C_10
REMARK    6  A    between atoms: C_11  and  C_12
REMARK    7  A    between atoms: C_15  and  N_16
REMARK                            x       y       z     vdW  Elec       q    Type
REMARK                         _______ _______ _______ _____ _____    ______ ____
ROOT
ATOM      1  C   UNL     1       2.942   3.600  18.665  0.00  0.00    +0.000 A 
ATOM      2  C   UNL     1       3.960   2.651  18.747  0.00  0.00    +0.000 A 
ATOM      3  C   UNL     1       3.970   1.165  18.670  0.00  0.00    +0.000 C 
ATOM      4  N   UNL     1       5.133   3.316  18.982  0.00  0.00    +0.000 N 
ATOM      5  C   UNL     1       4.925   4.669  19.056  0.00  0.00    +0.000 A 
ATOM      6  C   UNL     1       6.093   5.569  19.281  0.00  0.00    +0.000 C 
ATOM      7  C   UNL     1       3.563   4.897  18.877  0.00  0.00    +0.000 A 
ATOM      8  H   UNL     1       6.034   2.867  19.095  0.00  0.00    +0.000 HD
ENDROOT
BRANCH   7   9
ATOM      9  C   UNL     1       2.949   6.235  18.890  0.00  0.00    +0.000 A 
ATOM     10  C   UNL     1       2.262   6.708  20.019  0.00  0.00    +0.000 A 
ATOM     11  C   UNL     1       1.730   8.005  20.059  0.00  0.00    +0.000 A 
ATOM     12  C   UNL     1       1.838   8.828  18.934  0.00  0.00    +0.000 A 
ATOM     13  C   UNL     1       2.488   8.368  17.786  0.00  0.00    +0.000 A 
ATOM     14  C   UNL     1       3.058   7.092  17.783  0.00  0.00    +0.000 A 
BRANCH  12  15
ATOM     15  N   UNL     1       1.285  10.187  18.955  0.00  0.00    +0.000 N 
ATOM     16  O   UNL     1       0.216  10.366  19.555  0.00  0.00    +0.000 OA
ATOM     17  O   UNL     1       1.919  11.077  18.370  0.00  0.00    +0.000 OA
ENDBRANCH  12  15
ENDBRANCH   7   9
BRANCH   1  18
ATOM     18  C   UNL     1       1.521   3.315  18.453  0.00  0.00    +0.000 C 
ATOM     19  O   UNL     1       0.888   3.697  17.474  0.00  0.00    +0.000 OA
BRANCH  18  21
ATOM     20  C   UNL     1       1.024   3.128  20.740  0.00  0.00    +0.000 C 
ATOM     21  O   UNL     1       0.972   2.541  19.442  0.00  0.00    +0.000 OA
ENDBRANCH  18  21
ENDBRANCH   1  18
TORSDOF 4
ENDMDL
MODEL 5
REMARK VINA RESULT:      -7.1      0.658      1.612
REMARK  Name = 
REMARK  7 active torsions:
REMARK  status: ('A' for Active; 'I' for Inactive)
REMARK    1  A    between atoms: C_1  and  O_2
REMARK    2  A    between atoms: O_2  and  C_3
REMARK    3  A    between atoms: C_3  and  C_5
REMARK    4  A    between atoms: C_6  and  C_7
REMARK    5  A    between atoms: C_9  and  C_10
REMARK    6  A    between atoms: C_11  and  C_12
REMARK    7  A    between atoms: C_15  and  N_16
REMARK                            x       y       z     vdW  Elec       q    Type
REMARK                         _______ _______ _______ _____ _____    ______ ____
ROOT
ATOM      1  C   UNL     1       3.497   3.668  19.572  0.00  0.00    +0.000 A 
ATOM      2  C   UNL     1       2.563   4.099  20.512  0.00  0.00    +0.000 A 
ATOM      3  C   UNL     1       1.913   3.437  21.675  0.00  0.00    +0.000 C 
ATOM      4  N   UNL     1       2.210   5.383  20.192  0.00  0.00    +0.000 N 
ATOM      5  C   UNL     1       2.881   5.813  19.077  0.00  0.00    +0.000 A 
ATOM      6  C   UNL     1       2.650   7.202  18.584  0.00  0.00    +0.000 C 
ATOM      7  C   UNL     1       3.691   4.767  18.642  0.00  0.00    +0.000 A 
ATOM      8  H   UNL     1       1.537   5.938  20.706  0.00  0.00    +0.000 HD
ENDROOT
BRANCH   7   9
ATOM      9  C   UNL     1       4.569   4.849  17.463  0.00  0.00    +0.000 A 
ATOM     10  C   UNL     1       5.736   5.630  17.479  0.00  0.00    +0.000 A 
ATOM     11  C   UNL     1       6.608   5.662  16.381  0.00  0.00    +0.000 A 
ATOM     12  C   UNL     1       6.285   4.945  15.225  0.00  0.00    +0.000 A 
ATOM     13  C   UNL     1       5.112   4.188  15.172  0.00  0.00    +0.000 A 
ATOM     14  C   UNL     1       4.282   4.126  16.295  0.00  0.00    +0.000 A 
BRANCH  12  15
ATOM     15  N   UNL     1       7.183   4.968  14.065  0.00  0.00    +0.000 N 
ATOM     16  O   UNL     1       8.195   5.681  14.132  0.00  0.00    +0.000 OA
ATOM     17  O   UNL     1       6.876   4.276  13.084  0.00  0.00    +0.000 OA
ENDBRANCH  12  15
ENDBRANCH   7   9
BRANCH   1  18
ATOM     18  C   UNL     1       4.113   2.340  19.526  0.00  0.00    +0.000 C 
ATOM     19  O   UNL     1       3.738   1.440  18.780  0.00  0.00    +0.000 OA
BRANCH  18  21
ATOM     20  C   UNL     1       5.250   0.951  21.038  0.00  0.00    +0.000 C 
ATOM     21  O   UNL     1       5.180   2.210  20.375  0.00  0.00    +0.000 OA
ENDBRANCH  18  21
ENDBRANCH   1  18
TORSDOF 4
ENDMDL
MODEL 6
REMARK VINA RESULT:      -7.0      0.560      1.133
REMARK  Name = 
REMARK  7 active torsions:
REMARK  status: ('A' for Active; 'I' for Inactive)
REMARK    1  A    between atoms: C_1  and  O_2
REMARK    2  A    between atoms: O_2  and  C_3
REMARK    3  A    between atoms: C_3  and  C_5
REMARK    4  A    between atoms: C_6  and  C_7
REMARK    5  A    between atoms: C_9  and  C_10
REMARK    6  A    between atoms: C_11  and  C_12
REMARK    7  A    between atoms: C_15  and  N_16
REMARK                            x       y       z     vdW  Elec       q    Type
REMARK                         _______ _______ _______ _____ _____    ______ ____
ROOT
ATOM      1  C   UNL     1       3.526   3.967  19.177  0.00  0.00    +0.000 A 
ATOM      2  C   UNL     1       2.576   4.491  20.052  0.00  0.00    +0.000 A 
ATOM      3  C   UNL     1       1.832   3.916  21.206  0.00  0.00    +0.000 C 
ATOM      4  N   UNL     1       2.317   5.778  19.665  0.00  0.00    +0.000 N 
ATOM      5  C   UNL     1       3.064   6.122  18.569  0.00  0.00    +0.000 A 
ATOM      6  C   UNL     1       2.941   7.500  18.012  0.00  0.00    +0.000 C 
ATOM      7  C   UNL     1       3.830   5.013  18.216  0.00  0.00    +0.000 A 
ATOM      8  H   UNL     1       1.654   6.392  20.123  0.00  0.00    +0.000 HD
ENDROOT
BRANCH   7   9
ATOM      9  C   UNL     1       4.767   4.995  17.081  0.00  0.00    +0.000 A 
ATOM     10  C   UNL     1       4.530   4.189  15.956  0.00  0.00    +0.000 A 
ATOM     11  C   UNL     1       5.387   4.215  14.846  0.00  0.00    +0.000 A 
ATOM     12  C   UNL     1       6.530   5.020  14.878  0.00  0.00    +0.000 A 
ATOM     13  C   UNL     1       6.806   5.804  16.000  0.00  0.00    +0.000 A 
ATOM     14  C   UNL     1       5.913   5.806  17.075  0.00  0.00    +0.000 A 
BRANCH  12  15
ATOM     15  N   UNL     1       7.440   5.058  13.728  0.00  0.00    +0.000 N 
ATOM     16  O   UNL     1       8.449   5.772  13.812  0.00  0.00    +0.000 OA
ATOM     17  O   UNL     1       7.144   4.374  12.736  0.00  0.00    +0.000 OA
ENDBRANCH  12  15
ENDBRANCH   7   9
BRANCH   1  18
ATOM     18  C   UNL     1       4.063   2.605  19.214  0.00  0.00    +0.000 C 
ATOM     19  O   UNL     1       3.632   1.684  18.526  0.00  0.00    +0.000 OA
BRANCH  18  21
ATOM     20  C   UNL     1       5.056   1.314  20.904  0.00  0.00    +0.000 C 
ATOM     21  O   UNL     1       5.125   2.465  20.068  0.00  0.00    +0.000 OA
ENDBRANCH  18  21
ENDBRANCH   1  18
TORSDOF 4
ENDMDL
MODEL 7
REMARK VINA RESULT:      -6.9      3.749      5.758
REMARK  Name = 
REMARK  7 active torsions:
REMARK  status: ('A' for Active; 'I' for Inactive)
REMARK    1  A    between atoms: C_1  and  O_2
REMARK    2  A    between atoms: O_2  and  C_3
REMARK    3  A    between atoms: C_3  and  C_5
REMARK    4  A    between atoms: C_6  and  C_7
REMARK    5  A    between atoms: C_9  and  C_10
REMARK    6  A    between atoms: C_11  and  C_12
REMARK    7  A    between atoms: C_15  and  N_16
REMARK                            x       y       z     vdW  Elec       q    Type
REMARK                         _______ _______ _______ _____ _____    ______ ____
ROOT
ATOM      1  C   UNL     1       2.714   3.811  18.645  0.00  0.00    +0.000 A 
ATOM      2  C   UNL     1       3.732   2.908  18.342  0.00  0.00    +0.000 A 
ATOM      3  C   UNL     1       3.787   1.421  18.290  0.00  0.00    +0.000 C 
ATOM      4  N   UNL     1       4.870   3.628  18.097  0.00  0.00    +0.000 N 
ATOM      5  C   UNL     1       4.638   4.972  18.224  0.00  0.00    +0.000 A 
ATOM      6  C   UNL     1       5.755   5.927  17.969  0.00  0.00    +0.000 C 
ATOM      7  C   UNL     1       3.302   5.138  18.581  0.00  0.00    +0.000 A 
ATOM      8  H   UNL     1       5.767   3.220  17.861  0.00  0.00    +0.000 HD
ENDROOT
BRANCH   7   9
ATOM      9  C   UNL     1       2.673   6.450  18.810  0.00  0.00    +0.000 A 
ATOM     10  C   UNL     1       2.227   6.829  20.086  0.00  0.00    +0.000 A 
ATOM     11  C   UNL     1       1.685   8.101  20.321  0.00  0.00    +0.000 A 
ATOM     12  C   UNL     1       1.535   8.993  19.254  0.00  0.00    +0.000 A 
ATOM     13  C   UNL     1       1.940   8.626  17.968  0.00  0.00    +0.000 A 
ATOM     14  C   UNL     1       2.527   7.374  17.763  0.00  0.00    +0.000 A 
BRANCH  12  15
ATOM     15  N   UNL     1       0.967  10.327  19.479  0.00  0.00    +0.000 N 
ATOM     16  O   UNL     1       1.091  11.168  18.577  0.00  0.00    +0.000 OA
ATOM     17  O   UNL     1       0.399  10.536  20.561  0.00  0.00    +0.000 OA
ENDBRANCH  12  15
ENDBRANCH   7   9
BRANCH   1  18
ATOM     18  C   UNL     1       1.337   3.460  19.002  0.00  0.00    +0.000 C 
ATOM     19  O   UNL     1       0.551   2.917  18.232  0.00  0.00    +0.000 OA
BRANCH  18  21
ATOM     20  C   UNL     1       1.339   2.737  21.235  0.00  0.00    +0.000 C 
ATOM     21  O   UNL     1       1.022   3.764  20.300  0.00  0.00    +0.000 OA
ENDBRANCH  18  21
ENDBRANCH   1  18
TORSDOF 4
ENDMDL
MODEL 8
REMARK VINA RESULT:      -6.9      3.838      6.640
REMARK  Name = 
REMARK  7 active torsions:
REMARK  status: ('A' for Active; 'I' for Inactive)
REMARK    1  A    between atoms: C_1  and  O_2
REMARK    2  A    between atoms: O_2  and  C_3
REMARK    3  A    between atoms: C_3  and  C_5
REMARK    4  A    between atoms: C_6  and  C_7
REMARK    5  A    between atoms: C_9  and  C_10
REMARK    6  A    between atoms: C_11  and  C_12
REMARK    7  A    between atoms: C_15  and  N_16
REMARK                            x       y       z     vdW  Elec       q    Type
REMARK                         _______ _______ _______ _____ _____    ______ ____
ROOT
ATOM      1  C   UNL     1       4.426   5.567  17.018  0.00  0.00    +0.000 A 
ATOM      2  C   UNL     1       4.548   4.239  16.615  0.00  0.00    +0.000 A 
ATOM      3  C   UNL     1       5.545   3.520  15.776  0.00  0.00    +0.000 C 
ATOM      4  N   UNL     1       3.470   3.552  17.107  0.00  0.00    +0.000 N 
ATOM      5  C   UNL     1       2.645   4.380  17.822  0.00  0.00    +0.000 A 
ATOM      6  C   UNL     1       1.425   3.809  18.462  0.00  0.00    +0.000 C 
ATOM      7  C   UNL     1       3.195   5.659  17.784  0.00  0.00    +0.000 A 
ATOM      8  H   UNL     1       3.302   2.565  16.955  0.00  0.00    +0.000 HD
ENDROOT
BRANCH   7   9
ATOM      9  C   UNL     1       2.590   6.829  18.443  0.00  0.00    +0.000 A 
ATOM     10  C   UNL     1       2.241   7.975  17.712  0.00  0.00    +0.000 A 
ATOM     11  C   UNL     1       1.608   9.066  18.325  0.00  0.00    +0.000 A 
ATOM     12  C   UNL     1       1.367   9.038  19.702  0.00  0.00    +0.000 A 
ATOM     13  C   UNL     1       1.737   7.923  20.457  0.00  0.00    +0.000 A 
ATOM     14  C   UNL     1       2.318   6.822  19.820  0.00  0.00    +0.000 A 
BRANCH  12  15
ATOM     15  N   UNL     1       0.709  10.171  20.361  0.00  0.00    +0.000 N 
ATOM     16  O   UNL     1      -0.198  10.750  19.746  0.00  0.00    +0.000 OA
ATOM     17  O   UNL     1       1.100  10.485  21.495  0.00  0.00    +0.000 OA
ENDBRANCH  12  15
ENDBRANCH   7   9
BRANCH   1  18
ATOM     18  C   UNL     1       5.352   6.652  16.681  0.00  0.00    +0.000 C 
ATOM     19  O   UNL     1       5.441   7.147  15.562  0.00  0.00    +0.000 OA
BRANCH  18  21
ATOM     20  C   UNL     1       7.464   7.307  17.467  0.00  0.00    +0.000 C 
ATOM     21  O   UNL     1       6.086   7.088  17.752  0.00  0.00    +0.000 OA
ENDBRANCH  18  21
ENDBRANCH   1  18
TORSDOF 4
ENDMDL
MODEL 9
REMARK VINA RESULT:      -6.8      3.829      6.570
REMARK  Name = 
REMARK  7 active torsions:
REMARK  status: ('A' for Active; 'I' for Inactive)
REMARK    1  A    between atoms: C_1  and  O_2
REMARK    2  A    between atoms: O_2  and  C_3
REMARK    3  A    between atoms: C_3  and  C_5
REMARK    4  A    between atoms: C_6  and  C_7
REMARK    5  A    between atoms: C_9  and  C_10
REMARK    6  A    between atoms: C_11  and  C_12
REMARK    7  A    between atoms: C_15  and  N_16
REMARK                            x       y       z     vdW  Elec       q    Type
REMARK                         _______ _______ _______ _____ _____    ______ ____
ROOT
ATOM      1  C   UNL     1       4.434   5.563  16.929  0.00  0.00    +0.000 A 
ATOM      2  C   UNL     1       4.637   4.218  16.625  0.00  0.00    +0.000 A 
ATOM      3  C   UNL     1       5.640   3.507  15.785  0.00  0.00    +0.000 C 
ATOM      4  N   UNL     1       3.645   3.497  17.234  0.00  0.00    +0.000 N 
ATOM      5  C   UNL     1       2.799   4.319  17.931  0.00  0.00    +0.000 A 
ATOM      6  C   UNL     1       1.664   3.715  18.689  0.00  0.00    +0.000 C 
ATOM      7  C   UNL     1       3.243   5.628  17.759  0.00  0.00    +0.000 A 
ATOM      8  H   UNL     1       3.546   2.491  17.172  0.00  0.00    +0.000 HD
ENDROOT
BRANCH   7   9
ATOM      9  C   UNL     1       2.586   6.801  18.360  0.00  0.00    +0.000 A 
ATOM     10  C   UNL     1       2.330   6.862  19.739  0.00  0.00    +0.000 A 
ATOM     11  C   UNL     1       1.761   8.002  20.325  0.00  0.00    +0.000 A 
ATOM     12  C   UNL     1       1.392   9.081  19.515  0.00  0.00    +0.000 A 
ATOM     13  C   UNL     1       1.604   9.029  18.135  0.00  0.00    +0.000 A 
ATOM     14  C   UNL     1       2.221   7.906  17.576  0.00  0.00    +0.000 A 
BRANCH  12  15
ATOM     15  N   UNL     1       0.792  10.281  20.109  0.00  0.00    +0.000 N 
ATOM     16  O   UNL     1       0.810  10.384  21.344  0.00  0.00    +0.000 OA
ATOM     17  O   UNL     1       0.301  11.121  19.341  0.00  0.00    +0.000 OA
ENDBRANCH  12  15
ENDBRANCH   7   9
BRANCH   1  18
ATOM     18  C   UNL     1       5.251   6.681  16.451  0.00  0.00    +0.000 C 
ATOM     19  O   UNL     1       5.224   7.101  15.297  0.00  0.00    +0.000 OA
BRANCH  18  21
ATOM     20  C   UNL     1       7.336   6.690  17.529  0.00  0.00    +0.000 C 
ATOM     21  O   UNL     1       6.026   7.241  17.432  0.00  0.00    +0.000 OA
ENDBRANCH  18  21
ENDBRANCH   1  18
TORSDOF 4
ENDMDL
