MODEL 1
REMARK VINA RESULT:      -7.9      0.000      0.000
REMARK  Name = 
REMARK  8 active torsions:
REMARK  status: ('A' for Active; 'I' for Inactive)
REMARK    1  A    between atoms: C_1  and  O_2
REMARK    2  A    between atoms: O_2  and  C_3
REMARK    3  A    between atoms: C_5  and  C_6
REMARK    4  A    between atoms: C_6  and  N_7
REMARK    5  A    between atoms: N_7  and  C_8
REMARK    6  A    between atoms: N_7  and  N_16
REMARK    7  A    between atoms: C_11  and  C_12
REMARK    8  A    between atoms: C_23  and  O_24
REMARK                            x       y       z     vdW  Elec       q    Type
REMARK                         _______ _______ _______ _____ _____    ______ ____
ROOT
ATOM      1  N   UNL     1       2.881   5.496  19.185  0.00  0.00    +0.000 N 
ENDROOT
BRANCH   1   2
ATOM      2  C   UNL     1       2.422   6.824  19.110  0.00  0.00    +0.000 A 
ATOM      3  C   UNL     1       1.911   7.476  20.248  0.00  0.00    +0.000 A 
ATOM      4  C   UNL     1       1.358   8.761  20.176  0.00  0.00    +0.000 A 
ATOM      5  C   UNL     1       1.315   9.435  18.959  0.00  0.00    +0.000 A 
ATOM      6  C   UNL     1       1.872   8.840  17.832  0.00  0.00    +0.000 A 
ATOM      7  C   UNL     1       2.424   7.556  17.913  0.00  0.00    +0.000 A 
BRANCH   5   8
ATOM      8  C   UNL     1       0.679  10.718  18.864  0.00  0.00    +0.000 C 
ATOM      9  N   UNL     1       0.183  11.762  18.807  0.00  0.00    +0.000 NA
ENDBRANCH   5   8
ENDBRANCH   1   2
BRANCH   1  10
ATOM     10  N   UNL     1       2.040   4.372  19.193  0.00  0.00    +0.000 N 
ATOM     11  C   UNL     1       1.503   3.715  20.269  0.00  0.00    +0.000 A 
ATOM     12  N   UNL     1       0.715   2.743  19.865  0.00  0.00    +0.000 NA
ATOM     13  N   UNL     1       0.732   2.740  18.490  0.00  0.00    +0.000 NA
ATOM     14  C   UNL     1       1.516   3.722  18.103  0.00  0.00    +0.000 A 
ENDBRANCH   1  10
BRANCH   1  15
ATOM     15  C   UNL     1       4.312   5.186  19.304  0.00  0.00    +0.000 C 
BRANCH  15  18
ATOM     16  C   UNL     1       6.954   6.307  16.699  0.00  0.00    +0.000 A 
ATOM     17  C   UNL     1       6.143   6.303  17.847  0.00  0.00    +0.000 A 
ATOM     18  C   UNL     1       5.122   5.350  18.023  0.00  0.00    +0.000 A 
ATOM     19  C   UNL     1       4.917   4.417  16.993  0.00  0.00    +0.000 A 
ATOM     20  C   UNL     1       5.748   4.382  15.871  0.00  0.00    +0.000 A 
ATOM     21  C   UNL     1       6.787   5.302  15.743  0.00  0.00    +0.000 A 
BRANCH  16  23
ATOM     22  C   UNL     1       7.797   8.277  17.704  0.00  0.00    +0.000 C 
ATOM     23  O   UNL     1       7.899   7.301  16.667  0.00  0.00    +0.000 OA
ENDBRANCH  16  23
BRANCH  21  24
ATOM     24  O   UNL     1       7.654   5.170  14.696  0.00  0.00    +0.000 OA
ATOM     25  H   UNL     1       7.912   4.237  14.615  0.00  0.00    +0.000 HD
ENDBRANCH  21  24
ENDBRANCH  15  18
ENDBRANCH   1  15
TORSDOF 7
ENDMDL
MODEL 2
REMARK VINA RESULT:      -7.7      0.227      1.248
REMARK  Name = 
REMARK  8 active torsions:
REMARK  status: ('A' for Active; 'I' for Inactive)
REMARK    1  A    between atoms: C_1  and  O_2
REMARK    2  A    between atoms: O_2  and  C_3
REMARK    3  A    between atoms: C_5  and  C_6
REMARK    4  A    between atoms: C_6  and  N_7
REMARK    5  A    between atoms: N_7  and  C_8
REMARK    6  A    between atoms: N_7  and  N_16
REMARK    7  A    between atoms: C_11  and  C_12
REMARK    8  A    between atoms: C_23  and  O_24
REMARK                            x       y       z     vdW  Elec       q    Type
REMARK                         _______ _______ _______ _____ _____    ______ ____
ROOT
ATOM      1  N   UNL     1       2.813   5.503  19.173  0.00  0.00    +0.000 N 
ENDROOT
BRANCH   1   2
ATOM      2  C   UNL     1       2.325   6.820  19.101  0.00  0.00    +0.000 A 
ATOM      3  C   UNL     1       2.378   7.544  17.896  0.00  0.00    +0.000 A 
ATOM      4  C   UNL     1       1.990   8.888  17.825  0.00  0.00    +0.000 A 
ATOM      5  C   UNL     1       1.522   9.541  18.962  0.00  0.00    +0.000 A 
ATOM      6  C   UNL     1       1.399   8.830  20.151  0.00  0.00    +0.000 A 
ATOM      7  C   UNL     1       1.788   7.487  20.213  0.00  0.00    +0.000 A 
BRANCH   5   8
ATOM      8  C   UNL     1       1.198  10.937  18.913  0.00  0.00    +0.000 C 
ATOM      9  N   UNL     1       0.952  12.069  18.896  0.00  0.00    +0.000 NA
ENDBRANCH   5   8
ENDBRANCH   1   2
BRANCH   1  10
ATOM     10  N   UNL     1       1.999   4.359  19.158  0.00  0.00    +0.000 N 
ATOM     11  C   UNL     1       1.537   3.654  18.077  0.00  0.00    +0.000 A 
ATOM     12  N   UNL     1       0.851   2.605  18.474  0.00  0.00    +0.000 NA
ATOM     13  N   UNL     1       0.844   2.612  19.849  0.00  0.00    +0.000 NA
ATOM     14  C   UNL     1       1.540   3.654  20.243  0.00  0.00    +0.000 A 
ENDBRANCH   1  10
BRANCH   1  15
ATOM     15  C   UNL     1       4.249   5.225  19.313  0.00  0.00    +0.000 C 
BRANCH  15  18
ATOM     16  C   UNL     1       6.914   6.297  16.709  0.00  0.00    +0.000 A 
ATOM     17  C   UNL     1       6.097   6.311  17.854  0.00  0.00    +0.000 A 
ATOM     18  C   UNL     1       5.068   5.369  18.034  0.00  0.00    +0.000 A 
ATOM     19  C   UNL     1       4.859   4.427  17.013  0.00  0.00    +0.000 A 
ATOM     20  C   UNL     1       5.695   4.374  15.895  0.00  0.00    +0.000 A 
ATOM     21  C   UNL     1       6.743   5.283  15.764  0.00  0.00    +0.000 A 
BRANCH  16  23
ATOM     22  C   UNL     1       7.759   8.279  17.688  0.00  0.00    +0.000 C 
ATOM     23  O   UNL     1       7.868   7.282  16.672  0.00  0.00    +0.000 OA
ENDBRANCH  16  23
BRANCH  21  24
ATOM     24  O   UNL     1       7.614   5.133  14.722  0.00  0.00    +0.000 OA
ATOM     25  H   UNL     1       7.958   6.005  14.470  0.00  0.00    +0.000 HD
ENDBRANCH  21  24
ENDBRANCH  15  18
ENDBRANCH   1  15
TORSDOF 7
ENDMDL
MODEL 3
REMARK VINA RESULT:      -7.4      1.468      1.843
REMARK  Name = 
REMARK  8 active torsions:
REMARK  status: ('A' for Active; 'I' for Inactive)
REMARK    1  A    between atoms: C_1  and  O_2
REMARK    2  A    between atoms: O_2  and  C_3
REMARK    3  A    between atoms: C_5  and  C_6
REMARK    4  A    between atoms: C_6  and  N_7
REMARK    5  A    between atoms: N_7  and  C_8
REMARK    6  A    between atoms: N_7  and  N_16
REMARK    7  A    between atoms: C_11  and  C_12
REMARK    8  A    between atoms: C_23  and  O_24
REMARK                            x       y       z     vdW  Elec       q    Type
REMARK                         _______ _______ _______ _____ _____    ______ ____
ROOT
ATOM      1  N   UNL     1       2.501   4.496  19.155  0.00  0.00    +0.000 N 
ENDROOT
BRANCH   1   2
ATOM      2  C   UNL     1       2.308   5.890  19.140  0.00  0.00    +0.000 A 
ATOM      3  C   UNL     1       1.986   6.587  20.319  0.00  0.00    +0.000 A 
ATOM      4  C   UNL     1       1.692   7.956  20.310  0.00  0.00    +0.000 A 
ATOM      5  C   UNL     1       1.729   8.670  19.115  0.00  0.00    +0.000 A 
ATOM      6  C   UNL     1       2.107   8.019  17.946  0.00  0.00    +0.000 A 
ATOM      7  C   UNL     1       2.400   6.650  17.964  0.00  0.00    +0.000 A 
BRANCH   5   8
ATOM      8  C   UNL     1       1.353  10.054  19.088  0.00  0.00    +0.000 C 
ATOM      9  N   UNL     1       1.057  11.173  19.039  0.00  0.00    +0.000 NA
ENDBRANCH   5   8
ENDBRANCH   1   2
BRANCH   1  10
ATOM     10  N   UNL     1       2.342   3.692  20.296  0.00  0.00    +0.000 N 
ATOM     11  C   UNL     1       1.188   3.385  20.970  0.00  0.00    +0.000 A 
ATOM     12  N   UNL     1       1.442   2.552  21.953  0.00  0.00    +0.000 NA
ATOM     13  N   UNL     1       2.794   2.303  21.947  0.00  0.00    +0.000 NA
ATOM     14  C   UNL     1       3.316   2.979  20.949  0.00  0.00    +0.000 A 
ENDBRANCH   1  10
BRANCH   1  15
ATOM     15  C   UNL     1       2.933   3.769  17.954  0.00  0.00    +0.000 C 
BRANCH  15  18
ATOM     16  C   UNL     1       6.707   4.547  17.529  0.00  0.00    +0.000 A 
ATOM     17  C   UNL     1       5.466   4.293  18.140  0.00  0.00    +0.000 A 
ATOM     18  C   UNL     1       4.282   4.196  17.386  0.00  0.00    +0.000 A 
ATOM     19  C   UNL     1       4.374   4.396  15.998  0.00  0.00    +0.000 A 
ATOM     20  C   UNL     1       5.609   4.600  15.376  0.00  0.00    +0.000 A 
ATOM     21  C   UNL     1       6.776   4.638  16.137  0.00  0.00    +0.000 A 
BRANCH  16  23
ATOM     22  C   UNL     1       7.903   5.857  19.096  0.00  0.00    +0.000 C 
ATOM     23  O   UNL     1       7.768   4.621  18.396  0.00  0.00    +0.000 OA
ENDBRANCH  16  23
BRANCH  21  24
ATOM     24  O   UNL     1       7.977   4.722  15.492  0.00  0.00    +0.000 OA
ATOM     25  H   UNL     1       7.833   5.090  14.605  0.00  0.00    +0.000 HD
ENDBRANCH  21  24
ENDBRANCH  15  18
ENDBRANCH   1  15
TORSDOF 7
ENDMDL
MODEL 4
REMARK VINA RESULT:      -7.3      0.807      1.908
REMARK  Name = 
REMARK  8 active torsions:
REMARK  status: ('A' for Active; 'I' for Inactive)
REMARK    1  A    between atoms: C_1  and  O_2
REMARK    2  A    between atoms: O_2  and  C_3
REMARK    3  A    between atoms: C_5  and  C_6
REMARK    4  A    between atoms: C_6  and  N_7
REMARK    5  A    between atoms: N_7  and  C_8
REMARK    6  A    between atoms: N_7  and  N_16
REMARK    7  A    between atoms: C_11  and  C_12
REMARK    8  A    between atoms: C_23  and  O_24
REMARK                            x       y       z     vdW  Elec       q    Type
REMARK                         _______ _______ _______ _____ _____    ______ ____
ROOT
ATOM      1  N   UNL     1       3.163   5.332  19.252  0.00  0.00    +0.000 N 
ENDROOT
BRANCH   1   2
ATOM      2  C   UNL     1       2.654   6.641  19.156  0.00  0.00    +0.000 A 
ATOM      3  C   UNL     1       2.023   7.252  20.255  0.00  0.00    +0.000 A 
ATOM      4  C   UNL     1       1.422   8.513  20.154  0.00  0.00    +0.000 A 
ATOM      5  C   UNL     1       1.450   9.204  18.946  0.00  0.00    +0.000 A 
ATOM      6  C   UNL     1       2.122   8.652  17.862  0.00  0.00    +0.000 A 
ATOM      7  C   UNL     1       2.721   7.391  17.972  0.00  0.00    +0.000 A 
BRANCH   5   8
ATOM      8  C   UNL     1       0.768  10.460  18.816  0.00  0.00    +0.000 C 
ATOM      9  N   UNL     1       0.205  11.469  18.734  0.00  0.00    +0.000 NA
ENDBRANCH   5   8
ENDBRANCH   1   2
BRANCH   1  10
ATOM     10  N   UNL     1       2.387   4.173  19.094  0.00  0.00    +0.000 N 
ATOM     11  C   UNL     1       2.282   3.095  19.935  0.00  0.00    +0.000 A 
ATOM     12  N   UNL     1       1.406   2.234  19.466  0.00  0.00    +0.000 NA
ATOM     13  N   UNL     1       0.921   2.738  18.283  0.00  0.00    +0.000 NA
ATOM     14  C   UNL     1       1.505   3.897  18.078  0.00  0.00    +0.000 A 
ENDBRANCH   1  10
BRANCH   1  15
ATOM     15  C   UNL     1       4.574   5.081  19.573  0.00  0.00    +0.000 C 
BRANCH  15  18
ATOM     16  C   UNL     1       6.231   4.362  16.143  0.00  0.00    +0.000 A 
ATOM     17  C   UNL     1       5.418   4.212  17.280  0.00  0.00    +0.000 A 
ATOM     18  C   UNL     1       5.523   5.084  18.379  0.00  0.00    +0.000 A 
ATOM     19  C   UNL     1       6.495   6.098  18.318  0.00  0.00    +0.000 A 
ATOM     20  C   UNL     1       7.273   6.286  17.173  0.00  0.00    +0.000 A 
ATOM     21  C   UNL     1       7.114   5.443  16.075  0.00  0.00    +0.000 A 
BRANCH  16  23
ATOM     22  C   UNL     1       5.634   3.958  13.889  0.00  0.00    +0.000 C 
ATOM     23  O   UNL     1       6.018   3.431  15.158  0.00  0.00    +0.000 OA
ENDBRANCH  16  23
BRANCH  21  24
ATOM     24  O   UNL     1       7.804   5.722  14.929  0.00  0.00    +0.000 OA
ATOM     25  H   UNL     1       7.745   4.959  14.332  0.00  0.00    +0.000 HD
ENDBRANCH  21  24
ENDBRANCH  15  18
ENDBRANCH   1  15
TORSDOF 7
ENDMDL
MODEL 5
REMARK VINA RESULT:      -7.3      3.152      6.033
REMARK  Name = 
REMARK  8 active torsions:
REMARK  status: ('A' for Active; 'I' for Inactive)
REMARK    1  A    between atoms: C_1  and  O_2
REMARK    2  A    between atoms: O_2  and  C_3
REMARK    3  A    between atoms: C_5  and  C_6
REMARK    4  A    between atoms: C_6  and  N_7
REMARK    5  A    between atoms: N_7  and  C_8
REMARK    6  A    between atoms: N_7  and  N_16
REMARK    7  A    between atoms: C_11  and  C_12
REMARK    8  A    between atoms: C_23  and  O_24
REMARK                            x       y       z     vdW  Elec       q    Type
REMARK                         _______ _______ _______ _____ _____    ______ ____
ROOT
ATOM      1  N   UNL     1       3.622   4.796  18.613  0.00  0.00    +0.000 N 
ENDROOT
BRANCH   1   2
ATOM      2  C   UNL     1       4.586   4.842  17.589  0.00  0.00    +0.000 A 
ATOM      3  C   UNL     1       5.679   5.724  17.667  0.00  0.00    +0.000 A 
ATOM      4  C   UNL     1       6.595   5.859  16.616  0.00  0.00    +0.000 A 
ATOM      5  C   UNL     1       6.446   5.099  15.459  0.00  0.00    +0.000 A 
ATOM      6  C   UNL     1       5.412   4.174  15.383  0.00  0.00    +0.000 A 
ATOM      7  C   UNL     1       4.501   4.045  16.438  0.00  0.00    +0.000 A 
BRANCH   5   8
ATOM      8  C   UNL     1       7.335   5.290  14.349  0.00  0.00    +0.000 C 
ATOM      9  N   UNL     1       8.033   5.434  13.436  0.00  0.00    +0.000 NA
ENDBRANCH   5   8
ENDBRANCH   1   2
BRANCH   1  10
ATOM     10  N   UNL     1       2.637   3.801  18.724  0.00  0.00    +0.000 N 
ATOM     11  C   UNL     1       1.400   3.755  18.136  0.00  0.00    +0.000 A 
ATOM     12  N   UNL     1       0.794   2.628  18.435  0.00  0.00    +0.000 NA
ATOM     13  N   UNL     1       1.636   1.907  19.249  0.00  0.00    +0.000 NA
ATOM     14  C   UNL     1       2.734   2.612  19.404  0.00  0.00    +0.000 A 
ENDBRANCH   1  10
BRANCH   1  15
ATOM     15  C   UNL     1       3.551   5.839  19.646  0.00  0.00    +0.000 C 
BRANCH  15  18
ATOM     16  C   UNL     1       1.145   8.865  19.931  0.00  0.00    +0.000 A 
ATOM     17  C   UNL     1       1.847   7.693  20.264  0.00  0.00    +0.000 A 
ATOM     18  C   UNL     1       2.641   7.017  19.319  0.00  0.00    +0.000 A 
ATOM     19  C   UNL     1       2.683   7.536  18.013  0.00  0.00    +0.000 A 
ATOM     20  C   UNL     1       2.029   8.725  17.685  0.00  0.00    +0.000 A 
ATOM     21  C   UNL     1       1.293   9.407  18.652  0.00  0.00    +0.000 A 
BRANCH  16  23
ATOM     22  C   UNL     1       0.983   9.276  22.256  0.00  0.00    +0.000 C 
ATOM     23  O   UNL     1       0.409   9.404  20.956  0.00  0.00    +0.000 OA
ENDBRANCH  16  23
BRANCH  21  24
ATOM     24  O   UNL     1       0.762  10.625  18.334  0.00  0.00    +0.000 OA
ATOM     25  H   UNL     1       0.196  10.923  19.065  0.00  0.00    +0.000 HD
ENDBRANCH  21  24
ENDBRANCH  15  18
ENDBRANCH   1  15
TORSDOF 7
ENDMDL
MODEL 6
REMARK VINA RESULT:      -7.2      0.845      1.928
REMARK  Name = 
REMARK  8 active torsions:
REMARK  status: ('A' for Active; 'I' for Inactive)
REMARK    1  A    between atoms: C_1  and  O_2
REMARK    2  A    between atoms: O_2  and  C_3
REMARK    3  A    between atoms: C_5  and  C_6
REMARK    4  A    between atoms: C_6  and  N_7
REMARK    5  A    between atoms: N_7  and  C_8
REMARK    6  A    between atoms: N_7  and  N_16
REMARK    7  A    between atoms: C_11  and  C_12
REMARK    8  A    between atoms: C_23  and  O_24
REMARK                            x       y       z     vdW  Elec       q    Type
REMARK                         _______ _______ _______ _____ _____    ______ ____
ROOT
ATOM      1  N   UNL     1       2.758   5.694  19.342  0.00  0.00    +0.000 N 
ENDROOT
BRANCH   1   2
ATOM      2  C   UNL     1       2.301   7.019  19.224  0.00  0.00    +0.000 A 
ATOM      3  C   UNL     1       1.747   7.692  20.329  0.00  0.00    +0.000 A 
ATOM      4  C   UNL     1       1.196   8.974  20.211  0.00  0.00    +0.000 A 
ATOM      5  C   UNL     1       1.198   9.624  18.980  0.00  0.00    +0.000 A 
ATOM      6  C   UNL     1       1.797   9.008  17.887  0.00  0.00    +0.000 A 
ATOM      7  C   UNL     1       2.347   7.727  18.013  0.00  0.00    +0.000 A 
BRANCH   5   8
ATOM      8  C   UNL     1       0.565  10.904  18.836  0.00  0.00    +0.000 C 
ATOM      9  N   UNL     1       0.059  11.942  18.746  0.00  0.00    +0.000 NA
ENDBRANCH   5   8
ENDBRANCH   1   2
BRANCH   1  10
ATOM     10  N   UNL     1       1.941   4.562  19.190  0.00  0.00    +0.000 N 
ATOM     11  C   UNL     1       1.492   3.983  18.031  0.00  0.00    +0.000 A 
ATOM     12  N   UNL     1       0.798   2.900  18.301  0.00  0.00    +0.000 NA
ATOM     13  N   UNL     1       0.770   2.755  19.668  0.00  0.00    +0.000 NA
ATOM     14  C   UNL     1       1.463   3.745  20.184  0.00  0.00    +0.000 A 
ENDBRANCH   1  10
BRANCH   1  15
ATOM     15  C   UNL     1       4.155   5.393  19.684  0.00  0.00    +0.000 C 
BRANCH  15  18
ATOM     16  C   UNL     1       5.639   5.301  16.103  0.00  0.00    +0.000 A 
ATOM     17  C   UNL     1       4.720   5.188  17.161  0.00  0.00    +0.000 A 
ATOM     18  C   UNL     1       5.117   5.344  18.501  0.00  0.00    +0.000 A 
ATOM     19  C   UNL     1       6.479   5.585  18.754  0.00  0.00    +0.000 A 
ATOM     20  C   UNL     1       7.391   5.748  17.709  0.00  0.00    +0.000 A 
ATOM     21  C   UNL     1       6.964   5.643  16.386  0.00  0.00    +0.000 A 
BRANCH  16  23
ATOM     22  C   UNL     1       5.637   4.018  14.115  0.00  0.00    +0.000 C 
ATOM     23  O   UNL     1       5.103   5.116  14.854  0.00  0.00    +0.000 OA
ENDBRANCH  16  23
BRANCH  21  24
ATOM     24  O   UNL     1       7.852   5.921  15.386  0.00  0.00    +0.000 OA
ATOM     25  H   UNL     1       8.088   6.862  15.427  0.00  0.00    +0.000 HD
ENDBRANCH  21  24
ENDBRANCH  15  18
ENDBRANCH   1  15
TORSDOF 7
ENDMDL
MODEL 7
REMARK VINA RESULT:      -7.2      0.829      2.264
REMARK  Name = 
REMARK  8 active torsions:
REMARK  status: ('A' for Active; 'I' for Inactive)
REMARK    1  A    between atoms: C_1  and  O_2
REMARK    2  A    between atoms: O_2  and  C_3
REMARK    3  A    between atoms: C_5  and  C_6
REMARK    4  A    between atoms: C_6  and  N_7
REMARK    5  A    between atoms: N_7  and  C_8
REMARK    6  A    between atoms: N_7  and  N_16
REMARK    7  A    between atoms: C_11  and  C_12
REMARK    8  A    between atoms: C_23  and  O_24
REMARK                            x       y       z     vdW  Elec       q    Type
REMARK                         _______ _______ _______ _____ _____    ______ ____
ROOT
ATOM      1  N   UNL     1       3.130   5.404  19.215  0.00  0.00    +0.000 N 
ENDROOT
BRANCH   1   2
ATOM      2  C   UNL     1       2.559   6.685  19.103  0.00  0.00    +0.000 A 
ATOM      3  C   UNL     1       2.659   7.416  17.904  0.00  0.00    +0.000 A 
ATOM      4  C   UNL     1       2.186   8.730  17.800  0.00  0.00    +0.000 A 
ATOM      5  C   UNL     1       1.585   9.344  18.896  0.00  0.00    +0.000 A 
ATOM      6  C   UNL     1       1.416   8.622  20.072  0.00  0.00    +0.000 A 
ATOM      7  C   UNL     1       1.891   7.308  20.167  0.00  0.00    +0.000 A 
BRANCH   5   8
ATOM      8  C   UNL     1       1.170  10.716  18.819  0.00  0.00    +0.000 C 
ATOM      9  N   UNL     1       0.825  11.821  18.783  0.00  0.00    +0.000 NA
ENDBRANCH   5   8
ENDBRANCH   1   2
BRANCH   1  10
ATOM     10  N   UNL     1       2.415   4.206  19.057  0.00  0.00    +0.000 N 
ATOM     11  C   UNL     1       1.643   3.806  17.996  0.00  0.00    +0.000 A 
ATOM     12  N   UNL     1       1.186   2.591  18.197  0.00  0.00    +0.000 NA
ATOM     13  N   UNL     1       1.649   2.170  19.421  0.00  0.00    +0.000 NA
ATOM     14  C   UNL     1       2.389   3.137  19.917  0.00  0.00    +0.000 A 
ENDBRANCH   1  10
BRANCH   1  15
ATOM     15  C   UNL     1       4.548   5.224  19.556  0.00  0.00    +0.000 C 
BRANCH  15  18
ATOM     16  C   UNL     1       6.221   4.395  16.159  0.00  0.00    +0.000 A 
ATOM     17  C   UNL     1       5.403   4.282  17.296  0.00  0.00    +0.000 A 
ATOM     18  C   UNL     1       5.503   5.189  18.367  0.00  0.00    +0.000 A 
ATOM     19  C   UNL     1       6.476   6.199  18.278  0.00  0.00    +0.000 A 
ATOM     20  C   UNL     1       7.259   6.350  17.131  0.00  0.00    +0.000 A 
ATOM     21  C   UNL     1       7.105   5.472  16.060  0.00  0.00    +0.000 A 
BRANCH  16  23
ATOM     22  C   UNL     1       5.572   3.914  13.934  0.00  0.00    +0.000 C 
ATOM     23  O   UNL     1       6.013   3.433  15.204  0.00  0.00    +0.000 OA
ENDBRANCH  16  23
BRANCH  21  24
ATOM     24  O   UNL     1       7.801   5.714  14.909  0.00  0.00    +0.000 OA
ATOM     25  H   UNL     1       8.738   5.509  15.058  0.00  0.00    +0.000 HD
ENDBRANCH  21  24
ENDBRANCH  15  18
ENDBRANCH   1  15
TORSDOF 7
ENDMDL
MODEL 8
REMARK VINA RESULT:      -7.2      3.337      5.144
REMARK  Name = 
REMARK  8 active torsions:
REMARK  status: ('A' for Active; 'I' for Inactive)
REMARK    1  A    between atoms: C_1  and  O_2
REMARK    2  A    between atoms: O_2  and  C_3
REMARK    3  A    between atoms: C_5  and  C_6
REMARK    4  A    between atoms: C_6  and  N_7
REMARK    5  A    between atoms: N_7  and  C_8
REMARK    6  A    between atoms: N_7  and  N_16
REMARK    7  A    between atoms: C_11  and  C_12
REMARK    8  A    between atoms: C_23  and  O_24
REMARK                            x       y       z     vdW  Elec       q    Type
REMARK                         _______ _______ _______ _____ _____    ______ ____
ROOT
ATOM      1  N   UNL     1       3.688   6.097  17.889  0.00  0.00    +0.000 N 
ENDROOT
BRANCH   1   2
ATOM      2  C   UNL     1       2.906   7.157  18.384  0.00  0.00    +0.000 A 
ATOM      3  C   UNL     1       2.469   7.167  19.721  0.00  0.00    +0.000 A 
ATOM      4  C   UNL     1       1.608   8.159  20.208  0.00  0.00    +0.000 A 
ATOM      5  C   UNL     1       1.172   9.179  19.367  0.00  0.00    +0.000 A 
ATOM      6  C   UNL     1       1.641   9.229  18.059  0.00  0.00    +0.000 A 
ATOM      7  C   UNL     1       2.501   8.233  17.580  0.00  0.00    +0.000 A 
BRANCH   5   8
ATOM      8  C   UNL     1       0.229  10.153  19.839  0.00  0.00    +0.000 C 
ATOM      9  N   UNL     1      -0.526  10.931  20.245  0.00  0.00    +0.000 NA
ENDBRANCH   5   8
ENDBRANCH   1   2
BRANCH   1  10
ATOM     10  N   UNL     1       5.067   6.185  17.641  0.00  0.00    +0.000 N 
ATOM     11  C   UNL     1       6.105   5.738  18.418  0.00  0.00    +0.000 A 
ATOM     12  N   UNL     1       7.253   5.953  17.815  0.00  0.00    +0.000 NA
ATOM     13  N   UNL     1       6.982   6.565  16.614  0.00  0.00    +0.000 NA
ATOM     14  C   UNL     1       5.677   6.687  16.518  0.00  0.00    +0.000 A 
ENDBRANCH   1  10
BRANCH   1  15
ATOM     15  C   UNL     1       3.091   4.798  17.550  0.00  0.00    +0.000 C 
BRANCH  15  18
ATOM     16  C   UNL     1       3.062   2.652  20.778  0.00  0.00    +0.000 A 
ATOM     17  C   UNL     1       3.525   3.288  19.613  0.00  0.00    +0.000 A 
ATOM     18  C   UNL     1       2.646   3.956  18.741  0.00  0.00    +0.000 A 
ATOM     19  C   UNL     1       1.277   3.939  19.056  0.00  0.00    +0.000 A 
ATOM     20  C   UNL     1       0.812   3.353  20.235  0.00  0.00    +0.000 A 
ATOM     21  C   UNL     1       1.709   2.744  21.112  0.00  0.00    +0.000 A 
BRANCH  16  23
ATOM     22  C   UNL     1       5.095   1.440  20.774  0.00  0.00    +0.000 C 
ATOM     23  O   UNL     1       4.036   2.037  21.523  0.00  0.00    +0.000 OA
ENDBRANCH  16  23
BRANCH  21  24
ATOM     24  O   UNL     1       1.242   2.283  22.311  0.00  0.00    +0.000 OA
ATOM     25  H   UNL     1       0.458   1.732  22.153  0.00  0.00    +0.000 HD
ENDBRANCH  21  24
ENDBRANCH  15  18
ENDBRANCH   1  15
TORSDOF 7
ENDMDL
MODEL 9
REMARK VINA RESULT:      -7.2      1.212      2.211
REMARK  Name = 
REMARK  8 active torsions:
REMARK  status: ('A' for Active; 'I' for Inactive)
REMARK    1  A    between atoms: C_1  and  O_2
REMARK    2  A    between atoms: O_2  and  C_3
REMARK    3  A    between atoms: C_5  and  C_6
REMARK    4  A    between atoms: C_6  and  N_7
REMARK    5  A    between atoms: N_7  and  C_8
REMARK    6  A    between atoms: N_7  and  N_16
REMARK    7  A    between atoms: C_11  and  C_12
REMARK    8  A    between atoms: C_23  and  O_24
REMARK                            x       y       z     vdW  Elec       q    Type
REMARK                         _______ _______ _______ _____ _____    ______ ____
ROOT
ATOM      1  N   UNL     1       2.650   4.667  19.173  0.00  0.00    +0.000 N 
ENDROOT
BRANCH   1   2
ATOM      2  C   UNL     1       2.364   6.045  19.146  0.00  0.00    +0.000 A 
ATOM      3  C   UNL     1       2.039   6.736  20.328  0.00  0.00    +0.000 A 
ATOM      4  C   UNL     1       1.655   8.083  20.313  0.00  0.00    +0.000 A 
ATOM      5  C   UNL     1       1.600   8.779  19.108  0.00  0.00    +0.000 A 
ATOM      6  C   UNL     1       1.978   8.138  17.934  0.00  0.00    +0.000 A 
ATOM      7  C   UNL     1       2.362   6.791  17.958  0.00  0.00    +0.000 A 
BRANCH   5   8
ATOM      8  C   UNL     1       1.132  10.135  19.077  0.00  0.00    +0.000 C 
ATOM      9  N   UNL     1       0.767  11.234  19.075  0.00  0.00    +0.000 NA
ENDBRANCH   5   8
ENDBRANCH   1   2
BRANCH   1  10
ATOM     10  N   UNL     1       2.393   3.831  20.271  0.00  0.00    +0.000 N 
ATOM     11  C   UNL     1       1.185   3.494  20.825  0.00  0.00    +0.000 A 
ATOM     12  N   UNL     1       1.354   2.637  21.806  0.00  0.00    +0.000 NA
ATOM     13  N   UNL     1       2.704   2.401  21.921  0.00  0.00    +0.000 NA
ATOM     14  C   UNL     1       3.309   3.109  20.995  0.00  0.00    +0.000 A 
ENDBRANCH   1  10
BRANCH   1  15
ATOM     15  C   UNL     1       3.291   3.996  18.034  0.00  0.00    +0.000 C 
BRANCH  15  18
ATOM     16  C   UNL     1       6.201   5.395  15.888  0.00  0.00    +0.000 A 
ATOM     17  C   UNL     1       5.035   4.695  16.247  0.00  0.00    +0.000 A 
ATOM     18  C   UNL     1       4.619   4.599  17.588  0.00  0.00    +0.000 A 
ATOM     19  C   UNL     1       5.427   5.202  18.566  0.00  0.00    +0.000 A 
ATOM     20  C   UNL     1       6.559   5.941  18.216  0.00  0.00    +0.000 A 
ATOM     21  C   UNL     1       6.923   6.068  16.876  0.00  0.00    +0.000 A 
BRANCH  16  23
ATOM     22  C   UNL     1       6.288   4.143  13.881  0.00  0.00    +0.000 C 
ATOM     23  O   UNL     1       6.481   5.392  14.545  0.00  0.00    +0.000 OA
ENDBRANCH  16  23
BRANCH  21  24
ATOM     24  O   UNL     1       7.964   6.891  16.555  0.00  0.00    +0.000 OA
ATOM     25  H   UNL     1       8.690   6.740  17.181  0.00  0.00    +0.000 HD
ENDBRANCH  21  24
ENDBRANCH  15  18
ENDBRANCH   1  15
TORSDOF 7
ENDMDL
