MODEL 1
REMARK VINA RESULT:      -8.3      0.000      0.000
REMARK  Name = 
REMARK  7 active torsions:
REMARK  status: ('A' for Active; 'I' for Inactive)
REMARK    1  A    between atoms: C_1  and  C_2
REMARK    2  A    between atoms: C_2  and  O_3
REMARK    3  A    between atoms: O_3  and  C_4
REMARK    4  A    between atoms: C_4  and  C_6
REMARK    5  A    between atoms: C_9  and  N_10
REMARK    6  A    between atoms: N_10  and  S_11
REMARK    7  A    between atoms: S_11  and  C_13
REMARK                            x       y       z     vdW  Elec       q    Type
REMARK                         _______ _______ _______ _____ _____    ______ ____
ROOT
ATOM      1  N   UNL     1       4.477   6.515  19.088  0.00  0.00    +0.000 N 
ATOM      2  H   UNL     1       4.990   7.236  19.579  0.00  0.00    +0.000 HD
ENDROOT
BRANCH   1   6
ATOM      3  C   UNL     1       6.288   5.268  15.425  0.00  0.00    +0.000 A 
ATOM      4  C   UNL     1       6.685   4.724  16.654  0.00  0.00    +0.000 A 
ATOM      5  C   UNL     1       6.089   5.151  17.855  0.00  0.00    +0.000 A 
ATOM      6  C   UNL     1       5.095   6.143  17.862  0.00  0.00    +0.000 A 
ATOM      7  C   UNL     1       4.732   6.691  16.620  0.00  0.00    +0.000 A 
ATOM      8  C   UNL     1       5.319   6.269  15.419  0.00  0.00    +0.000 A 
BRANCH   3   9
ATOM      9  C   UNL     1       6.933   4.774  14.191  0.00  0.00    +0.000 C 
ATOM     10  O   UNL     1       7.860   5.352  13.639  0.00  0.00    +0.000 OA
BRANCH   9  11
ATOM     11  O   UNL     1       6.285   3.680  13.709  0.00  0.00    +0.000 OA
BRANCH  11  13
ATOM     12  C   UNL     1       4.942   3.187  11.808  0.00  0.00    +0.000 C 
ATOM     13  C   UNL     1       6.344   3.524  12.284  0.00  0.00    +0.000 C 
ENDBRANCH  11  13
ENDBRANCH   9  11
ENDBRANCH   3   9
ENDBRANCH   1   6
BRANCH   1  14
ATOM     14  S   UNL     1       2.809   6.519  19.224  0.00  0.00    +0.000 S 
ATOM     15  O   UNL     1       2.126   7.120  17.949  0.00  0.00    +0.000 OA
BRANCH  14  16
ATOM     16  C   UNL     1       2.340   4.739  19.334  0.00  0.00    +0.000 C 
ATOM     17  C   UNL     1       2.220   4.080  17.943  0.00  0.00    +0.000 C 
ATOM     18  C   UNL     1       1.962   2.564  18.093  0.00  0.00    +0.000 C 
ATOM     19  C   UNL     1       3.127   1.916  18.859  0.00  0.00    +0.000 C 
ATOM     20  C   UNL     1       3.247   2.542  20.256  0.00  0.00    +0.000 C 
ATOM     21  C   UNL     1       1.938   2.336  21.033  0.00  0.00    +0.000 C 
ATOM     22  C   UNL     1       0.770   2.989  20.274  0.00  0.00    +0.000 C 
ATOM     23  C   UNL     1       0.660   2.342  18.883  0.00  0.00    +0.000 C 
ATOM     24  C   UNL     1       1.032   4.507  20.119  0.00  0.00    +0.000 C 
ATOM     25  C   UNL     1       3.502   4.045  20.104  0.00  0.00    +0.000 C 
ENDBRANCH  14  16
ENDBRANCH   1  14
TORSDOF 6
ENDMDL
MODEL 2
REMARK VINA RESULT:      -8.3      0.132      1.846
REMARK  Name = 
REMARK  7 active torsions:
REMARK  status: ('A' for Active; 'I' for Inactive)
REMARK    1  A    between atoms: C_1  and  C_2
REMARK    2  A    between atoms: C_2  and  O_3
REMARK    3  A    between atoms: O_3  and  C_4
REMARK    4  A    between atoms: C_4  and  C_6
REMARK    5  A    between atoms: C_9  and  N_10
REMARK    6  A    between atoms: N_10  and  S_11
REMARK    7  A    between atoms: S_11  and  C_13
REMARK                            x       y       z     vdW  Elec       q    Type
REMARK                         _______ _______ _______ _____ _____    ______ ____
ROOT
ATOM      1  N   UNL     1       4.562   6.537  19.045  0.00  0.00    +0.000 N 
ATOM      2  H   UNL     1       5.069   7.324  19.429  0.00  0.00    +0.000 HD
ENDROOT
BRANCH   1   6
ATOM      3  C   UNL     1       6.387   5.157  15.438  0.00  0.00    +0.000 A 
ATOM      4  C   UNL     1       5.382   6.134  15.416  0.00  0.00    +0.000 A 
ATOM      5  C   UNL     1       4.780   6.572  16.610  0.00  0.00    +0.000 A 
ATOM      6  C   UNL     1       5.153   6.035  17.853  0.00  0.00    +0.000 A 
ATOM      7  C   UNL     1       6.144   5.040  17.846  0.00  0.00    +0.000 A 
ATOM      8  C   UNL     1       6.751   4.599  16.662  0.00  0.00    +0.000 A 
BRANCH   3   9
ATOM      9  C   UNL     1       6.998   4.742  14.159  0.00  0.00    +0.000 C 
ATOM     10  O   UNL     1       7.864   5.391  13.585  0.00  0.00    +0.000 OA
BRANCH   9  11
ATOM     11  O   UNL     1       6.391   3.629  13.668  0.00  0.00    +0.000 OA
BRANCH  11  13
ATOM     12  C   UNL     1       4.952   3.233  11.815  0.00  0.00    +0.000 C 
ATOM     13  C   UNL     1       6.380   3.530  12.237  0.00  0.00    +0.000 C 
ENDBRANCH  11  13
ENDBRANCH   9  11
ENDBRANCH   3   9
ENDBRANCH   1   6
BRANCH   1  14
ATOM     14  S   UNL     1       2.899   6.517  19.235  0.00  0.00    +0.000 S 
ATOM     15  O   UNL     1       2.163   7.019  17.945  0.00  0.00    +0.000 OA
BRANCH  14  16
ATOM     16  C   UNL     1       2.472   4.739  19.476  0.00  0.00    +0.000 C 
ATOM     17  C   UNL     1       1.169   4.556  20.282  0.00  0.00    +0.000 C 
ATOM     18  C   UNL     1       0.783   3.061  20.337  0.00  0.00    +0.000 C 
ATOM     19  C   UNL     1       0.572   2.529  18.909  0.00  0.00    +0.000 C 
ATOM     20  C   UNL     1       1.867   2.680  18.098  0.00  0.00    +0.000 C 
ATOM     21  C   UNL     1       3.002   1.901  18.779  0.00  0.00    +0.000 C 
ATOM     22  C   UNL     1       3.222   2.434  20.206  0.00  0.00    +0.000 C 
ATOM     23  C   UNL     1       1.918   2.263  21.003  0.00  0.00    +0.000 C 
ATOM     24  C   UNL     1       3.602   3.934  20.150  0.00  0.00    +0.000 C 
ATOM     25  C   UNL     1       2.247   4.164  18.046  0.00  0.00    +0.000 C 
ENDBRANCH  14  16
ENDBRANCH   1  14
TORSDOF 6
ENDMDL
MODEL 3
REMARK VINA RESULT:      -8.1      1.101      2.093
REMARK  Name = 
REMARK  7 active torsions:
REMARK  status: ('A' for Active; 'I' for Inactive)
REMARK    1  A    between atoms: C_1  and  C_2
REMARK    2  A    between atoms: C_2  and  O_3
REMARK    3  A    between atoms: O_3  and  C_4
REMARK    4  A    between atoms: C_4  and  C_6
REMARK    5  A    between atoms: C_9  and  N_10
REMARK    6  A    between atoms: N_10  and  S_11
REMARK    7  A    between atoms: S_11  and  C_13
REMARK                            x       y       z     vdW  Elec       q    Type
REMARK                         _______ _______ _______ _____ _____    ______ ____
ROOT
ATOM      1  N   UNL     1       5.287   5.876  18.353  0.00  0.00    +0.000 N 
ATOM      2  H   UNL     1       6.083   6.412  18.674  0.00  0.00    +0.000 HD
ENDROOT
BRANCH   1   6
ATOM      3  C   UNL     1       5.663   4.368  14.373  0.00  0.00    +0.000 A 
ATOM      4  C   UNL     1       5.846   3.536  15.486  0.00  0.00    +0.000 A 
ATOM      5  C   UNL     1       5.731   4.046  16.792  0.00  0.00    +0.000 A 
ATOM      6  C   UNL     1       5.447   5.403  17.021  0.00  0.00    +0.000 A 
ATOM      7  C   UNL     1       5.293   6.222  15.889  0.00  0.00    +0.000 A 
ATOM      8  C   UNL     1       5.403   5.721  14.585  0.00  0.00    +0.000 A 
BRANCH   3   9
ATOM      9  C   UNL     1       5.778   3.780  13.023  0.00  0.00    +0.000 C 
ATOM     10  O   UNL     1       6.848   3.609  12.453  0.00  0.00    +0.000 OA
BRANCH   9  11
ATOM     11  O   UNL     1       4.550   3.573  12.477  0.00  0.00    +0.000 OA
BRANCH  11  13
ATOM     12  C   UNL     1       3.347   3.424  10.430  0.00  0.00    +0.000 C 
ATOM     13  C   UNL     1       4.561   2.929  11.195  0.00  0.00    +0.000 C 
ENDBRANCH  11  13
ENDBRANCH   9  11
ENDBRANCH   3   9
ENDBRANCH   1   6
BRANCH   1  14
ATOM     14  S   UNL     1       3.774   6.321  18.913  0.00  0.00    +0.000 S 
ATOM     15  O   UNL     1       2.902   6.961  17.778  0.00  0.00    +0.000 OA
BRANCH  14  16
ATOM     16  C   UNL     1       2.973   4.740  19.419  0.00  0.00    +0.000 C 
ATOM     17  C   UNL     1       1.913   4.949  20.522  0.00  0.00    +0.000 C 
ATOM     18  C   UNL     1       1.177   3.622  20.812  0.00  0.00    +0.000 C 
ATOM     19  C   UNL     1       0.482   3.127  19.532  0.00  0.00    +0.000 C 
ATOM     20  C   UNL     1       1.524   2.889  18.430  0.00  0.00    +0.000 C 
ATOM     21  C   UNL     1       2.550   1.846  18.898  0.00  0.00    +0.000 C 
ATOM     22  C   UNL     1       3.253   2.340  20.175  0.00  0.00    +0.000 C 
ATOM     23  C   UNL     1       2.195   2.561  21.268  0.00  0.00    +0.000 C 
ATOM     24  C   UNL     1       3.985   3.673  19.885  0.00  0.00    +0.000 C 
ATOM     25  C   UNL     1       2.252   4.207  18.146  0.00  0.00    +0.000 C 
ENDBRANCH  14  16
ENDBRANCH   1  14
TORSDOF 6
ENDMDL
MODEL 4
REMARK VINA RESULT:      -8.1      1.416      1.857
REMARK  Name = 
REMARK  7 active torsions:
REMARK  status: ('A' for Active; 'I' for Inactive)
REMARK    1  A    between atoms: C_1  and  C_2
REMARK    2  A    between atoms: C_2  and  O_3
REMARK    3  A    between atoms: O_3  and  C_4
REMARK    4  A    between atoms: C_4  and  C_6
REMARK    5  A    between atoms: C_9  and  N_10
REMARK    6  A    between atoms: N_10  and  S_11
REMARK    7  A    between atoms: S_11  and  C_13
REMARK                            x       y       z     vdW  Elec       q    Type
REMARK                         _______ _______ _______ _____ _____    ______ ____
ROOT
ATOM      1  N   UNL     1       5.896   4.981  18.077  0.00  0.00    +0.000 N 
ATOM      2  H   UNL     1       6.810   5.090  18.498  0.00  0.00    +0.000 HD
ENDROOT
BRANCH   1   6
ATOM      3  C   UNL     1       6.233   4.061  13.919  0.00  0.00    +0.000 A 
ATOM      4  C   UNL     1       7.124   4.946  14.542  0.00  0.00    +0.000 A 
ATOM      5  C   UNL     1       6.996   5.251  15.909  0.00  0.00    +0.000 A 
ATOM      6  C   UNL     1       5.967   4.693  16.685  0.00  0.00    +0.000 A 
ATOM      7  C   UNL     1       5.072   3.828  16.032  0.00  0.00    +0.000 A 
ATOM      8  C   UNL     1       5.194   3.518  14.671  0.00  0.00    +0.000 A 
BRANCH   3   9
ATOM      9  C   UNL     1       6.420   3.762  12.484  0.00  0.00    +0.000 C 
ATOM     10  O   UNL     1       7.354   4.196  11.823  0.00  0.00    +0.000 OA
BRANCH   9  11
ATOM     11  O   UNL     1       5.369   3.053  11.994  0.00  0.00    +0.000 OA
BRANCH  11  13
ATOM     12  C   UNL     1       3.317   2.887  10.801  0.00  0.00    +0.000 C 
ATOM     13  C   UNL     1       4.483   3.796  11.145  0.00  0.00    +0.000 C 
ENDBRANCH  11  13
ENDBRANCH   9  11
ENDBRANCH   3   9
ENDBRANCH   1   6
BRANCH   1  14
ATOM     14  S   UNL     1       4.645   5.913  18.682  0.00  0.00    +0.000 S 
ATOM     15  O   UNL     1       3.989   6.797  17.567  0.00  0.00    +0.000 OA
BRANCH  14  16
ATOM     16  C   UNL     1       3.383   4.696  19.256  0.00  0.00    +0.000 C 
ATOM     17  C   UNL     1       2.345   4.372  18.161  0.00  0.00    +0.000 C 
ATOM     18  C   UNL     1       1.397   3.250  18.641  0.00  0.00    +0.000 C 
ATOM     19  C   UNL     1       2.213   1.984  18.952  0.00  0.00    +0.000 C 
ATOM     20  C   UNL     1       3.236   2.280  20.058  0.00  0.00    +0.000 C 
ATOM     21  C   UNL     1       2.511   2.753  21.326  0.00  0.00    +0.000 C 
ATOM     22  C   UNL     1       1.699   4.025  21.022  0.00  0.00    +0.000 C 
ATOM     23  C   UNL     1       0.674   3.704  19.922  0.00  0.00    +0.000 C 
ATOM     24  C   UNL     1       2.648   5.146  20.535  0.00  0.00    +0.000 C 
ATOM     25  C   UNL     1       4.174   3.393  19.578  0.00  0.00    +0.000 C 
ENDBRANCH  14  16
ENDBRANCH   1  14
TORSDOF 6
ENDMDL
MODEL 5
REMARK VINA RESULT:      -8.1      1.015      1.489
REMARK  Name = 
REMARK  7 active torsions:
REMARK  status: ('A' for Active; 'I' for Inactive)
REMARK    1  A    between atoms: C_1  and  C_2
REMARK    2  A    between atoms: C_2  and  O_3
REMARK    3  A    between atoms: O_3  and  C_4
REMARK    4  A    between atoms: C_4  and  C_6
REMARK    5  A    between atoms: C_9  and  N_10
REMARK    6  A    between atoms: N_10  and  S_11
REMARK    7  A    between atoms: S_11  and  C_13
REMARK                            x       y       z     vdW  Elec       q    Type
REMARK                         _______ _______ _______ _____ _____    ______ ____
ROOT
ATOM      1  N   UNL     1       5.094   6.041  18.392  0.00  0.00    +0.000 N 
ATOM      2  H   UNL     1       5.863   6.651  18.639  0.00  0.00    +0.000 HD
ENDROOT
BRANCH   1   6
ATOM      3  C   UNL     1       5.671   4.370  14.503  0.00  0.00    +0.000 A 
ATOM      4  C   UNL     1       5.380   5.731  14.674  0.00  0.00    +0.000 A 
ATOM      5  C   UNL     1       5.180   6.267  15.959  0.00  0.00    +0.000 A 
ATOM      6  C   UNL     1       5.250   5.458  17.104  0.00  0.00    +0.000 A 
ATOM      7  C   UNL     1       5.518   4.093  16.905  0.00  0.00    +0.000 A 
ATOM      8  C   UNL     1       5.721   3.551  15.629  0.00  0.00    +0.000 A 
BRANCH   3   9
ATOM      9  C   UNL     1       5.888   3.860  13.134  0.00  0.00    +0.000 C 
ATOM     10  O   UNL     1       6.922   4.042  12.504  0.00  0.00    +0.000 OA
BRANCH   9  11
ATOM     11  O   UNL     1       4.759   3.279  12.648  0.00  0.00    +0.000 OA
BRANCH  11  13
ATOM     12  C   UNL     1       3.520   3.390  10.620  0.00  0.00    +0.000 C 
ATOM     13  C   UNL     1       4.815   2.921  11.260  0.00  0.00    +0.000 C 
ENDBRANCH  11  13
ENDBRANCH   9  11
ENDBRANCH   3   9
ENDBRANCH   1   6
BRANCH   1  14
ATOM     14  S   UNL     1       3.571   6.447  18.956  0.00  0.00    +0.000 S 
ATOM     15  O   UNL     1       2.726   7.184  17.861  0.00  0.00    +0.000 OA
BRANCH  14  16
ATOM     16  C   UNL     1       2.753   4.832  19.311  0.00  0.00    +0.000 C 
ATOM     17  C   UNL     1       2.166   4.183  18.039  0.00  0.00    +0.000 C 
ATOM     18  C   UNL     1       1.617   2.776  18.365  0.00  0.00    +0.000 C 
ATOM     19  C   UNL     1       2.753   1.891  18.905  0.00  0.00    +0.000 C 
ATOM     20  C   UNL     1       3.334   2.508  20.185  0.00  0.00    +0.000 C 
ATOM     21  C   UNL     1       2.232   2.641  21.246  0.00  0.00    +0.000 C 
ATOM     22  C   UNL     1       1.095   3.531  20.714  0.00  0.00    +0.000 C 
ATOM     23  C   UNL     1       0.521   2.890  19.440  0.00  0.00    +0.000 C 
ATOM     24  C   UNL     1       1.648   4.938  20.382  0.00  0.00    +0.000 C 
ATOM     25  C   UNL     1       3.877   3.904  19.858  0.00  0.00    +0.000 C 
ENDBRANCH  14  16
ENDBRANCH   1  14
TORSDOF 6
ENDMDL
MODEL 6
REMARK VINA RESULT:      -8.1      1.408      2.145
REMARK  Name = 
REMARK  7 active torsions:
REMARK  status: ('A' for Active; 'I' for Inactive)
REMARK    1  A    between atoms: C_1  and  C_2
REMARK    2  A    between atoms: C_2  and  O_3
REMARK    3  A    between atoms: O_3  and  C_4
REMARK    4  A    between atoms: C_4  and  C_6
REMARK    5  A    between atoms: C_9  and  N_10
REMARK    6  A    between atoms: N_10  and  S_11
REMARK    7  A    between atoms: S_11  and  C_13
REMARK                            x       y       z     vdW  Elec       q    Type
REMARK                         _______ _______ _______ _____ _____    ______ ____
ROOT
ATOM      1  N   UNL     1       5.918   5.073  18.077  0.00  0.00    +0.000 N 
ATOM      2  H   UNL     1       6.827   5.276  18.473  0.00  0.00    +0.000 HD
ENDROOT
BRANCH   1   6
ATOM      3  C   UNL     1       6.237   4.083  13.934  0.00  0.00    +0.000 A 
ATOM      4  C   UNL     1       7.158   4.942  14.549  0.00  0.00    +0.000 A 
ATOM      5  C   UNL     1       7.036   5.270  15.911  0.00  0.00    +0.000 A 
ATOM      6  C   UNL     1       5.983   4.763  16.690  0.00  0.00    +0.000 A 
ATOM      7  C   UNL     1       5.058   3.924  16.045  0.00  0.00    +0.000 A 
ATOM      8  C   UNL     1       5.174   3.591  14.688  0.00  0.00    +0.000 A 
BRANCH   3   9
ATOM      9  C   UNL     1       6.419   3.758  12.504  0.00  0.00    +0.000 C 
ATOM     10  O   UNL     1       7.364   4.159  11.838  0.00  0.00    +0.000 OA
BRANCH   9  11
ATOM     11  O   UNL     1       5.351   3.066  12.024  0.00  0.00    +0.000 OA
BRANCH  11  13
ATOM     12  C   UNL     1       3.373   2.891  10.713  0.00  0.00    +0.000 C 
ATOM     13  C   UNL     1       4.433   3.842  11.241  0.00  0.00    +0.000 C 
ENDBRANCH  11  13
ENDBRANCH   9  11
ENDBRANCH   3   9
ENDBRANCH   1   6
BRANCH   1  14
ATOM     14  S   UNL     1       4.599   5.897  18.696  0.00  0.00    +0.000 S 
ATOM     15  O   UNL     1       3.890   6.761  17.598  0.00  0.00    +0.000 OA
BRANCH  14  16
ATOM     16  C   UNL     1       3.424   4.578  19.226  0.00  0.00    +0.000 C 
ATOM     17  C   UNL     1       4.142   3.249  19.543  0.00  0.00    +0.000 C 
ATOM     18  C   UNL     1       3.136   2.223  20.112  0.00  0.00    +0.000 C 
ATOM     19  C   UNL     1       2.508   2.777  21.402  0.00  0.00    +0.000 C 
ATOM     20  C   UNL     1       1.767   4.088  21.102  0.00  0.00    +0.000 C 
ATOM     21  C   UNL     1       0.670   3.839  20.057  0.00  0.00    +0.000 C 
ATOM     22  C   UNL     1       1.294   3.291  18.761  0.00  0.00    +0.000 C 
ATOM     23  C   UNL     1       2.020   1.974  19.081  0.00  0.00    +0.000 C 
ATOM     24  C   UNL     1       2.306   4.316  18.195  0.00  0.00    +0.000 C 
ATOM     25  C   UNL     1       2.768   5.102  20.537  0.00  0.00    +0.000 C 
ENDBRANCH  14  16
ENDBRANCH   1  14
TORSDOF 6
ENDMDL
MODEL 7
REMARK VINA RESULT:      -8.1      1.527      2.224
REMARK  Name = 
REMARK  7 active torsions:
REMARK  status: ('A' for Active; 'I' for Inactive)
REMARK    1  A    between atoms: C_1  and  C_2
REMARK    2  A    between atoms: C_2  and  O_3
REMARK    3  A    between atoms: O_3  and  C_4
REMARK    4  A    between atoms: C_4  and  C_6
REMARK    5  A    between atoms: C_9  and  N_10
REMARK    6  A    between atoms: N_10  and  S_11
REMARK    7  A    between atoms: S_11  and  C_13
REMARK                            x       y       z     vdW  Elec       q    Type
REMARK                         _______ _______ _______ _____ _____    ______ ____
ROOT
ATOM      1  N   UNL     1       5.895   5.042  17.982  0.00  0.00    +0.000 N 
ATOM      2  H   UNL     1       6.786   5.247  18.417  0.00  0.00    +0.000 HD
ENDROOT
BRANCH   1   6
ATOM      3  C   UNL     1       6.396   4.053  13.857  0.00  0.00    +0.000 A 
ATOM      4  C   UNL     1       7.252   4.961  14.496  0.00  0.00    +0.000 A 
ATOM      5  C   UNL     1       7.069   5.289  15.852  0.00  0.00    +0.000 A 
ATOM      6  C   UNL     1       6.020   4.731  16.600  0.00  0.00    +0.000 A 
ATOM      7  C   UNL     1       5.161   3.842  15.931  0.00  0.00    +0.000 A 
ATOM      8  C   UNL     1       5.337   3.509  14.581  0.00  0.00    +0.000 A 
BRANCH   3   9
ATOM      9  C   UNL     1       6.640   3.731  12.436  0.00  0.00    +0.000 C 
ATOM     10  O   UNL     1       7.285   4.450  11.684  0.00  0.00    +0.000 OA
BRANCH   9  11
ATOM     11  O   UNL     1       5.961   2.612  12.068  0.00  0.00    +0.000 OA
BRANCH  11  13
ATOM     12  C   UNL     1       6.184   0.375  11.289  0.00  0.00    +0.000 C 
ATOM     13  C   UNL     1       6.609   1.816  11.066  0.00  0.00    +0.000 C 
ENDBRANCH  11  13
ENDBRANCH   9  11
ENDBRANCH   3   9
ENDBRANCH   1   6
BRANCH   1  14
ATOM     14  S   UNL     1       4.550   5.866  18.543  0.00  0.00    +0.000 S 
ATOM     15  O   UNL     1       3.834   6.655  17.393  0.00  0.00    +0.000 OA
BRANCH  14  16
ATOM     16  C   UNL     1       3.399   4.549  19.128  0.00  0.00    +0.000 C 
ATOM     17  C   UNL     1       4.139   3.239  19.474  0.00  0.00    +0.000 C 
ATOM     18  C   UNL     1       3.154   2.218  20.087  0.00  0.00    +0.000 C 
ATOM     19  C   UNL     1       2.537   2.802  21.369  0.00  0.00    +0.000 C 
ATOM     20  C   UNL     1       1.775   4.094  21.040  0.00  0.00    +0.000 C 
ATOM     21  C   UNL     1       0.666   3.800  20.018  0.00  0.00    +0.000 C 
ATOM     22  C   UNL     1       1.280   3.221  18.731  0.00  0.00    +0.000 C 
ATOM     23  C   UNL     1       2.028   1.924  19.080  0.00  0.00    +0.000 C 
ATOM     24  C   UNL     1       2.271   4.242  18.121  0.00  0.00    +0.000 C 
ATOM     25  C   UNL     1       2.754   5.104  20.432  0.00  0.00    +0.000 C 
ENDBRANCH  14  16
ENDBRANCH   1  14
TORSDOF 6
ENDMDL
MODEL 8
REMARK VINA RESULT:      -8.1      1.402      1.782
REMARK  Name = 
REMARK  7 active torsions:
REMARK  status: ('A' for Active; 'I' for Inactive)
REMARK    1  A    between atoms: C_1  and  C_2
REMARK    2  A    between atoms: C_2  and  O_3
REMARK    3  A    between atoms: O_3  and  C_4
REMARK    4  A    between atoms: C_4  and  C_6
REMARK    5  A    between atoms: C_9  and  N_10
REMARK    6  A    between atoms: N_10  and  S_11
REMARK    7  A    between atoms: S_11  and  C_13
REMARK                            x       y       z     vdW  Elec       q    Type
REMARK                         _______ _______ _______ _____ _____    ______ ____
ROOT
ATOM      1  N   UNL     1       5.882   4.900  18.317  0.00  0.00    +0.000 N 
ATOM      2  H   UNL     1       6.755   5.001  18.820  0.00  0.00    +0.000 HD
ENDROOT
BRANCH   1   6
ATOM      3  C   UNL     1       6.339   4.106  14.144  0.00  0.00    +0.000 A 
ATOM      4  C   UNL     1       5.362   3.451  14.906  0.00  0.00    +0.000 A 
ATOM      5  C   UNL     1       5.229   3.712  16.282  0.00  0.00    +0.000 A 
ATOM      6  C   UNL     1       6.077   4.620  16.936  0.00  0.00    +0.000 A 
ATOM      7  C   UNL     1       7.065   5.245  16.156  0.00  0.00    +0.000 A 
ATOM      8  C   UNL     1       7.203   4.992  14.784  0.00  0.00    +0.000 A 
BRANCH   3   9
ATOM      9  C   UNL     1       6.428   3.807  12.700  0.00  0.00    +0.000 C 
ATOM     10  O   UNL     1       7.323   4.229  11.980  0.00  0.00    +0.000 OA
BRANCH   9  11
ATOM     11  O   UNL     1       5.335   3.116  12.279  0.00  0.00    +0.000 OA
BRANCH  11  13
ATOM     12  C   UNL     1       3.337   2.951  10.997  0.00  0.00    +0.000 C 
ATOM     13  C   UNL     1       4.653   3.692  11.156  0.00  0.00    +0.000 C 
ENDBRANCH  11  13
ENDBRANCH   9  11
ENDBRANCH   3   9
ENDBRANCH   1   6
BRANCH   1  14
ATOM     14  S   UNL     1       4.587   5.837  18.813  0.00  0.00    +0.000 S 
ATOM     15  O   UNL     1       3.997   6.680  17.631  0.00  0.00    +0.000 OA
BRANCH  14  16
ATOM     16  C   UNL     1       3.302   4.625  19.342  0.00  0.00    +0.000 C 
ATOM     17  C   UNL     1       2.280   4.332  18.223  0.00  0.00    +0.000 C 
ATOM     18  C   UNL     1       1.311   3.213  18.666  0.00  0.00    +0.000 C 
ATOM     19  C   UNL     1       2.107   1.932  18.971  0.00  0.00    +0.000 C 
ATOM     20  C   UNL     1       3.113   2.198  20.100  0.00  0.00    +0.000 C 
ATOM     21  C   UNL     1       2.370   2.658  21.363  0.00  0.00    +0.000 C 
ATOM     22  C   UNL     1       1.577   3.944  21.065  0.00  0.00    +0.000 C 
ATOM     23  C   UNL     1       0.569   3.654  19.941  0.00  0.00    +0.000 C 
ATOM     24  C   UNL     1       2.548   5.062  20.615  0.00  0.00    +0.000 C 
ATOM     25  C   UNL     1       4.071   3.308  19.657  0.00  0.00    +0.000 C 
ENDBRANCH  14  16
ENDBRANCH   1  14
TORSDOF 6
ENDMDL
MODEL 9
REMARK VINA RESULT:      -7.9      4.264      7.028
REMARK  Name = 
REMARK  7 active torsions:
REMARK  status: ('A' for Active; 'I' for Inactive)
REMARK    1  A    between atoms: C_1  and  C_2
REMARK    2  A    between atoms: C_2  and  O_3
REMARK    3  A    between atoms: O_3  and  C_4
REMARK    4  A    between atoms: C_4  and  C_6
REMARK    5  A    between atoms: C_9  and  N_10
REMARK    6  A    between atoms: N_10  and  S_11
REMARK    7  A    between atoms: S_11  and  C_13
REMARK                            x       y       z     vdW  Elec       q    Type
REMARK                         _______ _______ _______ _____ _____    ______ ____
ROOT
ATOM      1  N   UNL     1       2.538   7.428  19.806  0.00  0.00    +0.000 N 
ATOM      2  H   UNL     1       2.526   6.957  20.702  0.00  0.00    +0.000 HD
ENDROOT
BRANCH   1   6
ATOM      3  C   UNL     1      -0.441  10.470  19.460  0.00  0.00    +0.000 A 
ATOM      4  C   UNL     1       0.313  10.061  18.351  0.00  0.00    +0.000 A 
ATOM      5  C   UNL     1       1.300   9.067  18.479  0.00  0.00    +0.000 A 
ATOM      6  C   UNL     1       1.570   8.467  19.720  0.00  0.00    +0.000 A 
ATOM      7  C   UNL     1       0.819   8.911  20.821  0.00  0.00    +0.000 A 
ATOM      8  C   UNL     1      -0.168   9.899  20.701  0.00  0.00    +0.000 A 
BRANCH   3   9
ATOM      9  C   UNL     1      -1.476  11.507  19.268  0.00  0.00    +0.000 C 
ATOM     10  O   UNL     1      -1.988  12.125  20.192  0.00  0.00    +0.000 OA
BRANCH   9  11
ATOM     11  O   UNL     1      -1.850  11.585  17.963  0.00  0.00    +0.000 OA
BRANCH  11  13
ATOM     12  C   UNL     1      -3.327   9.818  17.365  0.00  0.00    +0.000 C 
ATOM     13  C   UNL     1      -3.232  11.293  17.713  0.00  0.00    +0.000 C 
ENDBRANCH  11  13
ENDBRANCH   9  11
ENDBRANCH   3   9
ENDBRANCH   1   6
BRANCH   1  14
ATOM     14  S   UNL     1       2.918   6.515  18.455  0.00  0.00    +0.000 S 
ATOM     15  O   UNL     1       4.433   6.645  18.076  0.00  0.00    +0.000 OA
BRANCH  14  16
ATOM     16  C   UNL     1       2.607   4.769  18.961  0.00  0.00    +0.000 C 
ATOM     17  C   UNL     1       3.902   4.046  19.387  0.00  0.00    +0.000 C 
ATOM     18  C   UNL     1       3.571   2.638  19.931  0.00  0.00    +0.000 C 
ATOM     19  C   UNL     1       2.639   2.761  21.148  0.00  0.00    +0.000 C 
ATOM     20  C   UNL     1       1.333   3.457  20.738  0.00  0.00    +0.000 C 
ATOM     21  C   UNL     1       0.637   2.650  19.632  0.00  0.00    +0.000 C 
ATOM     22  C   UNL     1       1.564   2.530  18.409  0.00  0.00    +0.000 C 
ATOM     23  C   UNL     1       2.859   1.821  18.838  0.00  0.00    +0.000 C 
ATOM     24  C   UNL     1       1.900   3.941  17.869  0.00  0.00    +0.000 C 
ATOM     25  C   UNL     1       1.665   4.852  20.199  0.00  0.00    +0.000 C 
ENDBRANCH  14  16
ENDBRANCH   1  14
TORSDOF 6
ENDMDL
