MODEL 1
REMARK VINA RESULT:      -8.4      0.000      0.000
REMARK  Name = 
REMARK  4 active torsions:
REMARK  status: ('A' for Active; 'I' for Inactive)
REMARK    1  A    between atoms: C_1  and  C_2
REMARK    2  A    between atoms: C_8  and  C_9
REMARK    3  A    between atoms: C_14  and  N_15
REMARK    4  A    between atoms: C_16  and  C_18
REMARK                            x       y       z     vdW  Elec       q    Type
REMARK                         _______ _______ _______ _____ _____    ______ ____
ROOT
ATOM      1  C   UNL     1       2.011   7.742  19.391  0.00  0.00    +0.000 A 
ATOM      2  C   UNL     1       2.935   7.677  18.329  0.00  0.00    +0.000 A 
ATOM      3  C   UNL     1       3.229   6.473  17.752  0.00  0.00    +0.000 A 
ATOM      4  C   UNL     1       2.660   5.344  18.299  0.00  0.00    +0.000 A 
ATOM      5  C   UNL     1       2.729   4.129  17.662  0.00  0.00    +0.000 A 
ATOM      6  C   UNL     1       3.826   3.505  18.152  0.00  0.00    +0.000 A 
ATOM      7  N   UNL     1       3.898   3.380  19.495  0.00  0.00    +0.000 NA
ATOM      8  C   UNL     1       3.067   4.221  20.238  0.00  0.00    +0.000 A 
ATOM      9  C   UNL     1       2.452   5.365  19.657  0.00  0.00    +0.000 A 
ATOM     10  C   UNL     1       1.869   6.573  20.166  0.00  0.00    +0.000 A 
ENDROOT
BRANCH   1  18
ATOM     11  C   UNL     1       1.298   9.120  22.015  0.00  0.00    +0.000 C 
ATOM     12  C   UNL     1       0.798   9.569  20.670  0.00  0.00    +0.000 A 
ATOM     13  N   UNL     1      -0.257  10.436  20.743  0.00  0.00    +0.000 NA
ATOM     14  C   UNL     1      -0.919  10.726  19.601  0.00  0.00    +0.000 A 
ATOM     15  C   UNL     1      -0.535  10.252  18.370  0.00  0.00    +0.000 A 
ATOM     16  F   UNL     1      -1.276  10.488  17.280  0.00  0.00    +0.000 F 
ATOM     17  C   UNL     1       0.582   9.435  18.285  0.00  0.00    +0.000 A 
ATOM     18  C   UNL     1       1.253   9.011  19.452  0.00  0.00    +0.000 A 
ENDBRANCH   1  18
BRANCH   6  19
ATOM     19  N   UNL     1       4.859   3.523  17.197  0.00  0.00    +0.000 N 
ATOM     20  C   UNL     1       5.991   4.282  17.210  0.00  0.00    +0.000 C 
ATOM     21  O   UNL     1       6.426   4.906  18.157  0.00  0.00    +0.000 OA
ATOM     22  H   UNL     1       4.594   3.151  16.297  0.00  0.00    +0.000 HD
BRANCH  20  23
ATOM     23  C   UNL     1       6.730   4.363  15.893  0.00  0.00    +0.000 C 
ATOM     24  C   UNL     1       6.142   3.805  14.618  0.00  0.00    +0.000 C 
ATOM     25  C   UNL     1       6.404   5.277  14.726  0.00  0.00    +0.000 C 
ENDBRANCH  20  23
ENDBRANCH   6  19
TORSDOF 3
ENDMDL
MODEL 2
REMARK VINA RESULT:      -8.1      1.612      2.049
REMARK  Name = 
REMARK  4 active torsions:
REMARK  status: ('A' for Active; 'I' for Inactive)
REMARK    1  A    between atoms: C_1  and  C_2
REMARK    2  A    between atoms: C_8  and  C_9
REMARK    3  A    between atoms: C_14  and  N_15
REMARK    4  A    between atoms: C_16  and  C_18
REMARK                            x       y       z     vdW  Elec       q    Type
REMARK                         _______ _______ _______ _____ _____    ______ ____
ROOT
ATOM      1  C   UNL     1       1.919   6.952  20.026  0.00  0.00    +0.000 A 
ATOM      2  C   UNL     1       2.835   7.102  18.966  0.00  0.00    +0.000 A 
ATOM      3  C   UNL     1       3.142   6.032  18.173  0.00  0.00    +0.000 A 
ATOM      4  C   UNL     1       2.595   4.812  18.502  0.00  0.00    +0.000 A 
ATOM      5  C   UNL     1       2.677   3.738  17.649  0.00  0.00    +0.000 A 
ATOM      6  C   UNL     1       3.788   3.052  18.008  0.00  0.00    +0.000 A 
ATOM      7  N   UNL     1       3.872   2.679  19.304  0.00  0.00    +0.000 NA
ATOM      8  C   UNL     1       3.035   3.353  20.195  0.00  0.00    +0.000 A 
ATOM      9  C   UNL     1       2.397   4.575  19.841  0.00  0.00    +0.000 A 
ATOM     10  C   UNL     1       1.800   5.658  20.569  0.00  0.00    +0.000 A 
ENDROOT
BRANCH   1  18
ATOM     11  C   UNL     1       1.740   9.315  18.108  0.00  0.00    +0.000 C 
ATOM     12  C   UNL     1       1.180   9.325  19.504  0.00  0.00    +0.000 A 
ATOM     13  N   UNL     1       0.877  10.577  19.960  0.00  0.00    +0.000 NA
ATOM     14  C   UNL     1       0.577  10.718  21.270  0.00  0.00    +0.000 A 
ATOM     15  C   UNL     1       0.491   9.658  22.139  0.00  0.00    +0.000 A 
ATOM     16  F   UNL     1       0.284   9.856  23.448  0.00  0.00    +0.000 F 
ATOM     17  C   UNL     1       0.721   8.378  21.659  0.00  0.00    +0.000 A 
ATOM     18  C   UNL     1       1.141   8.175  20.327  0.00  0.00    +0.000 A 
ENDBRANCH   1  18
BRANCH   6  19
ATOM     19  N   UNL     1       4.812   3.265  17.068  0.00  0.00    +0.000 N 
ATOM     20  C   UNL     1       5.943   4.011  17.225  0.00  0.00    +0.000 C 
ATOM     21  O   UNL     1       6.383   4.436  18.273  0.00  0.00    +0.000 OA
ATOM     22  H   UNL     1       4.542   3.079  16.114  0.00  0.00    +0.000 HD
BRANCH  20  23
ATOM     23  C   UNL     1       6.671   4.357  15.945  0.00  0.00    +0.000 C 
ATOM     24  C   UNL     1       6.175   3.883  14.597  0.00  0.00    +0.000 C 
ATOM     25  C   UNL     1       6.225   5.353  14.890  0.00  0.00    +0.000 C 
ENDBRANCH  20  23
ENDBRANCH   6  19
TORSDOF 3
ENDMDL
MODEL 3
REMARK VINA RESULT:      -7.8      3.338      7.509
REMARK  Name = 
REMARK  4 active torsions:
REMARK  status: ('A' for Active; 'I' for Inactive)
REMARK    1  A    between atoms: C_1  and  C_2
REMARK    2  A    between atoms: C_8  and  C_9
REMARK    3  A    between atoms: C_14  and  N_15
REMARK    4  A    between atoms: C_16  and  C_18
REMARK                            x       y       z     vdW  Elec       q    Type
REMARK                         _______ _______ _______ _____ _____    ______ ____
ROOT
ATOM      1  C   UNL     1       2.611   7.060  18.741  0.00  0.00    +0.000 A 
ATOM      2  C   UNL     1       1.940   7.553  17.605  0.00  0.00    +0.000 A 
ATOM      3  C   UNL     1       1.375   8.797  17.632  0.00  0.00    +0.000 A 
ATOM      4  C   UNL     1       1.417   9.495  18.818  0.00  0.00    +0.000 A 
ATOM      5  C   UNL     1       1.067  10.822  18.880  0.00  0.00    +0.000 A 
ATOM      6  C   UNL     1      -0.248  10.854  19.201  0.00  0.00    +0.000 A 
ATOM      7  N   UNL     1      -0.612  10.180  20.314  0.00  0.00    +0.000 NA
ATOM      8  C   UNL     1       0.294   9.227  20.782  0.00  0.00    +0.000 A 
ATOM      9  C   UNL     1       1.357   8.744  19.968  0.00  0.00    +0.000 A 
ATOM     10  C   UNL     1       2.203   7.585  19.983  0.00  0.00    +0.000 A 
ENDROOT
BRANCH   1  18
ATOM     11  C   UNL     1       3.014   4.403  20.181  0.00  0.00    +0.000 C 
ATOM     12  C   UNL     1       3.994   4.979  19.196  0.00  0.00    +0.000 A 
ATOM     13  N   UNL     1       5.224   4.386  19.241  0.00  0.00    +0.000 NA
ATOM     14  C   UNL     1       6.234   4.969  18.559  0.00  0.00    +0.000 A 
ATOM     15  C   UNL     1       6.063   6.079  17.768  0.00  0.00    +0.000 A 
ATOM     16  F   UNL     1       7.111   6.678  17.186  0.00  0.00    +0.000 F 
ATOM     17  C   UNL     1       4.798   6.636  17.659  0.00  0.00    +0.000 A 
ATOM     18  C   UNL     1       3.725   6.137  18.429  0.00  0.00    +0.000 A 
ENDBRANCH   1  18
BRANCH   6  19
ATOM     19  N   UNL     1      -1.013  11.200  18.072  0.00  0.00    +0.000 N 
ATOM     20  C   UNL     1      -2.017  10.481  17.495  0.00  0.00    +0.000 C 
ATOM     21  O   UNL     1      -2.587   9.526  17.981  0.00  0.00    +0.000 OA
ATOM     22  H   UNL     1      -0.587  11.903  17.486  0.00  0.00    +0.000 HD
BRANCH  20  23
ATOM     23  C   UNL     1      -2.405  10.918  16.100  0.00  0.00    +0.000 C 
ATOM     24  C   UNL     1      -2.909   9.931  15.071  0.00  0.00    +0.000 C 
ATOM     25  C   UNL     1      -3.813  11.030  15.545  0.00  0.00    +0.000 C 
ENDBRANCH  20  23
ENDBRANCH   6  19
TORSDOF 3
ENDMDL
MODEL 4
REMARK VINA RESULT:      -7.7      4.550      6.380
REMARK  Name = 
REMARK  4 active torsions:
REMARK  status: ('A' for Active; 'I' for Inactive)
REMARK    1  A    between atoms: C_1  and  C_2
REMARK    2  A    between atoms: C_8  and  C_9
REMARK    3  A    between atoms: C_14  and  N_15
REMARK    4  A    between atoms: C_16  and  C_18
REMARK                            x       y       z     vdW  Elec       q    Type
REMARK                         _______ _______ _______ _____ _____    ______ ____
ROOT
ATOM      1  C   UNL     1       4.211   3.987  18.532  0.00  0.00    +0.000 A 
ATOM      2  C   UNL     1       4.858   4.814  19.471  0.00  0.00    +0.000 A 
ATOM      3  C   UNL     1       5.504   5.945  19.055  0.00  0.00    +0.000 A 
ATOM      4  C   UNL     1       5.564   6.186  17.700  0.00  0.00    +0.000 A 
ATOM      5  C   UNL     1       6.003   7.391  17.208  0.00  0.00    +0.000 A 
ATOM      6  C   UNL     1       7.331   7.250  16.985  0.00  0.00    +0.000 A 
ATOM      7  N   UNL     1       7.703   6.215  16.201  0.00  0.00    +0.000 NA
ATOM      8  C   UNL     1       6.759   5.201  16.030  0.00  0.00    +0.000 A 
ATOM      9  C   UNL     1       5.629   5.080  16.888  0.00  0.00    +0.000 A 
ATOM     10  C   UNL     1       4.711   4.028  17.216  0.00  0.00    +0.000 A 
ENDROOT
BRANCH   1  18
ATOM     11  C   UNL     1       1.398   4.403  17.432  0.00  0.00    +0.000 C 
ATOM     12  C   UNL     1       1.706   3.586  18.656  0.00  0.00    +0.000 A 
ATOM     13  N   UNL     1       0.607   3.316  19.421  0.00  0.00    +0.000 NA
ATOM     14  C   UNL     1       0.804   2.782  20.647  0.00  0.00    +0.000 A 
ATOM     15  C   UNL     1       2.044   2.431  21.122  0.00  0.00    +0.000 A 
ATOM     16  F   UNL     1       2.200   1.993  22.378  0.00  0.00    +0.000 F 
ATOM     17  C   UNL     1       3.152   2.632  20.315  0.00  0.00    +0.000 A 
ATOM     18  C   UNL     1       3.025   3.282  19.068  0.00  0.00    +0.000 A 
ENDBRANCH   1  18
BRANCH   6  19
ATOM     19  N   UNL     1       8.062   7.934  17.974  0.00  0.00    +0.000 N 
ATOM     20  C   UNL     1       8.244   9.280  18.091  0.00  0.00    +0.000 C 
ATOM     21  O   UNL     1       7.624  10.143  17.504  0.00  0.00    +0.000 OA
ATOM     22  H   UNL     1       8.731   7.359  18.463  0.00  0.00    +0.000 HD
BRANCH  20  23
ATOM     23  C   UNL     1       9.360   9.702  19.021  0.00  0.00    +0.000 C 
ATOM     24  C   UNL     1      10.079  11.021  18.850  0.00  0.00    +0.000 C 
ATOM     25  C   UNL     1       9.287  10.769  20.098  0.00  0.00    +0.000 C 
ENDBRANCH  20  23
ENDBRANCH   6  19
TORSDOF 3
ENDMDL
MODEL 5
REMARK VINA RESULT:      -7.5      3.222      8.124
REMARK  Name = 
REMARK  4 active torsions:
REMARK  status: ('A' for Active; 'I' for Inactive)
REMARK    1  A    between atoms: C_1  and  C_2
REMARK    2  A    between atoms: C_8  and  C_9
REMARK    3  A    between atoms: C_14  and  N_15
REMARK    4  A    between atoms: C_16  and  C_18
REMARK                            x       y       z     vdW  Elec       q    Type
REMARK                         _______ _______ _______ _____ _____    ______ ____
ROOT
ATOM      1  C   UNL     1       2.231   7.448  19.597  0.00  0.00    +0.000 A 
ATOM      2  C   UNL     1       1.500   7.977  20.679  0.00  0.00    +0.000 A 
ATOM      3  C   UNL     1       0.598   8.981  20.467  0.00  0.00    +0.000 A 
ATOM      4  C   UNL     1       0.501   9.498  19.194  0.00  0.00    +0.000 A 
ATOM      5  C   UNL     1      -0.515  10.353  18.845  0.00  0.00    +0.000 A 
ATOM      6  C   UNL     1      -0.043  11.607  19.045  0.00  0.00    +0.000 A 
ATOM      7  N   UNL     1       1.117  11.918  18.428  0.00  0.00    +0.000 NA
ATOM      8  C   UNL     1       1.889  10.842  17.987  0.00  0.00    +0.000 A 
ATOM      9  C   UNL     1       1.660   9.517  18.456  0.00  0.00    +0.000 A 
ATOM     10  C   UNL     1       2.430   8.308  18.499  0.00  0.00    +0.000 A 
ENDROOT
BRANCH   1  18
ATOM     11  C   UNL     1       4.218   6.026  17.773  0.00  0.00    +0.000 C 
ATOM     12  C   UNL     1       3.390   5.327  18.815  0.00  0.00    +0.000 A 
ATOM     13  N   UNL     1       3.354   3.970  18.661  0.00  0.00    +0.000 NA
ATOM     14  C   UNL     1       2.468   3.271  19.405  0.00  0.00    +0.000 A 
ATOM     15  C   UNL     1       1.662   3.852  20.355  0.00  0.00    +0.000 A 
ATOM     16  F   UNL     1       0.733   3.135  21.000  0.00  0.00    +0.000 F 
ATOM     17  C   UNL     1       1.755   5.219  20.566  0.00  0.00    +0.000 A 
ATOM     18  C   UNL     1       2.583   6.018  19.750  0.00  0.00    +0.000 A 
ENDBRANCH   1  18
BRANCH   6  19
ATOM     19  N   UNL     1      -0.621  12.161  20.202  0.00  0.00    +0.000 N 
ATOM     20  C   UNL     1      -0.013  12.411  21.397  0.00  0.00    +0.000 C 
ATOM     21  O   UNL     1       1.183  12.418  21.606  0.00  0.00    +0.000 OA
ATOM     22  H   UNL     1      -1.628  12.102  20.230  0.00  0.00    +0.000 HD
BRANCH  20  23
ATOM     23  C   UNL     1      -0.949  12.663  22.558  0.00  0.00    +0.000 C 
ATOM     24  C   UNL     1      -2.447  12.728  22.369  0.00  0.00    +0.000 C 
ATOM     25  C   UNL     1      -1.858  11.647  23.224  0.00  0.00    +0.000 C 
ENDBRANCH  20  23
ENDBRANCH   6  19
TORSDOF 3
ENDMDL
MODEL 6
REMARK VINA RESULT:      -7.4      3.439      7.882
REMARK  Name = 
REMARK  4 active torsions:
REMARK  status: ('A' for Active; 'I' for Inactive)
REMARK    1  A    between atoms: C_1  and  C_2
REMARK    2  A    between atoms: C_8  and  C_9
REMARK    3  A    between atoms: C_14  and  N_15
REMARK    4  A    between atoms: C_16  and  C_18
REMARK                            x       y       z     vdW  Elec       q    Type
REMARK                         _______ _______ _______ _____ _____    ______ ____
ROOT
ATOM      1  C   UNL     1       2.909   6.927  18.271  0.00  0.00    +0.000 A 
ATOM      2  C   UNL     1       2.089   7.656  17.387  0.00  0.00    +0.000 A 
ATOM      3  C   UNL     1       1.476   8.801  17.811  0.00  0.00    +0.000 A 
ATOM      4  C   UNL     1       1.623   9.155  19.134  0.00  0.00    +0.000 A 
ATOM      5  C   UNL     1       1.223  10.386  19.593  0.00  0.00    +0.000 A 
ATOM      6  C   UNL     1      -0.046  10.232  20.039  0.00  0.00    +0.000 A 
ATOM      7  N   UNL     1      -0.249   9.258  20.953  0.00  0.00    +0.000 NA
ATOM      8  C   UNL     1       0.748   8.285  21.049  0.00  0.00    +0.000 A 
ATOM      9  C   UNL     1       1.730   8.120  20.032  0.00  0.00    +0.000 A 
ATOM     10  C   UNL     1       2.624   7.067  19.644  0.00  0.00    +0.000 A 
ENDROOT
BRANCH   1  18
ATOM     11  C   UNL     1       2.799   3.952  17.614  0.00  0.00    +0.000 C 
ATOM     12  C   UNL     1       4.026   4.804  17.438  0.00  0.00    +0.000 A 
ATOM     13  N   UNL     1       5.172   4.079  17.273  0.00  0.00    +0.000 NA
ATOM     14  C   UNL     1       6.351   4.738  17.328  0.00  0.00    +0.000 A 
ATOM     15  C   UNL     1       6.444   6.102  17.464  0.00  0.00    +0.000 A 
ATOM     16  F   UNL     1       7.633   6.700  17.609  0.00  0.00    +0.000 F 
ATOM     17  C   UNL     1       5.278   6.846  17.553  0.00  0.00    +0.000 A 
ATOM     18  C   UNL     1       4.020   6.209  17.608  0.00  0.00    +0.000 A 
ENDBRANCH   1  18
BRANCH   6  19
ATOM     19  N   UNL     1      -0.951  10.811  19.130  0.00  0.00    +0.000 N 
ATOM     20  C   UNL     1      -2.024  11.602  19.416  0.00  0.00    +0.000 C 
ATOM     21  O   UNL     1      -2.259  12.138  20.479  0.00  0.00    +0.000 OA
ATOM     22  H   UNL     1      -0.964  10.369  18.223  0.00  0.00    +0.000 HD
BRANCH  20  23
ATOM     23  C   UNL     1      -3.016  11.776  18.287  0.00  0.00    +0.000 C 
ATOM     24  C   UNL     1      -2.875  11.023  16.984  0.00  0.00    +0.000 C 
ATOM     25  C   UNL     1      -4.074  10.779  17.851  0.00  0.00    +0.000 C 
ENDBRANCH  20  23
ENDBRANCH   6  19
TORSDOF 3
ENDMDL
MODEL 7
REMARK VINA RESULT:      -7.4      1.089      1.161
REMARK  Name = 
REMARK  4 active torsions:
REMARK  status: ('A' for Active; 'I' for Inactive)
REMARK    1  A    between atoms: C_1  and  C_2
REMARK    2  A    between atoms: C_8  and  C_9
REMARK    3  A    between atoms: C_14  and  N_15
REMARK    4  A    between atoms: C_16  and  C_18
REMARK                            x       y       z     vdW  Elec       q    Type
REMARK                         _______ _______ _______ _____ _____    ______ ____
ROOT
ATOM      1  C   UNL     1       1.757   7.883  19.956  0.00  0.00    +0.000 A 
ATOM      2  C   UNL     1       2.444   7.752  18.733  0.00  0.00    +0.000 A 
ATOM      3  C   UNL     1       2.494   6.539  18.105  0.00  0.00    +0.000 A 
ATOM      4  C   UNL     1       1.931   5.460  18.749  0.00  0.00    +0.000 A 
ATOM      5  C   UNL     1       1.750   4.259  18.107  0.00  0.00    +0.000 A 
ATOM      6  C   UNL     1       2.852   3.518  18.369  0.00  0.00    +0.000 A 
ATOM      7  N   UNL     1       3.172   3.355  19.671  0.00  0.00    +0.000 NA
ATOM      8  C   UNL     1       2.593   4.256  20.566  0.00  0.00    +0.000 A 
ATOM      9  C   UNL     1       1.996   5.470  20.122  0.00  0.00    +0.000 A 
ATOM     10  C   UNL     1       1.651   6.717  20.739  0.00  0.00    +0.000 A 
ENDROOT
BRANCH   1  18
ATOM     11  C   UNL     1      -0.423   8.412  22.021  0.00  0.00    +0.000 C 
ATOM     12  C   UNL     1       0.049   9.432  21.022  0.00  0.00    +0.000 A 
ATOM     13  N   UNL     1      -0.795  10.499  20.893  0.00  0.00    +0.000 NA
ATOM     14  C   UNL     1      -0.579  11.357  19.872  0.00  0.00    +0.000 A 
ATOM     15  C   UNL     1       0.485  11.247  19.010  0.00  0.00    +0.000 A 
ATOM     16  F   UNL     1       0.605  12.065  17.956  0.00  0.00    +0.000 F 
ATOM     17  C   UNL     1       1.386  10.209  19.188  0.00  0.00    +0.000 A 
ATOM     18  C   UNL     1       1.159   9.220  20.170  0.00  0.00    +0.000 A 
ENDBRANCH   1  18
BRANCH   6  19
ATOM     19  N   UNL     1       3.674   3.455  17.229  0.00  0.00    +0.000 N 
ATOM     20  C   UNL     1       4.891   4.043  17.048  0.00  0.00    +0.000 C 
ATOM     21  O   UNL     1       5.588   4.532  17.913  0.00  0.00    +0.000 OA
ATOM     22  H   UNL     1       3.190   3.188  16.385  0.00  0.00    +0.000 HD
BRANCH  20  23
ATOM     23  C   UNL     1       5.369   4.110  15.615  0.00  0.00    +0.000 C 
ATOM     24  C   UNL     1       5.697   5.427  14.948  0.00  0.00    +0.000 C 
ATOM     25  C   UNL     1       6.781   4.409  15.145  0.00  0.00    +0.000 C 
ENDBRANCH  20  23
ENDBRANCH   6  19
TORSDOF 3
ENDMDL
MODEL 8
REMARK VINA RESULT:      -7.3      3.617      8.284
REMARK  Name = 
REMARK  4 active torsions:
REMARK  status: ('A' for Active; 'I' for Inactive)
REMARK    1  A    between atoms: C_1  and  C_2
REMARK    2  A    between atoms: C_8  and  C_9
REMARK    3  A    between atoms: C_14  and  N_15
REMARK    4  A    between atoms: C_16  and  C_18
REMARK                            x       y       z     vdW  Elec       q    Type
REMARK                         _______ _______ _______ _____ _____    ______ ____
ROOT
ATOM      1  C   UNL     1       2.338   6.742  19.616  0.00  0.00    +0.000 A 
ATOM      2  C   UNL     1       1.936   7.391  20.800  0.00  0.00    +0.000 A 
ATOM      3  C   UNL     1       1.161   8.515  20.732  0.00  0.00    +0.000 A 
ATOM      4  C   UNL     1       0.872   9.021  19.484  0.00  0.00    +0.000 A 
ATOM      5  C   UNL     1      -0.064  10.012  19.314  0.00  0.00    +0.000 A 
ATOM      6  C   UNL     1       0.613  11.184  19.352  0.00  0.00    +0.000 A 
ATOM      7  N   UNL     1       1.649  11.309  18.494  0.00  0.00    +0.000 NA
ATOM      8  C   UNL     1       2.149  10.123  17.955  0.00  0.00    +0.000 A 
ATOM      9  C   UNL     1       1.839   8.855  18.522  0.00  0.00    +0.000 A 
ATOM     10  C   UNL     1       2.420   7.545  18.461  0.00  0.00    +0.000 A 
ENDROOT
BRANCH   1  18
ATOM     11  C   UNL     1       5.028   5.346  19.288  0.00  0.00    +0.000 C 
ATOM     12  C   UNL     1       3.723   4.619  19.463  0.00  0.00    +0.000 A 
ATOM     13  N   UNL     1       3.791   3.294  19.137  0.00  0.00    +0.000 NA
ATOM     14  C   UNL     1       2.632   2.604  19.048  0.00  0.00    +0.000 A 
ATOM     15  C   UNL     1       1.407   3.152  19.342  0.00  0.00    +0.000 A 
ATOM     16  F   UNL     1       0.278   2.459  19.148  0.00  0.00    +0.000 F 
ATOM     17  C   UNL     1       1.346   4.476  19.748  0.00  0.00    +0.000 A 
ATOM     18  C   UNL     1       2.507   5.278  19.759  0.00  0.00    +0.000 A 
ENDBRANCH   1  18
BRANCH   6  19
ATOM     19  N   UNL     1       0.379  11.837  20.577  0.00  0.00    +0.000 N 
ATOM     20  C   UNL     1      -0.455  12.889  20.812  0.00  0.00    +0.000 C 
ATOM     21  O   UNL     1      -1.316  13.304  20.063  0.00  0.00    +0.000 OA
ATOM     22  H   UNL     1       1.101  11.690  21.267  0.00  0.00    +0.000 HD
BRANCH  20  23
ATOM     23  C   UNL     1      -0.232  13.610  22.123  0.00  0.00    +0.000 C 
ATOM     24  C   UNL     1      -1.003  14.860  22.482  0.00  0.00    +0.000 C 
ATOM     25  C   UNL     1      -1.169  13.626  23.317  0.00  0.00    +0.000 C 
ENDBRANCH  20  23
ENDBRANCH   6  19
TORSDOF 3
ENDMDL
MODEL 9
REMARK VINA RESULT:      -7.3      3.166      7.380
REMARK  Name = 
REMARK  4 active torsions:
REMARK  status: ('A' for Active; 'I' for Inactive)
REMARK    1  A    between atoms: C_1  and  C_2
REMARK    2  A    between atoms: C_8  and  C_9
REMARK    3  A    between atoms: C_14  and  N_15
REMARK    4  A    between atoms: C_16  and  C_18
REMARK                            x       y       z     vdW  Elec       q    Type
REMARK                         _______ _______ _______ _____ _____    ______ ____
ROOT
ATOM      1  C   UNL     1       4.535   4.670  17.070  0.00  0.00    +0.000 A 
ATOM      2  C   UNL     1       3.932   5.940  16.976  0.00  0.00    +0.000 A 
ATOM      3  C   UNL     1       3.381   6.519  18.085  0.00  0.00    +0.000 A 
ATOM      4  C   UNL     1       3.365   5.785  19.250  0.00  0.00    +0.000 A 
ATOM      5  C   UNL     1       3.027   6.359  20.451  0.00  0.00    +0.000 A 
ATOM      6  C   UNL     1       1.697   6.160  20.607  0.00  0.00    +0.000 A 
ATOM      7  N   UNL     1       1.264   4.884  20.513  0.00  0.00    +0.000 NA
ATOM      8  C   UNL     1       2.133   3.982  19.897  0.00  0.00    +0.000 A 
ATOM      9  C   UNL     1       3.233   4.424  19.110  0.00  0.00    +0.000 A 
ATOM     10  C   UNL     1       4.064   3.832  18.101  0.00  0.00    +0.000 A 
ENDROOT
BRANCH   1  18
ATOM     11  C   UNL     1       7.207   6.113  17.325  0.00  0.00    +0.000 C 
ATOM     12  C   UNL     1       6.835   5.239  16.159  0.00  0.00    +0.000 A 
ATOM     13  N   UNL     1       7.650   5.403  15.074  0.00  0.00    +0.000 NA
ATOM     14  C   UNL     1       7.273   4.833  13.908  0.00  0.00    +0.000 A 
ATOM     15  C   UNL     1       6.158   4.041  13.784  0.00  0.00    +0.000 A 
ATOM     16  F   UNL     1       5.772   3.576  12.589  0.00  0.00    +0.000 F 
ATOM     17  C   UNL     1       5.373   3.811  14.904  0.00  0.00    +0.000 A 
ATOM     18  C   UNL     1       5.654   4.462  16.125  0.00  0.00    +0.000 A 
ENDBRANCH   1  18
BRANCH   6  19
ATOM     19  N   UNL     1       1.000   7.362  20.384  0.00  0.00    +0.000 N 
ATOM     20  C   UNL     1       0.889   8.427  21.228  0.00  0.00    +0.000 C 
ATOM     21  O   UNL     1       1.556   8.629  22.222  0.00  0.00    +0.000 OA
ATOM     22  H   UNL     1       0.300   7.305  19.660  0.00  0.00    +0.000 HD
BRANCH  20  23
ATOM     23  C   UNL     1      -0.206   9.412  20.884  0.00  0.00    +0.000 C 
ATOM     24  C   UNL     1      -0.119  10.867  21.286  0.00  0.00    +0.000 C 
ATOM     25  C   UNL     1      -0.143  10.504  19.831  0.00  0.00    +0.000 C 
ENDBRANCH  20  23
ENDBRANCH   6  19
TORSDOF 3
ENDMDL
