MODEL 1
REMARK VINA RESULT:      -6.9      0.000      0.000
REMARK  Name = 
REMARK  8 active torsions:
REMARK  status: ('A' for Active; 'I' for Inactive)
REMARK    1  A    between atoms: C_1  and  O_2
REMARK    2  A    between atoms: O_2  and  C_3
REMARK    3  A    between atoms: C_5  and  N_6
REMARK    4  A    between atoms: C_10  and  C_11
REMARK    5  A    between atoms: C_11  and  O_13
REMARK    6  A    between atoms: O_13  and  C_14
REMARK    7  A    between atoms: C_14  and  C_15
REMARK    8  A    between atoms: C_15  and  N_16
REMARK                            x       y       z     vdW  Elec       q    Type
REMARK                         _______ _______ _______ _____ _____    ______ ____
ROOT
ATOM      1  O   UNL     1       1.822   8.044  17.825  0.00  0.00    +0.000 OA
ENDROOT
BRANCH   1   2
ATOM      2  C   UNL     1       2.478   7.248  18.707  0.00  0.00    +0.000 C 
ATOM      3  O   UNL     1       2.359   7.292  19.923  0.00  0.00    +0.000 OA
BRANCH   2  10
ATOM      4  C   UNL     1       2.844   4.923  17.715  0.00  0.00    +0.000 A 
ATOM      5  C   UNL     1       3.718   4.032  17.066  0.00  0.00    +0.000 A 
ATOM      6  C   UNL     1       5.017   4.413  16.703  0.00  0.00    +0.000 A 
ATOM      7  C   UNL     1       5.465   5.692  17.071  0.00  0.00    +0.000 A 
ATOM      8 CL   UNL     1       7.074   6.202  16.700  0.00  0.00    +0.000 Cl
ATOM      9  C   UNL     1       4.611   6.589  17.708  0.00  0.00    +0.000 A 
ATOM     10  C   UNL     1       3.298   6.210  18.033  0.00  0.00    +0.000 A 
BRANCH   6  11
ATOM     11  N   UNL     1       5.889   3.441  16.179  0.00  0.00    +0.000 N 
ATOM     12  H   UNL     1       5.528   2.933  15.379  0.00  0.00    +0.000 HD
ATOM     13  H   UNL     1       6.830   3.800  16.024  0.00  0.00    +0.000 HD
ENDBRANCH   6  11
BRANCH   4  15
ATOM     14  C   UNL     1       1.322   3.569  18.948  0.00  0.00    +0.000 C 
ATOM     15  O   UNL     1       1.540   4.603  17.993  0.00  0.00    +0.000 OA
ENDBRANCH   4  15
ENDBRANCH   2  10
ENDBRANCH   1   2
BRANCH   1  16
ATOM     16  C   UNL     1       2.272   9.412  17.793  0.00  0.00    +0.000 C 
BRANCH  16  17
ATOM     17  C   UNL     1       1.334  10.323  18.606  0.00  0.00    +0.000 C 
BRANCH  17  18
ATOM     18  N   UNL     1       0.001   9.749  18.889  0.00  0.00    +0.000 NA
ATOM     19  C   UNL     1      -0.249   9.581  20.343  0.00  0.00    +0.000 C 
ATOM     20  C   UNL     1      -0.263  10.902  21.144  0.00  0.00    +0.000 C 
ATOM     21  N   UNL     1      -1.256  11.806  20.570  0.00  0.00    +0.000 N 
ATOM     22  C   UNL     1      -2.286  12.240  21.361  0.00  0.00    +0.000 A 
ATOM     23  N   UNL     1      -2.115  12.227  22.695  0.00  0.00    +0.000 NA
ATOM     24  C   UNL     1      -3.126  12.652  23.471  0.00  0.00    +0.000 A 
ATOM     25  C   UNL     1      -4.329  13.070  22.973  0.00  0.00    +0.000 A 
ATOM     26  C   UNL     1      -4.427  13.045  21.605  0.00  0.00    +0.000 A 
ATOM     27  N   UNL     1      -3.430  12.655  20.790  0.00  0.00    +0.000 NA
ATOM     28  C   UNL     1      -1.265  11.987  19.120  0.00  0.00    +0.000 C 
ATOM     29  C   UNL     1      -1.074  10.642  18.370  0.00  0.00    +0.000 C 
ENDBRANCH  17  18
ENDBRANCH  16  17
ENDBRANCH   1  16
TORSDOF 7
ENDMDL
MODEL 2
REMARK VINA RESULT:      -6.7      3.038      4.634
REMARK  Name = 
REMARK  8 active torsions:
REMARK  status: ('A' for Active; 'I' for Inactive)
REMARK    1  A    between atoms: C_1  and  O_2
REMARK    2  A    between atoms: O_2  and  C_3
REMARK    3  A    between atoms: C_5  and  N_6
REMARK    4  A    between atoms: C_10  and  C_11
REMARK    5  A    between atoms: C_11  and  O_13
REMARK    6  A    between atoms: O_13  and  C_14
REMARK    7  A    between atoms: C_14  and  C_15
REMARK    8  A    between atoms: C_15  and  N_16
REMARK                            x       y       z     vdW  Elec       q    Type
REMARK                         _______ _______ _______ _____ _____    ______ ____
ROOT
ATOM      1  O   UNL     1       3.176   3.472  17.978  0.00  0.00    +0.000 OA
ENDROOT
BRANCH   1   2
ATOM      2  C   UNL     1       4.455   3.575  18.420  0.00  0.00    +0.000 C 
ATOM      3  O   UNL     1       4.851   3.233  19.526  0.00  0.00    +0.000 OA
BRANCH   2  10
ATOM      4  C   UNL     1       6.613   4.679  17.613  0.00  0.00    +0.000 A 
ATOM      5  C   UNL     1       7.406   5.079  16.524  0.00  0.00    +0.000 A 
ATOM      6  C   UNL     1       7.011   4.839  15.201  0.00  0.00    +0.000 A 
ATOM      7  C   UNL     1       5.756   4.252  14.976  0.00  0.00    +0.000 A 
ATOM      8 CL   UNL     1       5.187   3.980  13.366  0.00  0.00    +0.000 Cl
ATOM      9  C   UNL     1       4.959   3.843  16.042  0.00  0.00    +0.000 A 
ATOM     10  C   UNL     1       5.383   4.054  17.366  0.00  0.00    +0.000 A 
BRANCH   6  11
ATOM     11  N   UNL     1       7.778   5.381  14.154  0.00  0.00    +0.000 N 
ATOM     12  H   UNL     1       7.662   6.379  14.014  0.00  0.00    +0.000 HD
ATOM     13  H   UNL     1       8.758   5.103  14.200  0.00  0.00    +0.000 HD
ENDBRANCH   6  11
BRANCH   4  15
ATOM     14  C   UNL     1       7.807   5.967  19.221  0.00  0.00    +0.000 C 
ATOM     15  O   UNL     1       7.024   4.817  18.914  0.00  0.00    +0.000 OA
ENDBRANCH   4  15
ENDBRANCH   2  10
ENDBRANCH   1   2
BRANCH   1  16
ATOM     16  C   UNL     1       2.213   4.239  18.725  0.00  0.00    +0.000 C 
BRANCH  16  17
ATOM     17  C   UNL     1       2.084   5.667  18.160  0.00  0.00    +0.000 C 
BRANCH  17  18
ATOM     18  N   UNL     1       2.980   6.665  18.783  0.00  0.00    +0.000 NA
ATOM     19  C   UNL     1       3.094   7.906  17.975  0.00  0.00    +0.000 C 
ATOM     20  C   UNL     1       1.770   8.684  17.811  0.00  0.00    +0.000 C 
ATOM     21  N   UNL     1       1.225   8.996  19.129  0.00  0.00    +0.000 N 
ATOM     22  C   UNL     1       1.031  10.309  19.468  0.00  0.00    +0.000 A 
ATOM     23  N   UNL     1       0.890  11.209  18.478  0.00  0.00    +0.000 NA
ATOM     24  C   UNL     1       0.702  12.497  18.809  0.00  0.00    +0.000 A 
ATOM     25  C   UNL     1       0.673  12.941  20.102  0.00  0.00    +0.000 A 
ATOM     26  C   UNL     1       0.833  11.965  21.052  0.00  0.00    +0.000 A 
ATOM     27  N   UNL     1       0.995  10.660  20.764  0.00  0.00    +0.000 NA
ATOM     28  C   UNL     1       1.168   7.925  20.121  0.00  0.00    +0.000 C 
ATOM     29  C   UNL     1       2.463   7.069  20.121  0.00  0.00    +0.000 C 
ENDBRANCH  17  18
ENDBRANCH  16  17
ENDBRANCH   1  16
TORSDOF 7
ENDMDL
MODEL 3
REMARK VINA RESULT:      -6.7      3.642      5.635
REMARK  Name = 
REMARK  8 active torsions:
REMARK  status: ('A' for Active; 'I' for Inactive)
REMARK    1  A    between atoms: C_1  and  O_2
REMARK    2  A    between atoms: O_2  and  C_3
REMARK    3  A    between atoms: C_5  and  N_6
REMARK    4  A    between atoms: C_10  and  C_11
REMARK    5  A    between atoms: C_11  and  O_13
REMARK    6  A    between atoms: O_13  and  C_14
REMARK    7  A    between atoms: C_14  and  C_15
REMARK    8  A    between atoms: C_15  and  N_16
REMARK                            x       y       z     vdW  Elec       q    Type
REMARK                         _______ _______ _______ _____ _____    ______ ____
ROOT
ATOM      1  O   UNL     1       4.066   3.222  17.203  0.00  0.00    +0.000 OA
ENDROOT
BRANCH   1   2
ATOM      2  C   UNL     1       5.241   3.812  17.539  0.00  0.00    +0.000 C 
ATOM      3  O   UNL     1       5.705   3.871  18.669  0.00  0.00    +0.000 OA
BRANCH   2  10
ATOM      4  C   UNL     1       6.965   5.306  16.389  0.00  0.00    +0.000 A 
ATOM      5  C   UNL     1       7.610   5.672  15.195  0.00  0.00    +0.000 A 
ATOM      6  C   UNL     1       7.326   5.032  13.981  0.00  0.00    +0.000 A 
ATOM      7  C   UNL     1       6.314   4.058  13.961  0.00  0.00    +0.000 A 
ATOM      8 CL   UNL     1       5.877   3.272  12.485  0.00  0.00    +0.000 Cl
ATOM      9  C   UNL     1       5.669   3.678  15.135  0.00  0.00    +0.000 A 
ATOM     10  C   UNL     1       5.990   4.300  16.354  0.00  0.00    +0.000 A 
BRANCH   6  11
ATOM     11  N   UNL     1       7.903   5.531  12.799  0.00  0.00    +0.000 N 
ATOM     12  H   UNL     1       7.256   6.004  12.177  0.00  0.00    +0.000 HD
ATOM     13  H   UNL     1       8.748   6.073  12.972  0.00  0.00    +0.000 HD
ENDBRANCH   6  11
BRANCH   4  15
ATOM     14  C   UNL     1       7.531   7.256  17.633  0.00  0.00    +0.000 C 
ATOM     15  O   UNL     1       7.296   5.851  17.603  0.00  0.00    +0.000 OA
ENDBRANCH   4  15
ENDBRANCH   2  10
ENDBRANCH   1   2
BRANCH   1  16
ATOM     16  C   UNL     1       3.509   2.362  18.216  0.00  0.00    +0.000 C 
BRANCH  16  17
ATOM     17  C   UNL     1       2.908   3.185  19.372  0.00  0.00    +0.000 C 
BRANCH  17  18
ATOM     18  N   UNL     1       1.631   3.862  19.055  0.00  0.00    +0.000 NA
ATOM     19  C   UNL     1       0.990   4.455  20.256  0.00  0.00    +0.000 C 
ATOM     20  C   UNL     1       1.816   5.571  20.933  0.00  0.00    +0.000 C 
ATOM     21  N   UNL     1       2.109   6.618  19.958  0.00  0.00    +0.000 N 
ATOM     22  C   UNL     1       1.666   7.890  20.203  0.00  0.00    +0.000 A 
ATOM     23  N   UNL     1       1.415   8.243  21.477  0.00  0.00    +0.000 NA
ATOM     24  C   UNL     1       0.980   9.490  21.719  0.00  0.00    +0.000 A 
ATOM     25  C   UNL     1       0.754  10.410  20.731  0.00  0.00    +0.000 A 
ATOM     26  C   UNL     1       1.026   9.971  19.461  0.00  0.00    +0.000 A 
ATOM     27  N   UNL     1       1.490   8.739  19.178  0.00  0.00    +0.000 NA
ATOM     28  C   UNL     1       2.613   6.214  18.647  0.00  0.00    +0.000 C 
ATOM     29  C   UNL     1       1.856   4.978  18.093  0.00  0.00    +0.000 C 
ENDBRANCH  17  18
ENDBRANCH  16  17
ENDBRANCH   1  16
TORSDOF 7
ENDMDL
MODEL 4
REMARK VINA RESULT:      -6.7      7.270     10.207
REMARK  Name = 
REMARK  8 active torsions:
REMARK  status: ('A' for Active; 'I' for Inactive)
REMARK    1  A    between atoms: C_1  and  O_2
REMARK    2  A    between atoms: O_2  and  C_3
REMARK    3  A    between atoms: C_5  and  N_6
REMARK    4  A    between atoms: C_10  and  C_11
REMARK    5  A    between atoms: C_11  and  O_13
REMARK    6  A    between atoms: O_13  and  C_14
REMARK    7  A    between atoms: C_14  and  C_15
REMARK    8  A    between atoms: C_15  and  N_16
REMARK                            x       y       z     vdW  Elec       q    Type
REMARK                         _______ _______ _______ _____ _____    ______ ____
ROOT
ATOM      1  O   UNL     1       8.677   9.544  18.979  0.00  0.00    +0.000 OA
ENDROOT
BRANCH   1   2
ATOM      2  C   UNL     1       9.446  10.631  18.717  0.00  0.00    +0.000 C 
ATOM      3  O   UNL     1      10.143  10.782  17.722  0.00  0.00    +0.000 OA
BRANCH   2  10
ATOM      4  C   UNL     1       9.344  13.077  19.449  0.00  0.00    +0.000 A 
ATOM      5  C   UNL     1       9.153  13.996  20.495  0.00  0.00    +0.000 A 
ATOM      6  C   UNL     1       8.863  13.573  21.799  0.00  0.00    +0.000 A 
ATOM      7  C   UNL     1       8.841  12.195  22.064  0.00  0.00    +0.000 A 
ATOM      8 CL   UNL     1       8.543  11.609  23.664  0.00  0.00    +0.000 Cl
ATOM      9  C   UNL     1       9.022  11.269  21.039  0.00  0.00    +0.000 A 
ATOM     10  C   UNL     1       9.274  11.705  19.727  0.00  0.00    +0.000 A 
BRANCH   6  11
ATOM     11  N   UNL     1       8.816  14.530  22.829  0.00  0.00    +0.000 N 
ATOM     12  H   UNL     1       8.289  15.368  22.608  0.00  0.00    +0.000 HD
ATOM     13  H   UNL     1       8.553  14.127  23.728  0.00  0.00    +0.000 HD
ENDBRANCH   6  11
BRANCH   4  15
ATOM     14  C   UNL     1      10.535  14.456  17.915  0.00  0.00    +0.000 C 
ATOM     15  O   UNL     1       9.533  13.470  18.148  0.00  0.00    +0.000 OA
ENDBRANCH   4  15
ENDBRANCH   2  10
ENDBRANCH   1   2
BRANCH   1  16
ATOM     16  C   UNL     1       8.180   8.860  17.814  0.00  0.00    +0.000 C 
BRANCH  16  17
ATOM     17  C   UNL     1       7.933   7.368  18.111  0.00  0.00    +0.000 C 
BRANCH  17  18
ATOM     18  N   UNL     1       7.367   6.595  16.984  0.00  0.00    +0.000 NA
ATOM     19  C   UNL     1       7.383   5.132  17.234  0.00  0.00    +0.000 C 
ATOM     20  C   UNL     1       6.519   4.681  18.433  0.00  0.00    +0.000 C 
ATOM     21  N   UNL     1       5.146   5.137  18.239  0.00  0.00    +0.000 N 
ATOM     22  C   UNL     1       4.143   4.206  18.185  0.00  0.00    +0.000 A 
ATOM     23  N   UNL     1       4.353   3.009  18.762  0.00  0.00    +0.000 NA
ATOM     24  C   UNL     1       3.371   2.094  18.708  0.00  0.00    +0.000 A 
ATOM     25  C   UNL     1       2.179   2.311  18.072  0.00  0.00    +0.000 A 
ATOM     26  C   UNL     1       2.046   3.551  17.503  0.00  0.00    +0.000 A 
ATOM     27  N   UNL     1       2.993   4.506  17.558  0.00  0.00    +0.000 NA
ATOM     28  C   UNL     1       4.933   6.526  17.839  0.00  0.00    +0.000 C 
ATOM     29  C   UNL     1       5.945   6.975  16.751  0.00  0.00    +0.000 C 
ENDBRANCH  17  18
ENDBRANCH  16  17
ENDBRANCH   1  16
TORSDOF 7
ENDMDL
MODEL 5
REMARK VINA RESULT:      -6.6      7.319     10.113
REMARK  Name = 
REMARK  8 active torsions:
REMARK  status: ('A' for Active; 'I' for Inactive)
REMARK    1  A    between atoms: C_1  and  O_2
REMARK    2  A    between atoms: O_2  and  C_3
REMARK    3  A    between atoms: C_5  and  N_6
REMARK    4  A    between atoms: C_10  and  C_11
REMARK    5  A    between atoms: C_11  and  O_13
REMARK    6  A    between atoms: O_13  and  C_14
REMARK    7  A    between atoms: C_14  and  C_15
REMARK    8  A    between atoms: C_15  and  N_16
REMARK                            x       y       z     vdW  Elec       q    Type
REMARK                         _______ _______ _______ _____ _____    ______ ____
ROOT
ATOM      1  O   UNL     1       9.154   9.668  18.021  0.00  0.00    +0.000 OA
ENDROOT
BRANCH   1   2
ATOM      2  C   UNL     1       9.253  10.439  19.134  0.00  0.00    +0.000 C 
ATOM      3  O   UNL     1       9.029  10.064  20.277  0.00  0.00    +0.000 OA
BRANCH   2  10
ATOM      4  C   UNL     1       9.448  12.951  19.557  0.00  0.00    +0.000 A 
ATOM      5  C   UNL     1      10.026  14.176  19.183  0.00  0.00    +0.000 A 
ATOM      6  C   UNL     1      10.953  14.261  18.136  0.00  0.00    +0.000 A 
ATOM      7  C   UNL     1      11.241  13.098  17.403  0.00  0.00    +0.000 A 
ATOM      8 CL   UNL     1      12.333  13.147  16.065  0.00  0.00    +0.000 Cl
ATOM      9  C   UNL     1      10.682  11.874  17.763  0.00  0.00    +0.000 A 
ATOM     10  C   UNL     1       9.783  11.794  18.840  0.00  0.00    +0.000 A 
BRANCH   6  11
ATOM     11  N   UNL     1      11.395  15.531  17.721  0.00  0.00    +0.000 N 
ATOM     12  H   UNL     1      11.492  16.212  18.466  0.00  0.00    +0.000 HD
ATOM     13  H   UNL     1      12.219  15.484  17.122  0.00  0.00    +0.000 HD
ENDBRANCH   6  11
BRANCH   4  15
ATOM     14  C   UNL     1       7.961  14.015  21.082  0.00  0.00    +0.000 C 
ATOM     15  O   UNL     1       8.614  12.829  20.639  0.00  0.00    +0.000 OA
ENDBRANCH   4  15
ENDBRANCH   2  10
ENDBRANCH   1   2
BRANCH   1  16
ATOM     16  C   UNL     1       7.867   9.054  17.823  0.00  0.00    +0.000 C 
BRANCH  16  17
ATOM     17  C   UNL     1       7.924   7.542  18.114  0.00  0.00    +0.000 C 
BRANCH  17  18
ATOM     18  N   UNL     1       7.434   6.679  17.018  0.00  0.00    +0.000 NA
ATOM     19  C   UNL     1       7.477   5.237  17.368  0.00  0.00    +0.000 C 
ATOM     20  C   UNL     1       6.570   4.841  18.554  0.00  0.00    +0.000 C 
ATOM     21  N   UNL     1       5.195   5.241  18.266  0.00  0.00    +0.000 N 
ATOM     22  C   UNL     1       4.223   4.278  18.230  0.00  0.00    +0.000 A 
ATOM     23  N   UNL     1       4.437   3.129  18.896  0.00  0.00    +0.000 NA
ATOM     24  C   UNL     1       3.484   2.183  18.860  0.00  0.00    +0.000 A 
ATOM     25  C   UNL     1       2.318   2.321  18.158  0.00  0.00    +0.000 A 
ATOM     26  C   UNL     1       2.179   3.516  17.499  0.00  0.00    +0.000 A 
ATOM     27  N   UNL     1       3.096   4.500  17.533  0.00  0.00    +0.000 NA
ATOM     28  C   UNL     1       4.964   6.593  17.764  0.00  0.00    +0.000 C 
ATOM     29  C   UNL     1       6.014   6.999  16.695  0.00  0.00    +0.000 C 
ENDBRANCH  17  18
ENDBRANCH  16  17
ENDBRANCH   1  16
TORSDOF 7
ENDMDL
MODEL 6
REMARK VINA RESULT:      -6.6      7.248      9.351
REMARK  Name = 
REMARK  8 active torsions:
REMARK  status: ('A' for Active; 'I' for Inactive)
REMARK    1  A    between atoms: C_1  and  O_2
REMARK    2  A    between atoms: O_2  and  C_3
REMARK    3  A    between atoms: C_5  and  N_6
REMARK    4  A    between atoms: C_10  and  C_11
REMARK    5  A    between atoms: C_11  and  O_13
REMARK    6  A    between atoms: O_13  and  C_14
REMARK    7  A    between atoms: C_14  and  C_15
REMARK    8  A    between atoms: C_15  and  N_16
REMARK                            x       y       z     vdW  Elec       q    Type
REMARK                         _______ _______ _______ _____ _____    ______ ____
ROOT
ATOM      1  O   UNL     1       7.196   8.310  17.140  0.00  0.00    +0.000 OA
ENDROOT
BRANCH   1   2
ATOM      2  C   UNL     1       6.984   7.002  16.846  0.00  0.00    +0.000 C 
ATOM      3  O   UNL     1       7.642   6.339  16.056  0.00  0.00    +0.000 OA
BRANCH   2  10
ATOM      4  C   UNL     1       6.117   5.368  18.607  0.00  0.00    +0.000 A 
ATOM      5  C   UNL     1       5.020   4.888  19.344  0.00  0.00    +0.000 A 
ATOM      6  C   UNL     1       3.740   5.440  19.198  0.00  0.00    +0.000 A 
ATOM      7  C   UNL     1       3.552   6.442  18.233  0.00  0.00    +0.000 A 
ATOM      8 CL   UNL     1       1.987   7.126  17.965  0.00  0.00    +0.000 Cl
ATOM      9  C   UNL     1       4.628   6.934  17.498  0.00  0.00    +0.000 A 
ATOM     10  C   UNL     1       5.915   6.399  17.681  0.00  0.00    +0.000 A 
BRANCH   6  11
ATOM     11  N   UNL     1       2.658   4.832  19.861  0.00  0.00    +0.000 N 
ATOM     12  H   UNL     1       2.643   4.971  20.865  0.00  0.00    +0.000 HD
ATOM     13  H   UNL     1       1.762   5.040  19.422  0.00  0.00    +0.000 HD
ENDBRANCH   6  11
BRANCH   4  15
ATOM     14  C   UNL     1       8.102   5.440  19.921  0.00  0.00    +0.000 C 
ATOM     15  O   UNL     1       7.394   4.908  18.804  0.00  0.00    +0.000 OA
ENDBRANCH   4  15
ENDBRANCH   2  10
ENDBRANCH   1   2
BRANCH   1  16
ATOM     16  C   UNL     1       8.295   8.559  18.037  0.00  0.00    +0.000 C 
BRANCH  16  17
ATOM     17  C   UNL     1       8.491  10.070  18.268  0.00  0.00    +0.000 C 
BRANCH  17  18
ATOM     18  N   UNL     1       9.835  10.456  18.748  0.00  0.00    +0.000 NA
ATOM     19  C   UNL     1      10.497  11.438  17.852  0.00  0.00    +0.000 C 
ATOM     20  C   UNL     1       9.765  12.794  17.741  0.00  0.00    +0.000 C 
ATOM     21  N   UNL     1       9.603  13.368  19.075  0.00  0.00    +0.000 N 
ATOM     22  C   UNL     1      10.160  14.590  19.338  0.00  0.00    +0.000 A 
ATOM     23  N   UNL     1      10.408  15.414  18.304  0.00  0.00    +0.000 NA
ATOM     24  C   UNL     1      10.956  16.613  18.562  0.00  0.00    +0.000 A 
ATOM     25  C   UNL     1      11.297  17.026  19.821  0.00  0.00    +0.000 A 
ATOM     26  C   UNL     1      11.020  16.127  20.818  0.00  0.00    +0.000 A 
ATOM     27  N   UNL     1      10.446  14.928  20.606  0.00  0.00    +0.000 NA
ATOM     28  C   UNL     1       9.098  12.502  20.138  0.00  0.00    +0.000 C 
ATOM     29  C   UNL     1       9.747  11.093  20.092  0.00  0.00    +0.000 C 
ENDBRANCH  17  18
ENDBRANCH  16  17
ENDBRANCH   1  16
TORSDOF 7
ENDMDL
MODEL 7
REMARK VINA RESULT:      -6.6      0.762      1.529
REMARK  Name = 
REMARK  8 active torsions:
REMARK  status: ('A' for Active; 'I' for Inactive)
REMARK    1  A    between atoms: C_1  and  O_2
REMARK    2  A    between atoms: O_2  and  C_3
REMARK    3  A    between atoms: C_5  and  N_6
REMARK    4  A    between atoms: C_10  and  C_11
REMARK    5  A    between atoms: C_11  and  O_13
REMARK    6  A    between atoms: O_13  and  C_14
REMARK    7  A    between atoms: C_14  and  C_15
REMARK    8  A    between atoms: C_15  and  N_16
REMARK                            x       y       z     vdW  Elec       q    Type
REMARK                         _______ _______ _______ _____ _____    ______ ____
ROOT
ATOM      1  O   UNL     1       1.862   7.978  17.774  0.00  0.00    +0.000 OA
ENDROOT
BRANCH   1   2
ATOM      2  C   UNL     1       2.510   7.187  18.667  0.00  0.00    +0.000 C 
ATOM      3  O   UNL     1       2.372   7.231  19.881  0.00  0.00    +0.000 OA
BRANCH   2  10
ATOM      4  C   UNL     1       2.906   4.866  17.677  0.00  0.00    +0.000 A 
ATOM      5  C   UNL     1       3.796   3.981  17.043  0.00  0.00    +0.000 A 
ATOM      6  C   UNL     1       5.099   4.370  16.704  0.00  0.00    +0.000 A 
ATOM      7  C   UNL     1       5.533   5.650  17.082  0.00  0.00    +0.000 A 
ATOM      8 CL   UNL     1       7.147   6.169  16.741  0.00  0.00    +0.000 Cl
ATOM      9  C   UNL     1       4.664   6.542  17.705  0.00  0.00    +0.000 A 
ATOM     10  C   UNL     1       3.347   6.154  18.006  0.00  0.00    +0.000 A 
BRANCH   6  11
ATOM     11  N   UNL     1       5.985   3.403  16.195  0.00  0.00    +0.000 N 
ATOM     12  H   UNL     1       5.751   3.055  15.271  0.00  0.00    +0.000 HD
ATOM     13  H   UNL     1       6.962   3.686  16.271  0.00  0.00    +0.000 HD
ENDBRANCH   6  11
BRANCH   4  15
ATOM     14  C   UNL     1       1.361   3.628  19.001  0.00  0.00    +0.000 C 
ATOM     15  O   UNL     1       1.599   4.539  17.931  0.00  0.00    +0.000 OA
ENDBRANCH   4  15
ENDBRANCH   2  10
ENDBRANCH   1   2
BRANCH   1  16
ATOM     16  C   UNL     1       2.016   9.393  17.995  0.00  0.00    +0.000 C 
BRANCH  16  17
ATOM     17  C   UNL     1       0.777   9.982  18.698  0.00  0.00    +0.000 C 
BRANCH  17  18
ATOM     18  N   UNL     1       0.922  11.386  19.138  0.00  0.00    +0.000 NA
ATOM     19  C   UNL     1      -0.203  12.242  18.685  0.00  0.00    +0.000 C 
ATOM     20  C   UNL     1      -1.581  11.840  19.256  0.00  0.00    +0.000 C 
ATOM     21  N   UNL     1      -1.517  11.834  20.715  0.00  0.00    +0.000 N 
ATOM     22  C   UNL     1      -2.355  12.660  21.415  0.00  0.00    +0.000 A 
ATOM     23  N   UNL     1      -3.486  13.075  20.817  0.00  0.00    +0.000 NA
ATOM     24  C   UNL     1      -4.308  13.888  21.502  0.00  0.00    +0.000 A 
ATOM     25  C   UNL     1      -4.038  14.334  22.767  0.00  0.00    +0.000 A 
ATOM     26  C   UNL     1      -2.863  13.873  23.302  0.00  0.00    +0.000 A 
ATOM     27  N   UNL     1      -2.026  13.036  22.661  0.00  0.00    +0.000 NA
ATOM     28  C   UNL     1      -0.387  11.160  21.351  0.00  0.00    +0.000 C 
ATOM     29  C   UNL     1       0.950  11.468  20.626  0.00  0.00    +0.000 C 
ENDBRANCH  17  18
ENDBRANCH  16  17
ENDBRANCH   1  16
TORSDOF 7
ENDMDL
MODEL 8
REMARK VINA RESULT:      -6.5      2.355      2.947
REMARK  Name = 
REMARK  8 active torsions:
REMARK  status: ('A' for Active; 'I' for Inactive)
REMARK    1  A    between atoms: C_1  and  O_2
REMARK    2  A    between atoms: O_2  and  C_3
REMARK    3  A    between atoms: C_5  and  N_6
REMARK    4  A    between atoms: C_10  and  C_11
REMARK    5  A    between atoms: C_11  and  O_13
REMARK    6  A    between atoms: O_13  and  C_14
REMARK    7  A    between atoms: C_14  and  C_15
REMARK    8  A    between atoms: C_15  and  N_16
REMARK                            x       y       z     vdW  Elec       q    Type
REMARK                         _______ _______ _______ _____ _____    ______ ____
ROOT
ATOM      1  O   UNL     1       2.945   7.664  18.118  0.00  0.00    +0.000 OA
ENDROOT
BRANCH   1   2
ATOM      2  C   UNL     1       2.618   6.896  19.188  0.00  0.00    +0.000 C 
ATOM      3  O   UNL     1       2.024   7.286  20.184  0.00  0.00    +0.000 OA
BRANCH   2  10
ATOM      4  C   UNL     1       4.264   4.970  18.864  0.00  0.00    +0.000 A 
ATOM      5  C   UNL     1       4.455   3.589  18.683  0.00  0.00    +0.000 A 
ATOM      6  C   UNL     1       3.376   2.696  18.656  0.00  0.00    +0.000 A 
ATOM      7  C   UNL     1       2.075   3.219  18.735  0.00  0.00    +0.000 A 
ATOM      8 CL   UNL     1       0.699   2.176  18.652  0.00  0.00    +0.000 Cl
ATOM      9  C   UNL     1       1.867   4.584  18.920  0.00  0.00    +0.000 A 
ATOM     10  C   UNL     1       2.959   5.465  18.985  0.00  0.00    +0.000 A 
BRANCH   6  11
ATOM     11  N   UNL     1       3.617   1.347  18.338  0.00  0.00    +0.000 N 
ATOM     12  H   UNL     1       2.864   0.712  18.579  0.00  0.00    +0.000 HD
ATOM     13  H   UNL     1       3.945   1.221  17.381  0.00  0.00    +0.000 HD
ENDBRANCH   6  11
BRANCH   4  15
ATOM     14  C   UNL     1       6.610   5.282  19.132  0.00  0.00    +0.000 C 
ATOM     15  O   UNL     1       5.310   5.848  18.990  0.00  0.00    +0.000 OA
ENDBRANCH   4  15
ENDBRANCH   2  10
ENDBRANCH   1   2
BRANCH   1  16
ATOM     16  C   UNL     1       1.915   8.573  17.687  0.00  0.00    +0.000 C 
BRANCH  16  17
ATOM     17  C   UNL     1       2.091   9.959  18.338  0.00  0.00    +0.000 C 
BRANCH  17  18
ATOM     18  N   UNL     1       0.942  10.874  18.172  0.00  0.00    +0.000 NA
ATOM     19  C   UNL     1      -0.286  10.370  18.838  0.00  0.00    +0.000 C 
ATOM     20  C   UNL     1      -0.169  10.235  20.372  0.00  0.00    +0.000 C 
ATOM     21  N   UNL     1       0.213  11.522  20.945  0.00  0.00    +0.000 N 
ATOM     22  C   UNL     1      -0.621  12.113  21.856  0.00  0.00    +0.000 A 
ATOM     23  N   UNL     1      -1.478  11.330  22.536  0.00  0.00    +0.000 NA
ATOM     24  C   UNL     1      -2.297  11.909  23.430  0.00  0.00    +0.000 A 
ATOM     25  C   UNL     1      -2.321  13.257  23.662  0.00  0.00    +0.000 A 
ATOM     26  C   UNL     1      -1.424  13.985  22.923  0.00  0.00    +0.000 A 
ATOM     27  N   UNL     1      -0.567  13.442  22.039  0.00  0.00    +0.000 NA
ATOM     28  C   UNL     1       1.319  12.249  20.323  0.00  0.00    +0.000 C 
ATOM     29  C   UNL     1       1.241  12.204  18.774  0.00  0.00    +0.000 C 
ENDBRANCH  17  18
ENDBRANCH  16  17
ENDBRANCH   1  16
TORSDOF 7
ENDMDL
MODEL 9
REMARK VINA RESULT:      -6.5      3.017      4.810
REMARK  Name = 
REMARK  8 active torsions:
REMARK  status: ('A' for Active; 'I' for Inactive)
REMARK    1  A    between atoms: C_1  and  O_2
REMARK    2  A    between atoms: O_2  and  C_3
REMARK    3  A    between atoms: C_5  and  N_6
REMARK    4  A    between atoms: C_10  and  C_11
REMARK    5  A    between atoms: C_11  and  O_13
REMARK    6  A    between atoms: O_13  and  C_14
REMARK    7  A    between atoms: C_14  and  C_15
REMARK    8  A    between atoms: C_15  and  N_16
REMARK                            x       y       z     vdW  Elec       q    Type
REMARK                         _______ _______ _______ _____ _____    ______ ____
ROOT
ATOM      1  O   UNL     1       5.036   3.530  18.668  0.00  0.00    +0.000 OA
ENDROOT
BRANCH   1   2
ATOM      2  C   UNL     1       4.542   3.553  17.404  0.00  0.00    +0.000 C 
ATOM      3  O   UNL     1       3.407   3.231  17.082  0.00  0.00    +0.000 OA
BRANCH   2  10
ATOM      4  C   UNL     1       6.459   5.106  16.741  0.00  0.00    +0.000 A 
ATOM      5  C   UNL     1       7.319   5.565  15.728  0.00  0.00    +0.000 A 
ATOM      6  C   UNL     1       7.263   5.046  14.427  0.00  0.00    +0.000 A 
ATOM      7  C   UNL     1       6.268   4.102  14.128  0.00  0.00    +0.000 A 
ATOM      8 CL   UNL     1       6.112   3.464  12.529  0.00  0.00    +0.000 Cl
ATOM      9  C   UNL     1       5.412   3.631  15.120  0.00  0.00    +0.000 A 
ATOM     10  C   UNL     1       5.503   4.130  16.430  0.00  0.00    +0.000 A 
BRANCH   6  11
ATOM     11  N   UNL     1       8.054   5.638  13.425  0.00  0.00    +0.000 N 
ATOM     12  H   UNL     1       7.868   6.621  13.262  0.00  0.00    +0.000 HD
ATOM     13  H   UNL     1       9.047   5.440  13.541  0.00  0.00    +0.000 HD
ENDBRANCH   6  11
BRANCH   4  15
ATOM     14  C   UNL     1       7.635   6.414  18.346  0.00  0.00    +0.000 C 
ATOM     15  O   UNL     1       6.560   5.529  18.041  0.00  0.00    +0.000 OA
ENDBRANCH   4  15
ENDBRANCH   2  10
ENDBRANCH   1   2
BRANCH   1  16
ATOM     16  C   UNL     1       4.057   3.730  19.705  0.00  0.00    +0.000 C 
BRANCH  16  17
ATOM     17  C   UNL     1       3.578   5.194  19.740  0.00  0.00    +0.000 C 
BRANCH  17  18
ATOM     18  N   UNL     1       2.168   5.396  19.346  0.00  0.00    +0.000 NA
ATOM     19  C   UNL     1       1.351   5.980  20.440  0.00  0.00    +0.000 C 
ATOM     20  C   UNL     1       1.794   7.392  20.883  0.00  0.00    +0.000 C 
ATOM     21  N   UNL     1       1.789   8.286  19.729  0.00  0.00    +0.000 N 
ATOM     22  C   UNL     1       0.985   9.394  19.756  0.00  0.00    +0.000 A 
ATOM     23  N   UNL     1       0.610   9.880  20.953  0.00  0.00    +0.000 NA
ATOM     24  C   UNL     1      -0.180  10.966  20.981  0.00  0.00    +0.000 A 
ATOM     25  C   UNL     1      -0.642  11.586  19.853  0.00  0.00    +0.000 A 
ATOM     26  C   UNL     1      -0.222  11.026  18.674  0.00  0.00    +0.000 A 
ATOM     27  N   UNL     1       0.592   9.956  18.601  0.00  0.00    +0.000 NA
ATOM     28  C   UNL     1       2.422   7.820  18.497  0.00  0.00    +0.000 C 
ATOM     29  C   UNL     1       2.077   6.338  18.194  0.00  0.00    +0.000 C 
ENDBRANCH  17  18
ENDBRANCH  16  17
ENDBRANCH   1  16
TORSDOF 7
ENDMDL
