MODEL 1
REMARK VINA RESULT:      -8.3      0.000      0.000
REMARK  Name = 
REMARK  8 active torsions:
REMARK  status: ('A' for Active; 'I' for Inactive)
REMARK    1  A    between atoms: C_1  and  C_2
REMARK    2  A    between atoms: C_3  and  C_4
REMARK    3  A    between atoms: C_4  and  C_5
REMARK    4  A    between atoms: C_5  and  N_6
REMARK    5  A    between atoms: N_19  and  C_20
REMARK    6  A    between atoms: C_20  and  C_21
REMARK    7  A    between atoms: N_23  and  C_24
REMARK    8  A    between atoms: C_24  and  C_25
REMARK                            x       y       z     vdW  Elec       q    Type
REMARK                         _______ _______ _______ _____ _____    ______ ____
ROOT
ATOM      1  C   UNL     1       4.628   5.654  18.781  0.00  0.00    +0.000 C 
ATOM      2  C   UNL     1       5.137   5.281  17.424  0.00  0.00    +0.000 A 
ATOM      3  C   UNL     1       4.902   4.140  16.677  0.00  0.00    +0.000 A 
ATOM      4  C   UNL     1       5.599   4.273  15.443  0.00  0.00    +0.000 A 
ATOM      5  C   UNL     1       5.705   3.423  14.315  0.00  0.00    +0.000 A 
ATOM      6  C   UNL     1       6.507   3.783  13.241  0.00  0.00    +0.000 A 
ATOM      7 CL   UNL     1       6.649   2.731  11.885  0.00  0.00    +0.000 Cl
ATOM      8  C   UNL     1       7.225   4.959  13.274  0.00  0.00    +0.000 A 
ATOM      9  C   UNL     1       7.171   5.793  14.402  0.00  0.00    +0.000 A 
ATOM     10  C   UNL     1       6.321   5.474  15.483  0.00  0.00    +0.000 A 
ATOM     11  N   UNL     1       6.009   6.078  16.704  0.00  0.00    +0.000 N 
ENDROOT
BRANCH   3  12
ATOM     12  C   UNL     1       4.112   2.941  17.083  0.00  0.00    +0.000 C 
BRANCH  12  13
ATOM     13  C   UNL     1       2.659   3.263  17.444  0.00  0.00    +0.000 C 
BRANCH  13  14
ATOM     14  N   UNL     1       2.357   3.291  18.877  0.00  0.00    +0.000 NA
ATOM     15  C   UNL     1       0.960   2.944  19.190  0.00  0.00    +0.000 C 
ATOM     16  C   UNL     1       0.703   3.193  20.680  0.00  0.00    +0.000 C 
ATOM     17  O   UNL     1       1.584   2.405  21.496  0.00  0.00    +0.000 OA
ATOM     18  C   UNL     1       2.956   2.685  21.173  0.00  0.00    +0.000 C 
ATOM     19  C   UNL     1       3.243   2.434  19.684  0.00  0.00    +0.000 C 
ENDBRANCH  13  14
ENDBRANCH  12  13
ENDBRANCH   3  12
BRANCH  11  20
ATOM     20  C   UNL     1       6.586   7.292  17.283  0.00  0.00    +0.000 C 
BRANCH  20  21
ATOM     21  C   UNL     1       7.775   7.042  18.210  0.00  0.00    +0.000 C 
ATOM     22  O   UNL     1       8.032   5.923  18.656  0.00  0.00    +0.000 OA
ATOM     23  N   UNL     1       8.622   8.068  18.512  0.00  0.00    +0.000 N 
ATOM     24  H   UNL     1       9.360   7.836  19.166  0.00  0.00    +0.000 HD
BRANCH  23  25
ATOM     25  C   UNL     1       8.327   9.438  18.282  0.00  0.00    +0.000 C 
BRANCH  25  26
ATOM     26  C   UNL     1       9.344  10.394  18.796  0.00  0.00    +0.000 A 
ATOM     27  C   UNL     1      10.256  11.011  17.898  0.00  0.00    +0.000 A 
ATOM     28  C   UNL     1      10.993  12.122  18.291  0.00  0.00    +0.000 A 
ATOM     29  C   UNL     1      10.772  12.593  19.567  0.00  0.00    +0.000 A 
ATOM     30  C   UNL     1       9.937  11.948  20.457  0.00  0.00    +0.000 A 
ATOM     31  C   UNL     1       9.235  10.823  20.121  0.00  0.00    +0.000 A 
ATOM     32  O   UNL     1       9.802  12.623  21.625  0.00  0.00    +0.000 OA
ATOM     33  C   UNL     1      10.386  13.881  21.235  0.00  0.00    +0.000 C 
ATOM     34  O   UNL     1      11.244  13.761  20.081  0.00  0.00    +0.000 OA
ENDBRANCH  25  26
ENDBRANCH  23  25
ENDBRANCH  20  21
ENDBRANCH  11  20
TORSDOF 7
ENDMDL
MODEL 2
REMARK VINA RESULT:      -8.3      0.700      1.092
REMARK  Name = 
REMARK  8 active torsions:
REMARK  status: ('A' for Active; 'I' for Inactive)
REMARK    1  A    between atoms: C_1  and  C_2
REMARK    2  A    between atoms: C_3  and  C_4
REMARK    3  A    between atoms: C_4  and  C_5
REMARK    4  A    between atoms: C_5  and  N_6
REMARK    5  A    between atoms: N_19  and  C_20
REMARK    6  A    between atoms: C_20  and  C_21
REMARK    7  A    between atoms: N_23  and  C_24
REMARK    8  A    between atoms: C_24  and  C_25
REMARK                            x       y       z     vdW  Elec       q    Type
REMARK                         _______ _______ _______ _____ _____    ______ ____
ROOT
ATOM      1  C   UNL     1       3.583   5.959  18.913  0.00  0.00    +0.000 C 
ATOM      2  C   UNL     1       4.279   5.528  17.659  0.00  0.00    +0.000 A 
ATOM      3  C   UNL     1       3.999   4.468  16.815  0.00  0.00    +0.000 A 
ATOM      4  C   UNL     1       4.942   4.496  15.750  0.00  0.00    +0.000 A 
ATOM      5  C   UNL     1       5.119   3.667  14.615  0.00  0.00    +0.000 A 
ATOM      6  C   UNL     1       6.171   3.895  13.738  0.00  0.00    +0.000 A 
ATOM      7 CL   UNL     1       6.393   2.866  12.376  0.00  0.00    +0.000 Cl
ATOM      8  C   UNL     1       7.065   4.916  13.979  0.00  0.00    +0.000 A 
ATOM      9  C   UNL     1       6.936   5.720  15.122  0.00  0.00    +0.000 A 
ATOM     10  C   UNL     1       5.843   5.540  15.999  0.00  0.00    +0.000 A 
ATOM     11  N   UNL     1       5.406   6.165  17.170  0.00  0.00    +0.000 N 
ENDROOT
BRANCH   3  12
ATOM     12  C   UNL     1       2.943   3.428  16.990  0.00  0.00    +0.000 C 
BRANCH  12  13
ATOM     13  C   UNL     1       3.367   2.278  17.908  0.00  0.00    +0.000 C 
BRANCH  13  14
ATOM     14  N   UNL     1       2.731   2.259  19.227  0.00  0.00    +0.000 NA
ATOM     15  C   UNL     1       3.679   2.451  20.339  0.00  0.00    +0.000 C 
ATOM     16  C   UNL     1       2.949   2.219  21.667  0.00  0.00    +0.000 C 
ATOM     17  O   UNL     1       1.847   3.128  21.817  0.00  0.00    +0.000 OA
ATOM     18  C   UNL     1       0.933   3.000  20.716  0.00  0.00    +0.000 C 
ATOM     19  C   UNL     1       1.638   3.236  19.371  0.00  0.00    +0.000 C 
ENDBRANCH  13  14
ENDBRANCH  12  13
ENDBRANCH   3  12
BRANCH  11  20
ATOM     20  C   UNL     1       6.061   7.236  17.919  0.00  0.00    +0.000 C 
BRANCH  20  21
ATOM     21  C   UNL     1       7.507   6.934  18.314  0.00  0.00    +0.000 C 
ATOM     22  O   UNL     1       7.859   5.820  18.703  0.00  0.00    +0.000 OA
ATOM     23  N   UNL     1       8.459   7.901  18.178  0.00  0.00    +0.000 N 
ATOM     24  H   UNL     1       9.384   7.641  18.500  0.00  0.00    +0.000 HD
BRANCH  23  25
ATOM     25  C   UNL     1       8.173   9.279  17.983  0.00  0.00    +0.000 C 
BRANCH  25  26
ATOM     26  C   UNL     1       9.128  10.216  18.633  0.00  0.00    +0.000 A 
ATOM     27  C   UNL     1       9.994  11.012  17.836  0.00  0.00    +0.000 A 
ATOM     28  C   UNL     1      10.659  12.102  18.387  0.00  0.00    +0.000 A 
ATOM     29  C   UNL     1      10.413  12.371  19.716  0.00  0.00    +0.000 A 
ATOM     30  C   UNL     1       9.626  11.553  20.501  0.00  0.00    +0.000 A 
ATOM     31  C   UNL     1       8.997  10.444  20.004  0.00  0.00    +0.000 A 
ATOM     32  O   UNL     1       9.452  12.046  21.752  0.00  0.00    +0.000 OA
ATOM     33  C   UNL     1       9.952  13.381  21.548  0.00  0.00    +0.000 C 
ATOM     34  O   UNL     1      10.810  13.483  20.393  0.00  0.00    +0.000 OA
ENDBRANCH  25  26
ENDBRANCH  23  25
ENDBRANCH  20  21
ENDBRANCH  11  20
TORSDOF 7
ENDMDL
MODEL 3
REMARK VINA RESULT:      -8.2      8.097     10.591
REMARK  Name = 
REMARK  8 active torsions:
REMARK  status: ('A' for Active; 'I' for Inactive)
REMARK    1  A    between atoms: C_1  and  C_2
REMARK    2  A    between atoms: C_3  and  C_4
REMARK    3  A    between atoms: C_4  and  C_5
REMARK    4  A    between atoms: C_5  and  N_6
REMARK    5  A    between atoms: N_19  and  C_20
REMARK    6  A    between atoms: C_20  and  C_21
REMARK    7  A    between atoms: N_23  and  C_24
REMARK    8  A    between atoms: C_24  and  C_25
REMARK                            x       y       z     vdW  Elec       q    Type
REMARK                         _______ _______ _______ _____ _____    ______ ____
ROOT
ATOM      1  C   UNL     1       1.403  11.970  20.772  0.00  0.00    +0.000 C 
ATOM      2  C   UNL     1       0.131  11.682  20.038  0.00  0.00    +0.000 A 
ATOM      3  C   UNL     1      -1.048  12.405  19.997  0.00  0.00    +0.000 A 
ATOM      4  C   UNL     1      -1.953  11.720  19.139  0.00  0.00    +0.000 A 
ATOM      5  C   UNL     1      -3.280  12.007  18.732  0.00  0.00    +0.000 A 
ATOM      6  C   UNL     1      -3.965  11.126  17.907  0.00  0.00    +0.000 A 
ATOM      7 CL   UNL     1      -5.585  11.471  17.440  0.00  0.00    +0.000 Cl
ATOM      8  C   UNL     1      -3.368   9.954  17.497  0.00  0.00    +0.000 A 
ATOM      9  C   UNL     1      -2.072   9.627  17.925  0.00  0.00    +0.000 A 
ATOM     10  C   UNL     1      -1.336  10.533  18.721  0.00  0.00    +0.000 A 
ATOM     11  N   UNL     1      -0.054  10.540  19.276  0.00  0.00    +0.000 N 
ENDROOT
BRANCH   3  12
ATOM     12  C   UNL     1      -1.367  13.654  20.749  0.00  0.00    +0.000 C 
BRANCH  12  13
ATOM     13  C   UNL     1      -1.336  13.474  22.269  0.00  0.00    +0.000 C 
BRANCH  13  14
ATOM     14  N   UNL     1      -2.645  13.436  22.926  0.00  0.00    +0.000 NA
ATOM     15  C   UNL     1      -3.759  13.811  22.038  0.00  0.00    +0.000 C 
ATOM     16  C   UNL     1      -5.043  13.929  22.866  0.00  0.00    +0.000 C 
ATOM     17  O   UNL     1      -5.352  12.689  23.521  0.00  0.00    +0.000 OA
ATOM     18  C   UNL     1      -4.258  12.272  24.354  0.00  0.00    +0.000 C 
ATOM     19  C   UNL     1      -2.958  12.137  23.545  0.00  0.00    +0.000 C 
ENDBRANCH  13  14
ENDBRANCH  12  13
ENDBRANCH   3  12
BRANCH  11  20
ATOM     20  C   UNL     1       0.951   9.478  19.239  0.00  0.00    +0.000 C 
BRANCH  20  21
ATOM     21  C   UNL     1       1.917   9.568  18.058  0.00  0.00    +0.000 C 
ATOM     22  O   UNL     1       2.061  10.605  17.409  0.00  0.00    +0.000 OA
ATOM     23  N   UNL     1       2.695   8.493  17.740  0.00  0.00    +0.000 N 
ATOM     24  H   UNL     1       3.278   8.613  16.921  0.00  0.00    +0.000 HD
BRANCH  23  25
ATOM     25  C   UNL     1       2.472   7.177  18.226  0.00  0.00    +0.000 C 
BRANCH  25  26
ATOM     26  C   UNL     1       3.480   6.170  17.796  0.00  0.00    +0.000 A 
ATOM     27  C   UNL     1       3.134   4.793  17.758  0.00  0.00    +0.000 A 
ATOM     28  C   UNL     1       3.932   3.883  17.074  0.00  0.00    +0.000 A 
ATOM     29  C   UNL     1       5.040   4.390  16.430  0.00  0.00    +0.000 A 
ATOM     30  C   UNL     1       5.407   5.717  16.529  0.00  0.00    +0.000 A 
ATOM     31  C   UNL     1       4.673   6.631  17.235  0.00  0.00    +0.000 A 
ATOM     32  O   UNL     1       6.478   6.018  15.754  0.00  0.00    +0.000 OA
ATOM     33  C   UNL     1       6.526   4.825  14.950  0.00  0.00    +0.000 C 
ATOM     34  O   UNL     1       5.840   3.713  15.563  0.00  0.00    +0.000 OA
ENDBRANCH  25  26
ENDBRANCH  23  25
ENDBRANCH  20  21
ENDBRANCH  11  20
TORSDOF 7
ENDMDL
MODEL 4
REMARK VINA RESULT:      -8.1      5.956      9.603
REMARK  Name = 
REMARK  8 active torsions:
REMARK  status: ('A' for Active; 'I' for Inactive)
REMARK    1  A    between atoms: C_1  and  C_2
REMARK    2  A    between atoms: C_3  and  C_4
REMARK    3  A    between atoms: C_4  and  C_5
REMARK    4  A    between atoms: C_5  and  N_6
REMARK    5  A    between atoms: N_19  and  C_20
REMARK    6  A    between atoms: C_20  and  C_21
REMARK    7  A    between atoms: N_23  and  C_24
REMARK    8  A    between atoms: C_24  and  C_25
REMARK                            x       y       z     vdW  Elec       q    Type
REMARK                         _______ _______ _______ _____ _____    ______ ____
ROOT
ATOM      1  C   UNL     1       2.919   7.738  17.690  0.00  0.00    +0.000 C 
ATOM      2  C   UNL     1       2.101   8.293  18.814  0.00  0.00    +0.000 A 
ATOM      3  C   UNL     1       1.391   9.478  18.886  0.00  0.00    +0.000 A 
ATOM      4  C   UNL     1       0.764   9.536  20.163  0.00  0.00    +0.000 A 
ATOM      5  C   UNL     1      -0.077  10.502  20.766  0.00  0.00    +0.000 A 
ATOM      6  C   UNL     1      -0.521  10.329  22.070  0.00  0.00    +0.000 A 
ATOM      7 CL   UNL     1      -1.522  11.522  22.802  0.00  0.00    +0.000 Cl
ATOM      8  C   UNL     1      -0.126   9.226  22.795  0.00  0.00    +0.000 A 
ATOM      9  C   UNL     1       0.745   8.279  22.234  0.00  0.00    +0.000 A 
ATOM     10  C   UNL     1       1.166   8.408  20.891  0.00  0.00    +0.000 A 
ATOM     11  N   UNL     1       1.975   7.656  20.036  0.00  0.00    +0.000 N 
ENDROOT
BRANCH   3  12
ATOM     12  C   UNL     1       1.318  10.552  17.853  0.00  0.00    +0.000 C 
BRANCH  12  13
ATOM     13  C   UNL     1       2.354  11.661  18.055  0.00  0.00    +0.000 C 
BRANCH  13  14
ATOM     14  N   UNL     1       1.841  12.905  18.631  0.00  0.00    +0.000 NA
ATOM     15  C   UNL     1       2.602  14.100  18.226  0.00  0.00    +0.000 C 
ATOM     16  C   UNL     1       2.110  15.307  19.031  0.00  0.00    +0.000 C 
ATOM     17  O   UNL     1       0.709  15.538  18.813  0.00  0.00    +0.000 OA
ATOM     18  C   UNL     1      -0.054  14.368  19.151  0.00  0.00    +0.000 C 
ATOM     19  C   UNL     1       0.414  13.143  18.349  0.00  0.00    +0.000 C 
ENDBRANCH  13  14
ENDBRANCH  12  13
ENDBRANCH   3  12
BRANCH  11  20
ATOM     20  C   UNL     1       2.738   6.447  20.347  0.00  0.00    +0.000 C 
BRANCH  20  21
ATOM     21  C   UNL     1       2.108   5.155  19.829  0.00  0.00    +0.000 C 
ATOM     22  O   UNL     1       0.894   4.955  19.877  0.00  0.00    +0.000 OA
ATOM     23  N   UNL     1       2.895   4.211  19.235  0.00  0.00    +0.000 N 
ATOM     24  H   UNL     1       2.413   3.365  18.956  0.00  0.00    +0.000 HD
BRANCH  23  25
ATOM     25  C   UNL     1       4.312   4.185  19.325  0.00  0.00    +0.000 C 
BRANCH  25  26
ATOM     26  C   UNL     1       5.025   4.806  18.176  0.00  0.00    +0.000 A 
ATOM     27  C   UNL     1       6.217   5.546  18.397  0.00  0.00    +0.000 A 
ATOM     28  C   UNL     1       7.059   5.863  17.337  0.00  0.00    +0.000 A 
ATOM     29  C   UNL     1       6.689   5.404  16.092  0.00  0.00    +0.000 A 
ATOM     30  C   UNL     1       5.495   4.745  15.874  0.00  0.00    +0.000 A 
ATOM     31  C   UNL     1       4.618   4.462  16.885  0.00  0.00    +0.000 A 
ATOM     32  O   UNL     1       5.367   4.312  14.595  0.00  0.00    +0.000 OA
ATOM     33  C   UNL     1       6.724   4.500  14.149  0.00  0.00    +0.000 C 
ATOM     34  O   UNL     1       7.452   5.441  14.966  0.00  0.00    +0.000 OA
ENDBRANCH  25  26
ENDBRANCH  23  25
ENDBRANCH  20  21
ENDBRANCH  11  20
TORSDOF 7
ENDMDL
MODEL 5
REMARK VINA RESULT:      -8.1      8.420     11.372
REMARK  Name = 
REMARK  8 active torsions:
REMARK  status: ('A' for Active; 'I' for Inactive)
REMARK    1  A    between atoms: C_1  and  C_2
REMARK    2  A    between atoms: C_3  and  C_4
REMARK    3  A    between atoms: C_4  and  C_5
REMARK    4  A    between atoms: C_5  and  N_6
REMARK    5  A    between atoms: N_19  and  C_20
REMARK    6  A    between atoms: C_20  and  C_21
REMARK    7  A    between atoms: N_23  and  C_24
REMARK    8  A    between atoms: C_24  and  C_25
REMARK                            x       y       z     vdW  Elec       q    Type
REMARK                         _______ _______ _______ _____ _____    ______ ____
ROOT
ATOM      1  C   UNL     1       0.181   9.870  18.039  0.00  0.00    +0.000 C 
ATOM      2  C   UNL     1      -0.611  10.650  19.042  0.00  0.00    +0.000 A 
ATOM      3  C   UNL     1      -1.793  11.352  18.880  0.00  0.00    +0.000 A 
ATOM      4  C   UNL     1      -2.150  11.905  20.142  0.00  0.00    +0.000 A 
ATOM      5  C   UNL     1      -3.250  12.696  20.556  0.00  0.00    +0.000 A 
ATOM      6  C   UNL     1      -3.332  13.150  21.865  0.00  0.00    +0.000 A 
ATOM      7 CL   UNL     1      -4.659  14.132  22.352  0.00  0.00    +0.000 Cl
ATOM      8  C   UNL     1      -2.331  12.854  22.766  0.00  0.00    +0.000 A 
ATOM      9  C   UNL     1      -1.210  12.111  22.365  0.00  0.00    +0.000 A 
ATOM     10  C   UNL     1      -1.131  11.594  21.053  0.00  0.00    +0.000 A 
ATOM     11  N   UNL     1      -0.206  10.813  20.355  0.00  0.00    +0.000 N 
ENDROOT
BRANCH   3  12
ATOM     12  C   UNL     1      -2.553  11.560  17.613  0.00  0.00    +0.000 C 
BRANCH  12  13
ATOM     13  C   UNL     1      -3.586  10.465  17.336  0.00  0.00    +0.000 C 
BRANCH  13  14
ATOM     14  N   UNL     1      -4.986  10.872  17.465  0.00  0.00    +0.000 NA
ATOM     15  C   UNL     1      -5.595  10.482  18.749  0.00  0.00    +0.000 C 
ATOM     16  C   UNL     1      -7.099  10.778  18.702  0.00  0.00    +0.000 C 
ATOM     17  O   UNL     1      -7.344  12.173  18.462  0.00  0.00    +0.000 OA
ATOM     18  C   UNL     1      -6.714  12.593  17.241  0.00  0.00    +0.000 C 
ATOM     19  C   UNL     1      -5.203  12.316  17.266  0.00  0.00    +0.000 C 
ENDBRANCH  13  14
ENDBRANCH  12  13
ENDBRANCH   3  12
BRANCH  11  20
ATOM     20  C   UNL     1       1.094  10.327  20.817  0.00  0.00    +0.000 C 
BRANCH  20  21
ATOM     21  C   UNL     1       1.028   9.045  21.647  0.00  0.00    +0.000 C 
ATOM     22  O   UNL     1       0.611   9.037  22.805  0.00  0.00    +0.000 OA
ATOM     23  N   UNL     1       1.378   7.855  21.078  0.00  0.00    +0.000 N 
ATOM     24  H   UNL     1       1.349   7.057  21.702  0.00  0.00    +0.000 HD
BRANCH  23  25
ATOM     25  C   UNL     1       2.097   7.736  19.859  0.00  0.00    +0.000 C 
BRANCH  25  26
ATOM     26  C   UNL     1       2.345   6.339  19.411  0.00  0.00    +0.000 A 
ATOM     27  C   UNL     1       2.879   6.094  18.117  0.00  0.00    +0.000 A 
ATOM     28  C   UNL     1       3.408   4.849  17.795  0.00  0.00    +0.000 A 
ATOM     29  C   UNL     1       3.404   3.897  18.791  0.00  0.00    +0.000 A 
ATOM     30  C   UNL     1       2.821   4.120  20.022  0.00  0.00    +0.000 A 
ATOM     31  C   UNL     1       2.247   5.317  20.356  0.00  0.00    +0.000 A 
ATOM     32  O   UNL     1       3.002   3.084  20.878  0.00  0.00    +0.000 OA
ATOM     33  C   UNL     1       4.007   2.354  20.149  0.00  0.00    +0.000 C 
ATOM     34  O   UNL     1       4.032   2.691  18.746  0.00  0.00    +0.000 OA
ENDBRANCH  25  26
ENDBRANCH  23  25
ENDBRANCH  20  21
ENDBRANCH  11  20
TORSDOF 7
ENDMDL
MODEL 6
REMARK VINA RESULT:      -8.0      7.333     11.852
REMARK  Name = 
REMARK  8 active torsions:
REMARK  status: ('A' for Active; 'I' for Inactive)
REMARK    1  A    between atoms: C_1  and  C_2
REMARK    2  A    between atoms: C_3  and  C_4
REMARK    3  A    between atoms: C_4  and  C_5
REMARK    4  A    between atoms: C_5  and  N_6
REMARK    5  A    between atoms: N_19  and  C_20
REMARK    6  A    between atoms: C_20  and  C_21
REMARK    7  A    between atoms: N_23  and  C_24
REMARK    8  A    between atoms: C_24  and  C_25
REMARK                            x       y       z     vdW  Elec       q    Type
REMARK                         _______ _______ _______ _____ _____    ______ ____
ROOT
ATOM      1  C   UNL     1       1.127  10.167  18.288  0.00  0.00    +0.000 C 
ATOM      2  C   UNL     1       0.633  11.139  19.315  0.00  0.00    +0.000 A 
ATOM      3  C   UNL     1       0.683  12.521  19.317  0.00  0.00    +0.000 A 
ATOM      4  C   UNL     1       0.060  12.981  20.512  0.00  0.00    +0.000 A 
ATOM      5  C   UNL     1      -0.174  14.281  21.023  0.00  0.00    +0.000 A 
ATOM      6  C   UNL     1      -0.774  14.448  22.263  0.00  0.00    +0.000 A 
ATOM      7 CL   UNL     1      -1.030  16.033  22.886  0.00  0.00    +0.000 Cl
ATOM      8  C   UNL     1      -1.125  13.350  23.017  0.00  0.00    +0.000 A 
ATOM      9  C   UNL     1      -0.860  12.052  22.551  0.00  0.00    +0.000 A 
ATOM     10  C   UNL     1      -0.299  11.858  21.269  0.00  0.00    +0.000 A 
ATOM     11  N   UNL     1       0.052  10.741  20.507  0.00  0.00    +0.000 N 
ENDROOT
BRANCH   3  12
ATOM     12  C   UNL     1       1.318  13.404  18.295  0.00  0.00    +0.000 C 
BRANCH  12  13
ATOM     13  C   UNL     1       2.848  13.371  18.329  0.00  0.00    +0.000 C 
BRANCH  13  14
ATOM     14  N   UNL     1       3.494  14.596  18.805  0.00  0.00    +0.000 NA
ATOM     15  C   UNL     1       4.703  14.958  18.044  0.00  0.00    +0.000 C 
ATOM     16  C   UNL     1       5.403  16.130  18.740  0.00  0.00    +0.000 C 
ATOM     17  O   UNL     1       4.535  17.272  18.827  0.00  0.00    +0.000 OA
ATOM     18  C   UNL     1       3.323  16.933  19.519  0.00  0.00    +0.000 C 
ATOM     19  C   UNL     1       2.596  15.764  18.836  0.00  0.00    +0.000 C 
ENDBRANCH  13  14
ENDBRANCH  12  13
ENDBRANCH   3  12
BRANCH  11  20
ATOM     20  C   UNL     1      -0.008   9.331  20.891  0.00  0.00    +0.000 C 
BRANCH  20  21
ATOM     21  C   UNL     1       1.143   8.874  21.788  0.00  0.00    +0.000 C 
ATOM     22  O   UNL     1       1.363   9.392  22.883  0.00  0.00    +0.000 OA
ATOM     23  N   UNL     1       1.921   7.821  21.403  0.00  0.00    +0.000 N 
ATOM     24  H   UNL     1       2.689   7.605  22.027  0.00  0.00    +0.000 HD
BRANCH  23  25
ATOM     25  C   UNL     1       1.949   7.291  20.085  0.00  0.00    +0.000 C 
BRANCH  25  26
ATOM     26  C   UNL     1       2.151   5.819  20.005  0.00  0.00    +0.000 A 
ATOM     27  C   UNL     1       1.315   4.947  20.753  0.00  0.00    +0.000 A 
ATOM     28  C   UNL     1       1.272   3.588  20.462  0.00  0.00    +0.000 A 
ATOM     29  C   UNL     1       2.053   3.154  19.413  0.00  0.00    +0.000 A 
ATOM     30  C   UNL     1       2.914   3.994  18.737  0.00  0.00    +0.000 A 
ATOM     31  C   UNL     1       3.020   5.326  19.030  0.00  0.00    +0.000 A 
ATOM     32  O   UNL     1       3.525   3.381  17.693  0.00  0.00    +0.000 OA
ATOM     33  C   UNL     1       2.719   2.189  17.619  0.00  0.00    +0.000 C 
ATOM     34  O   UNL     1       2.019   1.915  18.851  0.00  0.00    +0.000 OA
ENDBRANCH  25  26
ENDBRANCH  23  25
ENDBRANCH  20  21
ENDBRANCH  11  20
TORSDOF 7
ENDMDL
MODEL 7
REMARK VINA RESULT:      -8.0      8.237     10.657
REMARK  Name = 
REMARK  8 active torsions:
REMARK  status: ('A' for Active; 'I' for Inactive)
REMARK    1  A    between atoms: C_1  and  C_2
REMARK    2  A    between atoms: C_3  and  C_4
REMARK    3  A    between atoms: C_4  and  C_5
REMARK    4  A    between atoms: C_5  and  N_6
REMARK    5  A    between atoms: N_19  and  C_20
REMARK    6  A    between atoms: C_20  and  C_21
REMARK    7  A    between atoms: N_23  and  C_24
REMARK    8  A    between atoms: C_24  and  C_25
REMARK                            x       y       z     vdW  Elec       q    Type
REMARK                         _______ _______ _______ _____ _____    ______ ____
ROOT
ATOM      1  C   UNL     1       1.488  11.948  20.629  0.00  0.00    +0.000 C 
ATOM      2  C   UNL     1       0.221  11.662  19.885  0.00  0.00    +0.000 A 
ATOM      3  C   UNL     1      -1.058  12.144  20.102  0.00  0.00    +0.000 A 
ATOM      4  C   UNL     1      -1.911  11.587  19.109  0.00  0.00    +0.000 A 
ATOM      5  C   UNL     1      -3.295  11.737  18.851  0.00  0.00    +0.000 A 
ATOM      6  C   UNL     1      -3.898  11.026  17.822  0.00  0.00    +0.000 A 
ATOM      7 CL   UNL     1      -5.586  11.197  17.534  0.00  0.00    +0.000 Cl
ATOM      8  C   UNL     1      -3.157  10.149  17.059  0.00  0.00    +0.000 A 
ATOM      9  C   UNL     1      -1.794   9.950  17.327  0.00  0.00    +0.000 A 
ATOM     10  C   UNL     1      -1.149  10.702  18.333  0.00  0.00    +0.000 A 
ATOM     11  N   UNL     1       0.158  10.777  18.822  0.00  0.00    +0.000 N 
ENDROOT
BRANCH   3  12
ATOM     12  C   UNL     1      -1.509  13.042  21.205  0.00  0.00    +0.000 C 
BRANCH  12  13
ATOM     13  C   UNL     1      -2.100  12.290  22.400  0.00  0.00    +0.000 C 
BRANCH  13  14
ATOM     14  N   UNL     1      -3.246  12.934  23.046  0.00  0.00    +0.000 NA
ATOM     15  C   UNL     1      -3.062  14.380  23.263  0.00  0.00    +0.000 C 
ATOM     16  C   UNL     1      -4.222  14.912  24.112  0.00  0.00    +0.000 C 
ATOM     17  O   UNL     1      -5.484  14.684  23.464  0.00  0.00    +0.000 OA
ATOM     18  C   UNL     1      -5.666  13.285  23.191  0.00  0.00    +0.000 C 
ATOM     19  C   UNL     1      -4.519  12.728  22.333  0.00  0.00    +0.000 C 
ENDBRANCH  13  14
ENDBRANCH  12  13
ENDBRANCH   3  12
BRANCH  11  20
ATOM     20  C   UNL     1       1.314   9.969  18.435  0.00  0.00    +0.000 C 
BRANCH  20  21
ATOM     21  C   UNL     1       1.531   8.726  19.299  0.00  0.00    +0.000 C 
ATOM     22  O   UNL     1       0.942   8.563  20.368  0.00  0.00    +0.000 OA
ATOM     23  N   UNL     1       2.352   7.731  18.855  0.00  0.00    +0.000 N 
ATOM     24  H   UNL     1       2.479   6.961  19.500  0.00  0.00    +0.000 HD
BRANCH  23  25
ATOM     25  C   UNL     1       3.274   7.877  17.784  0.00  0.00    +0.000 C 
BRANCH  25  26
ATOM     26  C   UNL     1       4.083   6.666  17.483  0.00  0.00    +0.000 A 
ATOM     27  C   UNL     1       3.513   5.374  17.645  0.00  0.00    +0.000 A 
ATOM     28  C   UNL     1       4.122   4.258  17.083  0.00  0.00    +0.000 A 
ATOM     29  C   UNL     1       5.272   4.479  16.356  0.00  0.00    +0.000 A 
ATOM     30  C   UNL     1       5.857   5.725  16.261  0.00  0.00    +0.000 A 
ATOM     31  C   UNL     1       5.312   6.838  16.844  0.00  0.00    +0.000 A 
ATOM     32  O   UNL     1       6.931   5.733  15.435  0.00  0.00    +0.000 OA
ATOM     33  C   UNL     1       6.750   4.450  14.805  0.00  0.00    +0.000 C 
ATOM     34  O   UNL     1       5.914   3.565  15.579  0.00  0.00    +0.000 OA
ENDBRANCH  25  26
ENDBRANCH  23  25
ENDBRANCH  20  21
ENDBRANCH  11  20
TORSDOF 7
ENDMDL
MODEL 8
REMARK VINA RESULT:      -8.0      8.122     10.648
REMARK  Name = 
REMARK  8 active torsions:
REMARK  status: ('A' for Active; 'I' for Inactive)
REMARK    1  A    between atoms: C_1  and  C_2
REMARK    2  A    between atoms: C_3  and  C_4
REMARK    3  A    between atoms: C_4  and  C_5
REMARK    4  A    between atoms: C_5  and  N_6
REMARK    5  A    between atoms: N_19  and  C_20
REMARK    6  A    between atoms: C_20  and  C_21
REMARK    7  A    between atoms: N_23  and  C_24
REMARK    8  A    between atoms: C_24  and  C_25
REMARK                            x       y       z     vdW  Elec       q    Type
REMARK                         _______ _______ _______ _____ _____    ______ ____
ROOT
ATOM      1  C   UNL     1       1.024  11.202  21.365  0.00  0.00    +0.000 C 
ATOM      2  C   UNL     1      -0.035  11.132  20.310  0.00  0.00    +0.000 A 
ATOM      3  C   UNL     1      -1.206  11.858  20.185  0.00  0.00    +0.000 A 
ATOM      4  C   UNL     1      -1.862  11.431  18.997  0.00  0.00    +0.000 A 
ATOM      5  C   UNL     1      -3.074  11.832  18.383  0.00  0.00    +0.000 A 
ATOM      6  C   UNL     1      -3.515  11.205  17.226  0.00  0.00    +0.000 A 
ATOM      7 CL   UNL     1      -5.002  11.682  16.503  0.00  0.00    +0.000 Cl
ATOM      8  C   UNL     1      -2.788  10.169  16.679  0.00  0.00    +0.000 A 
ATOM      9  C   UNL     1      -1.608   9.724  17.296  0.00  0.00    +0.000 A 
ATOM     10  C   UNL     1      -1.113  10.383  18.444  0.00  0.00    +0.000 A 
ATOM     11  N   UNL     1       0.009  10.228  19.262  0.00  0.00    +0.000 N 
ENDROOT
BRANCH   3  12
ATOM     12  C   UNL     1      -1.744  12.875  21.136  0.00  0.00    +0.000 C 
BRANCH  12  13
ATOM     13  C   UNL     1      -2.152  12.286  22.489  0.00  0.00    +0.000 C 
BRANCH  13  14
ATOM     14  N   UNL     1      -2.148  13.226  23.612  0.00  0.00    +0.000 NA
ATOM     15  C   UNL     1      -1.165  14.314  23.464  0.00  0.00    +0.000 C 
ATOM     16  C   UNL     1      -1.106  15.118  24.767  0.00  0.00    +0.000 C 
ATOM     17  O   UNL     1      -2.390  15.676  25.089  0.00  0.00    +0.000 OA
ATOM     18  C   UNL     1      -3.381  14.640  25.186  0.00  0.00    +0.000 C 
ATOM     19  C   UNL     1      -3.467  13.823  23.888  0.00  0.00    +0.000 C 
ENDBRANCH  13  14
ENDBRANCH  12  13
ENDBRANCH   3  12
BRANCH  11  20
ATOM     20  C   UNL     1       1.044   9.197  19.188  0.00  0.00    +0.000 C 
BRANCH  20  21
ATOM     21  C   UNL     1       2.055   9.401  18.059  0.00  0.00    +0.000 C 
ATOM     22  O   UNL     1       2.224  10.497  17.523  0.00  0.00    +0.000 OA
ATOM     23  N   UNL     1       2.845   8.361  17.665  0.00  0.00    +0.000 N 
ATOM     24  H   UNL     1       3.458   8.561  16.884  0.00  0.00    +0.000 HD
BRANCH  23  25
ATOM     25  C   UNL     1       2.603   7.004  18.007  0.00  0.00    +0.000 C 
BRANCH  25  26
ATOM     26  C   UNL     1       3.670   6.053  17.592  0.00  0.00    +0.000 A 
ATOM     27  C   UNL     1       3.516   4.662  17.840  0.00  0.00    +0.000 A 
ATOM     28  C   UNL     1       4.328   3.736  17.197  0.00  0.00    +0.000 A 
ATOM     29  C   UNL     1       5.253   4.235  16.306  0.00  0.00    +0.000 A 
ATOM     30  C   UNL     1       5.444   5.589  16.123  0.00  0.00    +0.000 A 
ATOM     31  C   UNL     1       4.697   6.531  16.777  0.00  0.00    +0.000 A 
ATOM     32  O   UNL     1       6.344   5.859  15.145  0.00  0.00    +0.000 OA
ATOM     33  C   UNL     1       6.443   4.550  14.553  0.00  0.00    +0.000 C 
ATOM     34  O   UNL     1       6.010   3.502  15.445  0.00  0.00    +0.000 OA
ENDBRANCH  25  26
ENDBRANCH  23  25
ENDBRANCH  20  21
ENDBRANCH  11  20
TORSDOF 7
ENDMDL
MODEL 9
REMARK VINA RESULT:      -7.9      1.066      1.289
REMARK  Name = 
REMARK  8 active torsions:
REMARK  status: ('A' for Active; 'I' for Inactive)
REMARK    1  A    between atoms: C_1  and  C_2
REMARK    2  A    between atoms: C_3  and  C_4
REMARK    3  A    between atoms: C_4  and  C_5
REMARK    4  A    between atoms: C_5  and  N_6
REMARK    5  A    between atoms: N_19  and  C_20
REMARK    6  A    between atoms: C_20  and  C_21
REMARK    7  A    between atoms: N_23  and  C_24
REMARK    8  A    between atoms: C_24  and  C_25
REMARK                            x       y       z     vdW  Elec       q    Type
REMARK                         _______ _______ _______ _____ _____    ______ ____
ROOT
ATOM      1  C   UNL     1       5.592   5.253  19.302  0.00  0.00    +0.000 C 
ATOM      2  C   UNL     1       5.829   4.962  17.852  0.00  0.00    +0.000 A 
ATOM      3  C   UNL     1       5.289   3.971  17.052  0.00  0.00    +0.000 A 
ATOM      4  C   UNL     1       5.818   4.131  15.740  0.00  0.00    +0.000 A 
ATOM      5  C   UNL     1       5.608   3.413  14.537  0.00  0.00    +0.000 A 
ATOM      6  C   UNL     1       6.302   3.759  13.386  0.00  0.00    +0.000 A 
ATOM      7 CL   UNL     1       6.060   2.864  11.935  0.00  0.00    +0.000 Cl
ATOM      8  C   UNL     1       7.218   4.789  13.411  0.00  0.00    +0.000 A 
ATOM      9  C   UNL     1       7.475   5.483  14.604  0.00  0.00    +0.000 A 
ATOM     10  C   UNL     1       6.742   5.183  15.773  0.00  0.00    +0.000 A 
ATOM     11  N   UNL     1       6.721   5.684  17.078  0.00  0.00    +0.000 N 
ENDROOT
BRANCH   3  12
ATOM     12  C   UNL     1       4.361   2.880  17.469  0.00  0.00    +0.000 C 
BRANCH  12  13
ATOM     13  C   UNL     1       2.896   3.319  17.538  0.00  0.00    +0.000 C 
BRANCH  13  14
ATOM     14  N   UNL     1       2.328   3.409  18.884  0.00  0.00    +0.000 NA
ATOM     15  C   UNL     1       3.144   2.739  19.912  0.00  0.00    +0.000 C 
ATOM     16  C   UNL     1       2.370   2.723  21.236  0.00  0.00    +0.000 C 
ATOM     17  O   UNL     1       2.059   4.056  21.669  0.00  0.00    +0.000 OA
ATOM     18  C   UNL     1       1.308   4.752  20.660  0.00  0.00    +0.000 C 
ATOM     19  C   UNL     1       2.066   4.791  19.324  0.00  0.00    +0.000 C 
ENDBRANCH  13  14
ENDBRANCH  12  13
ENDBRANCH   3  12
BRANCH  11  20
ATOM     20  C   UNL     1       7.583   6.710  17.665  0.00  0.00    +0.000 C 
BRANCH  20  21
ATOM     21  C   UNL     1       7.159   8.144  17.348  0.00  0.00    +0.000 C 
ATOM     22  O   UNL     1       6.254   8.397  16.553  0.00  0.00    +0.000 OA
ATOM     23  N   UNL     1       7.751   9.183  18.005  0.00  0.00    +0.000 N 
ATOM     24  H   UNL     1       7.449  10.104  17.711  0.00  0.00    +0.000 HD
BRANCH  23  25
ATOM     25  C   UNL     1       8.955   9.071  18.751  0.00  0.00    +0.000 C 
BRANCH  25  26
ATOM     26  C   UNL     1       9.607  10.365  19.087  0.00  0.00    +0.000 A 
ATOM     27  C   UNL     1       9.995  11.254  18.049  0.00  0.00    +0.000 A 
ATOM     28  C   UNL     1      10.310  12.578  18.334  0.00  0.00    +0.000 A 
ATOM     29  C   UNL     1      10.203  12.972  19.649  0.00  0.00    +0.000 A 
ATOM     30  C   UNL     1       9.894  12.086  20.662  0.00  0.00    +0.000 A 
ATOM     31  C   UNL     1       9.627  10.765  20.425  0.00  0.00    +0.000 A 
ATOM     32  O   UNL     1       9.761  12.697  21.865  0.00  0.00    +0.000 OA
ATOM     33  C   UNL     1       9.715  14.068  21.424  0.00  0.00    +0.000 C 
ATOM     34  O   UNL     1      10.283  14.249  20.111  0.00  0.00    +0.000 OA
ENDBRANCH  25  26
ENDBRANCH  23  25
ENDBRANCH  20  21
ENDBRANCH  11  20
TORSDOF 7
ENDMDL
