MODEL 1
REMARK VINA RESULT:      -9.7      0.000      0.000
REMARK  Name = 
REMARK  6 active torsions:
REMARK  status: ('A' for Active; 'I' for Inactive)
REMARK    1  A    between atoms: C_1  and  C_2
REMARK    2  A    between atoms: C_4  and  C_5
REMARK    3  A    between atoms: C_10  and  N_11
REMARK    4  A    between atoms: N_14  and  C_15
REMARK    5  A    between atoms: C_15  and  C_16
REMARK    6  A    between atoms: C_15  and  C_22
REMARK                            x       y       z     vdW  Elec       q    Type
REMARK                         _______ _______ _______ _____ _____    ______ ____
ROOT
ATOM      1  N   UNL     1       2.019   7.909  18.498  0.00  0.00    +0.000 N 
ATOM      2  C   UNL     1       2.723   6.771  18.802  0.00  0.00    +0.000 C 
ATOM      3  O   UNL     1       3.032   6.418  19.938  0.00  0.00    +0.000 OA
ATOM      4  N   UNL     1       2.990   5.993  17.708  0.00  0.00    +0.000 N 
ATOM      5  H   UNL     1       1.454   7.880  17.662  0.00  0.00    +0.000 HD
ATOM      6  H   UNL     1       2.885   6.369  16.780  0.00  0.00    +0.000 HD
ENDROOT
BRANCH   1  12
ATOM      7  C   UNL     1      -0.473  10.872  22.450  0.00  0.00    +0.000 A 
ATOM      8  N   UNL     1      -0.148  10.147  23.535  0.00  0.00    +0.000 NA
ATOM      9  N   UNL     1       0.596   9.136  23.052  0.00  0.00    +0.000 N 
ATOM     10  C   UNL     1       0.800   9.188  21.704  0.00  0.00    +0.000 A 
ATOM     11  C   UNL     1       1.475   8.342  20.838  0.00  0.00    +0.000 A 
ATOM     12  C   UNL     1       1.459   8.719  19.498  0.00  0.00    +0.000 A 
ATOM     13  N   UNL     1       0.896   9.860  19.048  0.00  0.00    +0.000 NA
ATOM     14  C   UNL     1       0.210  10.654  19.915  0.00  0.00    +0.000 A 
ATOM     15  C   UNL     1       0.136  10.326  21.273  0.00  0.00    +0.000 A 
ATOM     16  H   UNL     1       0.946   8.445  23.706  0.00  0.00    +0.000 HD
BRANCH   7  20
ATOM     17  C   UNL     1      -4.747  13.063  23.860  0.00  0.00    +0.000 C 
ATOM     18  C   UNL     1      -3.379  13.112  23.250  0.00  0.00    +0.000 A 
ATOM     19  C   UNL     1      -2.589  11.970  23.175  0.00  0.00    +0.000 A 
ATOM     20  C   UNL     1      -1.327  12.053  22.579  0.00  0.00    +0.000 A 
ATOM     21  C   UNL     1      -0.887  13.296  22.117  0.00  0.00    +0.000 A 
ATOM     22  C   UNL     1      -1.732  14.380  22.243  0.00  0.00    +0.000 A 
ATOM     23  N   UNL     1      -2.966  14.313  22.786  0.00  0.00    +0.000 NA
ENDBRANCH   7  20
ENDBRANCH   1  12
BRANCH   4  24
ATOM     24  C   UNL     1       3.493   4.624  17.856  0.00  0.00    +0.000 C 
BRANCH  24  25
ATOM     25  C   UNL     1       4.862   4.492  17.202  0.00  0.00    +0.000 A 
ATOM     26  C   UNL     1       6.012   4.614  18.002  0.00  0.00    +0.000 A 
ATOM     27  C   UNL     1       7.285   4.635  17.429  0.00  0.00    +0.000 A 
ATOM     28  C   UNL     1       7.427   4.525  16.050  0.00  0.00    +0.000 A 
ATOM     29  C   UNL     1       6.301   4.347  15.248  0.00  0.00    +0.000 A 
ATOM     30  C   UNL     1       5.025   4.318  15.820  0.00  0.00    +0.000 A 
ENDBRANCH  24  25
BRANCH  24  31
ATOM     31  C   UNL     1       2.466   3.536  17.416  0.00  0.00    +0.000 C 
ATOM     32  C   UNL     1       2.831   2.117  17.869  0.00  0.00    +0.000 C 
ATOM     33  C   UNL     1       1.967   1.902  19.086  0.00  0.00    +0.000 C 
ATOM     34  C   UNL     1       0.718   2.658  18.704  0.00  0.00    +0.000 C 
ATOM     35  O   UNL     1       1.150   3.803  17.955  0.00  0.00    +0.000 OA
ENDBRANCH  24  31
ENDBRANCH   4  24
TORSDOF 5
ENDMDL
MODEL 2
REMARK VINA RESULT:      -9.4      0.728      1.038
REMARK  Name = 
REMARK  6 active torsions:
REMARK  status: ('A' for Active; 'I' for Inactive)
REMARK    1  A    between atoms: C_1  and  C_2
REMARK    2  A    between atoms: C_4  and  C_5
REMARK    3  A    between atoms: C_10  and  N_11
REMARK    4  A    between atoms: N_14  and  C_15
REMARK    5  A    between atoms: C_15  and  C_16
REMARK    6  A    between atoms: C_15  and  C_22
REMARK                            x       y       z     vdW  Elec       q    Type
REMARK                         _______ _______ _______ _____ _____    ______ ____
ROOT
ATOM      1  N   UNL     1       1.998   8.106  18.550  0.00  0.00    +0.000 N 
ATOM      2  C   UNL     1       2.646   6.947  18.896  0.00  0.00    +0.000 C 
ATOM      3  O   UNL     1       2.854   6.575  20.049  0.00  0.00    +0.000 OA
ATOM      4  N   UNL     1       2.978   6.173  17.818  0.00  0.00    +0.000 N 
ATOM      5  H   UNL     1       1.501   8.100  17.672  0.00  0.00    +0.000 HD
ATOM      6  H   UNL     1       2.957   6.560  16.888  0.00  0.00    +0.000 HD
ENDROOT
BRANCH   1  12
ATOM      7  C   UNL     1      -0.730  11.115  22.307  0.00  0.00    +0.000 A 
ATOM      8  N   UNL     1      -0.601  10.325  23.387  0.00  0.00    +0.000 NA
ATOM      9  N   UNL     1       0.116   9.275  22.950  0.00  0.00    +0.000 N 
ATOM     10  C   UNL     1       0.491   9.361  21.642  0.00  0.00    +0.000 A 
ATOM     11  C   UNL     1       1.201   8.495  20.825  0.00  0.00    +0.000 A 
ATOM     12  C   UNL     1       1.383   8.922  19.513  0.00  0.00    +0.000 A 
ATOM     13  N   UNL     1       0.970  10.121  19.052  0.00  0.00    +0.000 NA
ATOM     14  C   UNL     1       0.245  10.937  19.866  0.00  0.00    +0.000 A 
ATOM     15  C   UNL     1      -0.023  10.565  21.188  0.00  0.00    +0.000 A 
ATOM     16  H   UNL     1       0.327   8.532  23.609  0.00  0.00    +0.000 HD
BRANCH   7  20
ATOM     17  C   UNL     1      -1.574  15.632  24.292  0.00  0.00    +0.000 C 
ATOM     18  C   UNL     1      -1.913  14.527  23.338  0.00  0.00    +0.000 A 
ATOM     19  C   UNL     1      -1.137  13.374  23.274  0.00  0.00    +0.000 A 
ATOM     20  C   UNL     1      -1.499  12.357  22.386  0.00  0.00    +0.000 A 
ATOM     21  C   UNL     1      -2.609  12.555  21.561  0.00  0.00    +0.000 A 
ATOM     22  C   UNL     1      -3.314  13.735  21.681  0.00  0.00    +0.000 A 
ATOM     23  N   UNL     1      -3.000  14.715  22.555  0.00  0.00    +0.000 NA
ENDBRANCH   7  20
ENDBRANCH   1  12
BRANCH   4  24
ATOM     24  C   UNL     1       3.431   4.789  17.990  0.00  0.00    +0.000 C 
BRANCH  24  25
ATOM     25  C   UNL     1       4.808   4.604  17.363  0.00  0.00    +0.000 A 
ATOM     26  C   UNL     1       5.945   4.671  18.188  0.00  0.00    +0.000 A 
ATOM     27  C   UNL     1       7.229   4.643  17.643  0.00  0.00    +0.000 A 
ATOM     28  C   UNL     1       7.396   4.537  16.266  0.00  0.00    +0.000 A 
ATOM     29  C   UNL     1       6.281   4.412  15.439  0.00  0.00    +0.000 A 
ATOM     30  C   UNL     1       4.993   4.433  15.984  0.00  0.00    +0.000 A 
ENDBRANCH  24  25
BRANCH  24  31
ATOM     31  C   UNL     1       2.378   3.731  17.541  0.00  0.00    +0.000 C 
ATOM     32  C   UNL     1       2.813   2.280  17.776  0.00  0.00    +0.000 C 
ATOM     33  C   UNL     1       2.099   1.899  19.047  0.00  0.00    +0.000 C 
ATOM     34  C   UNL     1       0.803   2.659  18.902  0.00  0.00    +0.000 C 
ATOM     35  O   UNL     1       1.128   3.895  18.252  0.00  0.00    +0.000 OA
ENDBRANCH  24  31
ENDBRANCH   4  24
TORSDOF 5
ENDMDL
MODEL 3
REMARK VINA RESULT:      -9.4      0.462      1.551
REMARK  Name = 
REMARK  6 active torsions:
REMARK  status: ('A' for Active; 'I' for Inactive)
REMARK    1  A    between atoms: C_1  and  C_2
REMARK    2  A    between atoms: C_4  and  C_5
REMARK    3  A    between atoms: C_10  and  N_11
REMARK    4  A    between atoms: N_14  and  C_15
REMARK    5  A    between atoms: C_15  and  C_16
REMARK    6  A    between atoms: C_15  and  C_22
REMARK                            x       y       z     vdW  Elec       q    Type
REMARK                         _______ _______ _______ _____ _____    ______ ____
ROOT
ATOM      1  N   UNL     1       1.874   7.965  18.485  0.00  0.00    +0.000 N 
ATOM      2  C   UNL     1       2.669   6.886  18.780  0.00  0.00    +0.000 C 
ATOM      3  O   UNL     1       3.101   6.617  19.898  0.00  0.00    +0.000 OA
ATOM      4  N   UNL     1       2.879   6.062  17.708  0.00  0.00    +0.000 N 
ATOM      5  H   UNL     1       1.237   7.858  17.709  0.00  0.00    +0.000 HD
ATOM      6  H   UNL     1       2.667   6.377  16.775  0.00  0.00    +0.000 HD
ENDROOT
BRANCH   1  12
ATOM      7  C   UNL     1      -0.456  11.068  22.428  0.00  0.00    +0.000 A 
ATOM      8  N   UNL     1      -0.297  10.262  23.493  0.00  0.00    +0.000 NA
ATOM      9  N   UNL     1       0.338   9.182  23.004  0.00  0.00    +0.000 N 
ATOM     10  C   UNL     1       0.632   9.262  21.675  0.00  0.00    +0.000 A 
ATOM     11  C   UNL     1       1.244   8.370  20.809  0.00  0.00    +0.000 A 
ATOM     12  C   UNL     1       1.362   8.801  19.490  0.00  0.00    +0.000 A 
ATOM     13  N   UNL     1       0.981  10.024  19.065  0.00  0.00    +0.000 NA
ATOM     14  C   UNL     1       0.351  10.866  19.929  0.00  0.00    +0.000 A 
ATOM     15  C   UNL     1       0.150  10.495  21.263  0.00  0.00    +0.000 A 
ATOM     16  H   UNL     1       0.553   8.424  23.643  0.00  0.00    +0.000 HD
BRANCH   7  20
ATOM     17  C   UNL     1      -0.545  16.068  22.198  0.00  0.00    +0.000 C 
ATOM     18  C   UNL     1      -1.205  14.748  22.461  0.00  0.00    +0.000 A 
ATOM     19  C   UNL     1      -0.510  13.555  22.289  0.00  0.00    +0.000 A 
ATOM     20  C   UNL     1      -1.155  12.346  22.565  0.00  0.00    +0.000 A 
ATOM     21  C   UNL     1      -2.494  12.379  22.965  0.00  0.00    +0.000 A 
ATOM     22  C   UNL     1      -3.109  13.607  23.097  0.00  0.00    +0.000 A 
ATOM     23  N   UNL     1      -2.494  14.786  22.867  0.00  0.00    +0.000 NA
ENDBRANCH   7  20
ENDBRANCH   1  12
BRANCH   4  24
ATOM     24  C   UNL     1       3.473   4.733  17.879  0.00  0.00    +0.000 C 
BRANCH  24  25
ATOM     25  C   UNL     1       4.867   4.696  17.268  0.00  0.00    +0.000 A 
ATOM     26  C   UNL     1       5.000   4.461  15.888  0.00  0.00    +0.000 A 
ATOM     27  C   UNL     1       6.256   4.285  15.307  0.00  0.00    +0.000 A 
ATOM     28  C   UNL     1       7.400   4.351  16.096  0.00  0.00    +0.000 A 
ATOM     29  C   UNL     1       7.291   4.639  17.455  0.00  0.00    +0.000 A 
ATOM     30  C   UNL     1       6.033   4.823  18.038  0.00  0.00    +0.000 A 
ENDBRANCH  24  25
BRANCH  24  31
ATOM     31  C   UNL     1       2.541   3.572  17.414  0.00  0.00    +0.000 C 
ATOM     32  C   UNL     1       2.983   2.187  17.897  0.00  0.00    +0.000 C 
ATOM     33  C   UNL     1       2.090   1.924  19.082  0.00  0.00    +0.000 C 
ATOM     34  C   UNL     1       0.808   2.589  18.645  0.00  0.00    +0.000 C 
ATOM     35  O   UNL     1       1.189   3.754  17.899  0.00  0.00    +0.000 OA
ENDBRANCH  24  31
ENDBRANCH   4  24
TORSDOF 5
ENDMDL
MODEL 4
REMARK VINA RESULT:      -9.4      1.867      2.149
REMARK  Name = 
REMARK  6 active torsions:
REMARK  status: ('A' for Active; 'I' for Inactive)
REMARK    1  A    between atoms: C_1  and  C_2
REMARK    2  A    between atoms: C_4  and  C_5
REMARK    3  A    between atoms: C_10  and  N_11
REMARK    4  A    between atoms: N_14  and  C_15
REMARK    5  A    between atoms: C_15  and  C_16
REMARK    6  A    between atoms: C_15  and  C_22
REMARK                            x       y       z     vdW  Elec       q    Type
REMARK                         _______ _______ _______ _____ _____    ______ ____
ROOT
ATOM      1  N   UNL     1       1.969   9.112  17.772  0.00  0.00    +0.000 N 
ATOM      2  C   UNL     1       2.439   7.991  18.411  0.00  0.00    +0.000 C 
ATOM      3  O   UNL     1       2.266   7.737  19.600  0.00  0.00    +0.000 OA
ATOM      4  N   UNL     1       3.063   7.112  17.569  0.00  0.00    +0.000 N 
ATOM      5  H   UNL     1       1.769   9.019  16.787  0.00  0.00    +0.000 HD
ATOM      6  H   UNL     1       3.345   7.404  16.647  0.00  0.00    +0.000 HD
ENDROOT
BRANCH   1  12
ATOM      7  C   UNL     1      -1.248  12.602  20.613  0.00  0.00    +0.000 A 
ATOM      8  N   UNL     1      -0.407  13.642  20.756  0.00  0.00    +0.000 NA
ATOM      9  N   UNL     1       0.717  13.253  20.127  0.00  0.00    +0.000 N 
ATOM     10  C   UNL     1       0.634  12.020  19.550  0.00  0.00    +0.000 A 
ATOM     11  C   UNL     1       1.560  11.266  18.847  0.00  0.00    +0.000 A 
ATOM     12  C   UNL     1       1.113  10.021  18.412  0.00  0.00    +0.000 A 
ATOM     13  N   UNL     1      -0.149   9.576  18.586  0.00  0.00    +0.000 NA
ATOM     14  C   UNL     1      -1.027  10.323  19.311  0.00  0.00    +0.000 A 
ATOM     15  C   UNL     1      -0.647  11.568  19.824  0.00  0.00    +0.000 A 
ATOM     16  H   UNL     1       1.506  13.891  20.120  0.00  0.00    +0.000 HD
BRANCH   7  20
ATOM     17  C   UNL     1      -4.269  12.519  24.604  0.00  0.00    +0.000 C 
ATOM     18  C   UNL     1      -4.040  12.599  23.125  0.00  0.00    +0.000 A 
ATOM     19  C   UNL     1      -2.752  12.587  22.599  0.00  0.00    +0.000 A 
ATOM     20  C   UNL     1      -2.582  12.642  21.213  0.00  0.00    +0.000 A 
ATOM     21  C   UNL     1      -3.716  12.751  20.405  0.00  0.00    +0.000 A 
ATOM     22  C   UNL     1      -4.955  12.768  21.011  0.00  0.00    +0.000 A 
ATOM     23  N   UNL     1      -5.142  12.683  22.346  0.00  0.00    +0.000 NA
ENDBRANCH   7  20
ENDBRANCH   1  12
BRANCH   4  24
ATOM     24  C   UNL     1       3.394   5.752  18.003  0.00  0.00    +0.000 C 
BRANCH  24  25
ATOM     25  C   UNL     1       4.727   5.318  17.407  0.00  0.00    +0.000 A 
ATOM     26  C   UNL     1       5.731   4.835  18.265  0.00  0.00    +0.000 A 
ATOM     27  C   UNL     1       7.011   4.553  17.785  0.00  0.00    +0.000 A 
ATOM     28  C   UNL     1       7.303   4.741  16.438  0.00  0.00    +0.000 A 
ATOM     29  C   UNL     1       6.304   5.165  15.563  0.00  0.00    +0.000 A 
ATOM     30  C   UNL     1       5.019   5.441  16.041  0.00  0.00    +0.000 A 
ENDBRANCH  24  25
BRANCH  24  31
ATOM     31  C   UNL     1       2.235   4.732  17.786  0.00  0.00    +0.000 C 
ATOM     32  C   UNL     1       2.697   3.365  17.270  0.00  0.00    +0.000 C 
ATOM     33  C   UNL     1       2.714   2.507  18.509  0.00  0.00    +0.000 C 
ATOM     34  C   UNL     1       1.540   3.064  19.276  0.00  0.00    +0.000 C 
ATOM     35  O   UNL     1       1.520   4.475  19.018  0.00  0.00    +0.000 OA
ENDBRANCH  24  31
ENDBRANCH   4  24
TORSDOF 5
ENDMDL
MODEL 5
REMARK VINA RESULT:      -9.1      2.543      3.164
REMARK  Name = 
REMARK  6 active torsions:
REMARK  status: ('A' for Active; 'I' for Inactive)
REMARK    1  A    between atoms: C_1  and  C_2
REMARK    2  A    between atoms: C_4  and  C_5
REMARK    3  A    between atoms: C_10  and  N_11
REMARK    4  A    between atoms: N_14  and  C_15
REMARK    5  A    between atoms: C_15  and  C_16
REMARK    6  A    between atoms: C_15  and  C_22
REMARK                            x       y       z     vdW  Elec       q    Type
REMARK                         _______ _______ _______ _____ _____    ______ ____
ROOT
ATOM      1  N   UNL     1       1.752   9.410  17.707  0.00  0.00    +0.000 N 
ATOM      2  C   UNL     1       2.211   8.343  18.439  0.00  0.00    +0.000 C 
ATOM      3  O   UNL     1       1.862   8.076  19.586  0.00  0.00    +0.000 OA
ATOM      4  N   UNL     1       3.054   7.528  17.734  0.00  0.00    +0.000 N 
ATOM      5  H   UNL     1       1.735   9.295  16.704  0.00  0.00    +0.000 HD
ATOM      6  H   UNL     1       3.461   7.844  16.868  0.00  0.00    +0.000 HD
ENDROOT
BRANCH   1  12
ATOM      7  C   UNL     1      -2.281  12.511  19.880  0.00  0.00    +0.000 A 
ATOM      8  N   UNL     1      -1.557  13.519  20.398  0.00  0.00    +0.000 NA
ATOM      9  N   UNL     1      -0.285  13.211  20.088  0.00  0.00    +0.000 N 
ATOM     10  C   UNL     1      -0.150  12.065  19.361  0.00  0.00    +0.000 A 
ATOM     11  C   UNL     1       0.968  11.406  18.875  0.00  0.00    +0.000 A 
ATOM     12  C   UNL     1       0.713  10.231  18.173  0.00  0.00    +0.000 A 
ATOM     13  N   UNL     1      -0.528   9.773  17.905  0.00  0.00    +0.000 NA
ATOM     14  C   UNL     1      -1.606  10.422  18.424  0.00  0.00    +0.000 A 
ATOM     15  C   UNL     1      -1.438  11.587  19.181  0.00  0.00    +0.000 A 
ATOM     16  H   UNL     1       0.449  13.840  20.397  0.00  0.00    +0.000 HD
BRANCH   7  20
ATOM     17  C   UNL     1      -6.896  11.714  18.112  0.00  0.00    +0.000 C 
ATOM     18  C   UNL     1      -5.954  12.101  19.211  0.00  0.00    +0.000 A 
ATOM     19  C   UNL     1      -4.577  12.090  19.010  0.00  0.00    +0.000 A 
ATOM     20  C   UNL     1      -3.733  12.478  20.055  0.00  0.00    +0.000 A 
ATOM     21  C   UNL     1      -4.305  12.824  21.282  0.00  0.00    +0.000 A 
ATOM     22  C   UNL     1      -5.680  12.795  21.397  0.00  0.00    +0.000 A 
ATOM     23  N   UNL     1      -6.513  12.455  20.391  0.00  0.00    +0.000 NA
ENDBRANCH   7  20
ENDBRANCH   1  12
BRANCH   4  24
ATOM     24  C   UNL     1       3.436   6.209  18.245  0.00  0.00    +0.000 C 
BRANCH  24  25
ATOM     25  C   UNL     1       4.794   5.801  17.688  0.00  0.00    +0.000 A 
ATOM     26  C   UNL     1       5.020   5.903  16.304  0.00  0.00    +0.000 A 
ATOM     27  C   UNL     1       6.196   5.417  15.731  0.00  0.00    +0.000 A 
ATOM     28  C   UNL     1       7.168   4.830  16.535  0.00  0.00    +0.000 A 
ATOM     29  C   UNL     1       6.985   4.772  17.915  0.00  0.00    +0.000 A 
ATOM     30  C   UNL     1       5.811   5.265  18.492  0.00  0.00    +0.000 A 
ENDBRANCH  24  25
BRANCH  24  31
ATOM     31  C   UNL     1       2.324   5.130  18.071  0.00  0.00    +0.000 C 
ATOM     32  C   UNL     1       2.820   3.819  17.451  0.00  0.00    +0.000 C 
ATOM     33  C   UNL     1       2.991   2.908  18.640  0.00  0.00    +0.000 C 
ATOM     34  C   UNL     1       1.854   3.356  19.526  0.00  0.00    +0.000 C 
ATOM     35  O   UNL     1       1.731   4.774  19.342  0.00  0.00    +0.000 OA
ENDBRANCH  24  31
ENDBRANCH   4  24
TORSDOF 5
ENDMDL
MODEL 6
REMARK VINA RESULT:      -9.1      6.576     10.303
REMARK  Name = 
REMARK  6 active torsions:
REMARK  status: ('A' for Active; 'I' for Inactive)
REMARK    1  A    between atoms: C_1  and  C_2
REMARK    2  A    between atoms: C_4  and  C_5
REMARK    3  A    between atoms: C_10  and  N_11
REMARK    4  A    between atoms: N_14  and  C_15
REMARK    5  A    between atoms: C_15  and  C_16
REMARK    6  A    between atoms: C_15  and  C_22
REMARK                            x       y       z     vdW  Elec       q    Type
REMARK                         _______ _______ _______ _____ _____    ______ ____
ROOT
ATOM      1  N   UNL     1       8.866   7.984  18.725  0.00  0.00    +0.000 N 
ATOM      2  C   UNL     1       8.650   9.338  18.655  0.00  0.00    +0.000 C 
ATOM      3  O   UNL     1       7.651   9.866  18.173  0.00  0.00    +0.000 OA
ATOM      4  N   UNL     1       9.632  10.072  19.261  0.00  0.00    +0.000 N 
ATOM      5  H   UNL     1       9.439   7.657  19.489  0.00  0.00    +0.000 HD
ATOM      6  H   UNL     1      10.514   9.646  19.497  0.00  0.00    +0.000 HD
ENDROOT
BRANCH   1  12
ATOM      7  C   UNL     1       4.714   4.620  17.291  0.00  0.00    +0.000 A 
ATOM      8  N   UNL     1       4.666   4.850  15.967  0.00  0.00    +0.000 NA
ATOM      9  N   UNL     1       5.646   5.744  15.745  0.00  0.00    +0.000 N 
ATOM     10  C   UNL     1       6.355   6.081  16.860  0.00  0.00    +0.000 A 
ATOM     11  C   UNL     1       7.403   6.966  17.055  0.00  0.00    +0.000 A 
ATOM     12  C   UNL     1       7.873   7.060  18.362  0.00  0.00    +0.000 A 
ATOM     13  N   UNL     1       7.410   6.305  19.380  0.00  0.00    +0.000 NA
ATOM     14  C   UNL     1       6.356   5.470  19.167  0.00  0.00    +0.000 A 
ATOM     15  C   UNL     1       5.792   5.348  17.893  0.00  0.00    +0.000 A 
ATOM     16  H   UNL     1       5.785   6.076  14.797  0.00  0.00    +0.000 HD
BRANCH   7  20
ATOM     17  C   UNL     1       0.854   3.758  20.359  0.00  0.00    +0.000 C 
ATOM     18  C   UNL     1       1.903   3.291  19.396  0.00  0.00    +0.000 A 
ATOM     19  C   UNL     1       2.777   4.192  18.797  0.00  0.00    +0.000 A 
ATOM     20  C   UNL     1       3.754   3.713  17.920  0.00  0.00    +0.000 A 
ATOM     21  C   UNL     1       3.789   2.344  17.642  0.00  0.00    +0.000 A 
ATOM     22  C   UNL     1       2.876   1.523  18.271  0.00  0.00    +0.000 A 
ATOM     23  N   UNL     1       1.946   1.962  19.146  0.00  0.00    +0.000 NA
ENDBRANCH   7  20
ENDBRANCH   1  12
BRANCH   4  24
ATOM     24  C   UNL     1       9.455  11.503  19.525  0.00  0.00    +0.000 C 
BRANCH  24  25
ATOM     25  C   UNL     1      10.219  12.327  18.497  0.00  0.00    +0.000 A 
ATOM     26  C   UNL     1      11.548  11.977  18.195  0.00  0.00    +0.000 A 
ATOM     27  C   UNL     1      12.330  12.779  17.363  0.00  0.00    +0.000 A 
ATOM     28  C   UNL     1      11.794  13.938  16.812  0.00  0.00    +0.000 A 
ATOM     29  C   UNL     1      10.462  14.270  17.055  0.00  0.00    +0.000 A 
ATOM     30  C   UNL     1       9.674  13.464  17.883  0.00  0.00    +0.000 A 
ENDBRANCH  24  25
BRANCH  24  31
ATOM     31  C   UNL     1       9.744  11.902  21.005  0.00  0.00    +0.000 C 
ATOM     32  C   UNL     1      10.027  13.395  21.204  0.00  0.00    +0.000 C 
ATOM     33  C   UNL     1       8.715  13.939  21.709  0.00  0.00    +0.000 C 
ATOM     34  C   UNL     1       8.212  12.784  22.541  0.00  0.00    +0.000 C 
ATOM     35  O   UNL     1       8.622  11.588  21.864  0.00  0.00    +0.000 OA
ENDBRANCH  24  31
ENDBRANCH   4  24
TORSDOF 5
ENDMDL
MODEL 7
REMARK VINA RESULT:      -9.1      7.533      9.328
REMARK  Name = 
REMARK  6 active torsions:
REMARK  status: ('A' for Active; 'I' for Inactive)
REMARK    1  A    between atoms: C_1  and  C_2
REMARK    2  A    between atoms: C_4  and  C_5
REMARK    3  A    between atoms: C_10  and  N_11
REMARK    4  A    between atoms: N_14  and  C_15
REMARK    5  A    between atoms: C_15  and  C_16
REMARK    6  A    between atoms: C_15  and  C_22
REMARK                            x       y       z     vdW  Elec       q    Type
REMARK                         _______ _______ _______ _____ _____    ______ ____
ROOT
ATOM      1  N   UNL     1       8.955   8.587  18.903  0.00  0.00    +0.000 N 
ATOM      2  C   UNL     1       7.812   8.270  18.213  0.00  0.00    +0.000 C 
ATOM      3  O   UNL     1       7.007   9.087  17.773  0.00  0.00    +0.000 OA
ATOM      4  N   UNL     1       7.682   6.929  17.974  0.00  0.00    +0.000 N 
ATOM      5  H   UNL     1       9.726   7.940  18.822  0.00  0.00    +0.000 HD
ATOM      6  H   UNL     1       8.247   6.265  18.478  0.00  0.00    +0.000 HD
ENDROOT
BRANCH   1  12
ATOM      7  C   UNL     1      10.283  13.921  19.535  0.00  0.00    +0.000 A 
ATOM      8  N   UNL     1      10.256  14.018  20.876  0.00  0.00    +0.000 NA
ATOM      9  N   UNL     1       9.937  12.780  21.296  0.00  0.00    +0.000 N 
ATOM     10  C   UNL     1       9.790  11.871  20.289  0.00  0.00    +0.000 A 
ATOM     11  C   UNL     1       9.449  10.528  20.300  0.00  0.00    +0.000 A 
ATOM     12  C   UNL     1       9.381   9.916  19.052  0.00  0.00    +0.000 A 
ATOM     13  N   UNL     1       9.689  10.540  17.895  0.00  0.00    +0.000 NA
ATOM     14  C   UNL     1       9.987  11.869  17.911  0.00  0.00    +0.000 A 
ATOM     15  C   UNL     1      10.032  12.573  19.119  0.00  0.00    +0.000 A 
ATOM     16  H   UNL     1       9.848  12.621  22.293  0.00  0.00    +0.000 HD
BRANCH   7  20
ATOM     17  C   UNL     1       9.295  18.624  18.135  0.00  0.00    +0.000 C 
ATOM     18  C   UNL     1      10.090  17.358  18.033  0.00  0.00    +0.000 A 
ATOM     19  C   UNL     1       9.810  16.270  18.855  0.00  0.00    +0.000 A 
ATOM     20  C   UNL     1      10.561  15.099  18.714  0.00  0.00    +0.000 A 
ATOM     21  C   UNL     1      11.597  15.079  17.777  0.00  0.00    +0.000 A 
ATOM     22  C   UNL     1      11.813  16.207  17.013  0.00  0.00    +0.000 A 
ATOM     23  N   UNL     1      11.079  17.335  17.111  0.00  0.00    +0.000 NA
ENDBRANCH   7  20
ENDBRANCH   1  12
BRANCH   4  24
ATOM     24  C   UNL     1       6.679   6.421  17.033  0.00  0.00    +0.000 C 
BRANCH  24  25
ATOM     25  C   UNL     1       5.330   6.278  17.727  0.00  0.00    +0.000 A 
ATOM     26  C   UNL     1       5.232   5.448  18.858  0.00  0.00    +0.000 A 
ATOM     27  C   UNL     1       3.995   5.180  19.445  0.00  0.00    +0.000 A 
ATOM     28  C   UNL     1       2.839   5.744  18.917  0.00  0.00    +0.000 A 
ATOM     29  C   UNL     1       2.925   6.614  17.831  0.00  0.00    +0.000 A 
ATOM     30  C   UNL     1       4.164   6.890  17.245  0.00  0.00    +0.000 A 
ENDBRANCH  24  25
BRANCH  24  31
ATOM     31  C   UNL     1       7.140   5.145  16.264  0.00  0.00    +0.000 C 
ATOM     32  C   UNL     1       6.011   4.148  15.979  0.00  0.00    +0.000 C 
ATOM     33  C   UNL     1       5.650   4.426  14.541  0.00  0.00    +0.000 C 
ATOM     34  C   UNL     1       6.997   4.774  13.956  0.00  0.00    +0.000 C 
ATOM     35  O   UNL     1       7.712   5.483  14.978  0.00  0.00    +0.000 OA
ENDBRANCH  24  31
ENDBRANCH   4  24
TORSDOF 5
ENDMDL
MODEL 8
REMARK VINA RESULT:      -9.1      1.338      1.902
REMARK  Name = 
REMARK  6 active torsions:
REMARK  status: ('A' for Active; 'I' for Inactive)
REMARK    1  A    between atoms: C_1  and  C_2
REMARK    2  A    between atoms: C_4  and  C_5
REMARK    3  A    between atoms: C_10  and  N_11
REMARK    4  A    between atoms: N_14  and  C_15
REMARK    5  A    between atoms: C_15  and  C_16
REMARK    6  A    between atoms: C_15  and  C_22
REMARK                            x       y       z     vdW  Elec       q    Type
REMARK                         _______ _______ _______ _____ _____    ______ ____
ROOT
ATOM      1  N   UNL     1       1.953   8.460  18.092  0.00  0.00    +0.000 N 
ATOM      2  C   UNL     1       2.417   7.310  18.682  0.00  0.00    +0.000 C 
ATOM      3  O   UNL     1       2.165   6.960  19.832  0.00  0.00    +0.000 OA
ATOM      4  N   UNL     1       3.137   6.520  17.829  0.00  0.00    +0.000 N 
ATOM      5  H   UNL     1       1.831   8.435  17.091  0.00  0.00    +0.000 HD
ATOM      6  H   UNL     1       3.476   6.890  16.956  0.00  0.00    +0.000 HD
ENDROOT
BRANCH   1  12
ATOM      7  C   UNL     1      -1.567  12.011  20.459  0.00  0.00    +0.000 A 
ATOM      8  N   UNL     1      -2.377  12.276  19.419  0.00  0.00    +0.000 NA
ATOM      9  N   UNL     1      -1.886  11.530  18.413  0.00  0.00    +0.000 N 
ATOM     10  C   UNL     1      -0.813  10.764  18.761  0.00  0.00    +0.000 A 
ATOM     11  C   UNL     1      -0.021   9.895  18.026  0.00  0.00    +0.000 A 
ATOM     12  C   UNL     1       1.015   9.287  18.729  0.00  0.00    +0.000 A 
ATOM     13  N   UNL     1       1.221   9.456  20.052  0.00  0.00    +0.000 NA
ATOM     14  C   UNL     1       0.450  10.341  20.741  0.00  0.00    +0.000 A 
ATOM     15  C   UNL     1      -0.586  11.030  20.102  0.00  0.00    +0.000 A 
ATOM     16  H   UNL     1      -2.344  11.584  17.510  0.00  0.00    +0.000 HD
BRANCH   7  20
ATOM     17  C   UNL     1      -4.185  12.742  24.664  0.00  0.00    +0.000 C 
ATOM     18  C   UNL     1      -3.024  13.042  23.764  0.00  0.00    +0.000 A 
ATOM     19  C   UNL     1      -2.854  12.358  22.564  0.00  0.00    +0.000 A 
ATOM     20  C   UNL     1      -1.770  12.682  21.743  0.00  0.00    +0.000 A 
ATOM     21  C   UNL     1      -0.869  13.656  22.181  0.00  0.00    +0.000 A 
ATOM     22  C   UNL     1      -1.107  14.276  23.390  0.00  0.00    +0.000 A 
ATOM     23  N   UNL     1      -2.166  14.000  24.182  0.00  0.00    +0.000 NA
ENDBRANCH   7  20
ENDBRANCH   1  12
BRANCH   4  24
ATOM     24  C   UNL     1       3.488   5.142  18.187  0.00  0.00    +0.000 C 
BRANCH  24  25
ATOM     25  C   UNL     1       4.943   4.860  17.833  0.00  0.00    +0.000 A 
ATOM     26  C   UNL     1       5.932   5.059  18.813  0.00  0.00    +0.000 A 
ATOM     27  C   UNL     1       7.287   4.945  18.498  0.00  0.00    +0.000 A 
ATOM     28  C   UNL     1       7.673   4.620  17.201  0.00  0.00    +0.000 A 
ATOM     29  C   UNL     1       6.704   4.365  16.232  0.00  0.00    +0.000 A 
ATOM     30  C   UNL     1       5.346   4.472  16.547  0.00  0.00    +0.000 A 
ENDBRANCH  24  25
BRANCH  24  31
ATOM     31  C   UNL     1       2.481   4.084  17.642  0.00  0.00    +0.000 C 
ATOM     32  C   UNL     1       2.980   2.638  17.747  0.00  0.00    +0.000 C 
ATOM     33  C   UNL     1       2.283   2.114  18.977  0.00  0.00    +0.000 C 
ATOM     34  C   UNL     1       0.955   2.827  18.896  0.00  0.00    +0.000 C 
ATOM     35  O   UNL     1       1.226   4.129  18.360  0.00  0.00    +0.000 OA
ENDBRANCH  24  31
ENDBRANCH   4  24
TORSDOF 5
ENDMDL
MODEL 9
REMARK VINA RESULT:      -9.1      2.583      3.234
REMARK  Name = 
REMARK  6 active torsions:
REMARK  status: ('A' for Active; 'I' for Inactive)
REMARK    1  A    between atoms: C_1  and  C_2
REMARK    2  A    between atoms: C_4  and  C_5
REMARK    3  A    between atoms: C_10  and  N_11
REMARK    4  A    between atoms: N_14  and  C_15
REMARK    5  A    between atoms: C_15  and  C_16
REMARK    6  A    between atoms: C_15  and  C_22
REMARK                            x       y       z     vdW  Elec       q    Type
REMARK                         _______ _______ _______ _____ _____    ______ ____
ROOT
ATOM      1  N   UNL     1       1.810   7.549  17.928  0.00  0.00    +0.000 N 
ATOM      2  C   UNL     1       2.876   6.747  18.252  0.00  0.00    +0.000 C 
ATOM      3  O   UNL     1       3.862   7.112  18.887  0.00  0.00    +0.000 OA
ATOM      4  N   UNL     1       2.705   5.444  17.871  0.00  0.00    +0.000 N 
ATOM      5  H   UNL     1       0.916   7.092  17.826  0.00  0.00    +0.000 HD
ATOM      6  H   UNL     1       1.984   5.197  17.213  0.00  0.00    +0.000 HD
ENDROOT
BRANCH   1  12
ATOM      7  C   UNL     1       1.001  12.698  19.781  0.00  0.00    +0.000 A 
ATOM      8  N   UNL     1       0.415  12.438  20.963  0.00  0.00    +0.000 NA
ATOM      9  N   UNL     1       0.370  11.096  21.028  0.00  0.00    +0.000 N 
ATOM     10  C   UNL     1       0.932  10.467  19.956  0.00  0.00    +0.000 A 
ATOM     11  C   UNL     1       1.062   9.125  19.636  0.00  0.00    +0.000 A 
ATOM     12  C   UNL     1       1.694   8.856  18.425  0.00  0.00    +0.000 A 
ATOM     13  N   UNL     1       2.218   9.810  17.626  0.00  0.00    +0.000 NA
ATOM     14  C   UNL     1       2.045  11.121  17.948  0.00  0.00    +0.000 A 
ATOM     15  C   UNL     1       1.380  11.482  19.125  0.00  0.00    +0.000 A 
ATOM     16  H   UNL     1      -0.052  10.670  21.846  0.00  0.00    +0.000 HD
BRANCH   7  20
ATOM     17  C   UNL     1      -0.824  17.151  18.402  0.00  0.00    +0.000 C 
ATOM     18  C   UNL     1       0.320  16.220  18.669  0.00  0.00    +0.000 A 
ATOM     19  C   UNL     1       0.096  14.923  19.120  0.00  0.00    +0.000 A 
ATOM     20  C   UNL     1       1.189  14.079  19.337  0.00  0.00    +0.000 A 
ATOM     21  C   UNL     1       2.475  14.586  19.133  0.00  0.00    +0.000 A 
ATOM     22  C   UNL     1       2.606  15.889  18.697  0.00  0.00    +0.000 A 
ATOM     23  N   UNL     1       1.562  16.709  18.451  0.00  0.00    +0.000 NA
ENDBRANCH   7  20
ENDBRANCH   1  12
BRANCH   4  24
ATOM     24  C   UNL     1       3.600   4.389  18.356  0.00  0.00    +0.000 C 
BRANCH  24  25
ATOM     25  C   UNL     1       4.863   4.338  17.506  0.00  0.00    +0.000 A 
ATOM     26  C   UNL     1       6.109   4.549  18.124  0.00  0.00    +0.000 A 
ATOM     27  C   UNL     1       7.278   4.646  17.369  0.00  0.00    +0.000 A 
ATOM     28  C   UNL     1       7.221   4.523  15.984  0.00  0.00    +0.000 A 
ATOM     29  C   UNL     1       6.003   4.257  15.360  0.00  0.00    +0.000 A 
ATOM     30  C   UNL     1       4.832   4.153  16.116  0.00  0.00    +0.000 A 
ENDBRANCH  24  25
BRANCH  24  31
ATOM     31  C   UNL     1       2.895   3.010  18.535  0.00  0.00    +0.000 C 
ATOM     32  C   UNL     1       2.614   2.640  19.996  0.00  0.00    +0.000 C 
ATOM     33  C   UNL     1       1.157   2.984  20.174  0.00  0.00    +0.000 C 
ATOM     34  C   UNL     1       0.600   2.638  18.814  0.00  0.00    +0.000 C 
ATOM     35  O   UNL     1       1.615   2.980  17.860  0.00  0.00    +0.000 OA
ENDBRANCH  24  31
ENDBRANCH   4  24
TORSDOF 5
ENDMDL
