MODEL 1
REMARK VINA RESULT:      -7.4      0.000      0.000
REMARK  Name = 
REMARK  11 active torsions:
REMARK  status: ('A' for Active; 'I' for Inactive)
REMARK    1  A    between atoms: C_1  and  O_2
REMARK    2  A    between atoms: O_2  and  C_3
REMARK    3  A    between atoms: C_6  and  C_7
REMARK    4  A    between atoms: C_7  and  N_8
REMARK    5  A    between atoms: N_8  and  C_14
REMARK    6  A    between atoms: C_9  and  C_11
REMARK    7  A    between atoms: C_11  and  C_12
REMARK    8  A    between atoms: C_11  and  C_13
REMARK    9  A    between atoms: N_17  and  C_18
REMARK   10  A    between atoms: C_20  and  O_21
REMARK   11  A    between atoms: O_21  and  C_22
REMARK                            x       y       z     vdW  Elec       q    Type
REMARK                         _______ _______ _______ _____ _____    ______ ____
ROOT
ATOM      1  N   UNL     1       3.363   5.187  19.342  0.00  0.00    +0.000 N 
ATOM      2  C   UNL     1       2.818   3.906  19.260  0.00  0.00    +0.000 C 
ATOM      3  O   UNL     1       3.492   2.950  18.842  0.00  0.00    +0.000 OA
ENDROOT
BRANCH   1   4
ATOM      4  C   UNL     1       2.578   6.329  19.576  0.00  0.00    +0.000 A 
ATOM      5  C   UNL     1       2.404   7.450  18.717  0.00  0.00    +0.000 A 
ATOM      6  N   UNL     1       1.717   8.437  19.285  0.00  0.00    +0.000 NA
ATOM      7  N   UNL     1       1.479   7.975  20.525  0.00  0.00    +0.000 N 
ATOM      8  C   UNL     1       0.793   8.809  21.481  0.00  0.00    +0.000 C 
ATOM      9  C   UNL     1       1.979   6.729  20.755  0.00  0.00    +0.000 A 
ENDBRANCH   1   4
BRANCH   2  10
ATOM     10  C   UNL     1       1.357   3.629  19.719  0.00  0.00    +0.000 C 
ATOM     11  C   UNL     1       0.540   2.650  18.863  0.00  0.00    +0.000 C 
ATOM     12  C   UNL     1       1.331   3.098  21.161  0.00  0.00    +0.000 C 
ENDBRANCH   2  10
BRANCH   1  13
ATOM     13  C   UNL     1       4.784   5.520  19.053  0.00  0.00    +0.000 C 
BRANCH  13  17
ATOM     14  C   UNL     1       6.653   4.656  15.260  0.00  0.00    +0.000 A 
ATOM     15  C   UNL     1       5.353   5.176  15.308  0.00  0.00    +0.000 A 
ATOM     16  C   UNL     1       4.780   5.583  16.514  0.00  0.00    +0.000 A 
ATOM     17  C   UNL     1       5.493   5.471  17.711  0.00  0.00    +0.000 A 
ATOM     18  C   UNL     1       6.828   4.995  17.653  0.00  0.00    +0.000 A 
ATOM     19  C   UNL     1       7.411   4.596  16.434  0.00  0.00    +0.000 A 
BRANCH  14  21
ATOM     20  C   UNL     1       5.975   3.730  13.152  0.00  0.00    +0.000 C 
ATOM     21  O   UNL     1       6.997   4.190  14.022  0.00  0.00    +0.000 OA
ENDBRANCH  14  21
BRANCH  18  22
ATOM     22  O   UNL     1       7.412   4.696  18.863  0.00  0.00    +0.000 OA
ATOM     23  C   UNL     1       8.106   5.744  19.524  0.00  0.00    +0.000 C 
ENDBRANCH  18  22
ENDBRANCH  13  17
ENDBRANCH   1  13
TORSDOF 6
ENDMDL
MODEL 2
REMARK VINA RESULT:      -7.2      1.198      1.470
REMARK  Name = 
REMARK  11 active torsions:
REMARK  status: ('A' for Active; 'I' for Inactive)
REMARK    1  A    between atoms: C_1  and  O_2
REMARK    2  A    between atoms: O_2  and  C_3
REMARK    3  A    between atoms: C_6  and  C_7
REMARK    4  A    between atoms: C_7  and  N_8
REMARK    5  A    between atoms: N_8  and  C_14
REMARK    6  A    between atoms: C_9  and  C_11
REMARK    7  A    between atoms: C_11  and  C_12
REMARK    8  A    between atoms: C_11  and  C_13
REMARK    9  A    between atoms: N_17  and  C_18
REMARK   10  A    between atoms: C_20  and  O_21
REMARK   11  A    between atoms: O_21  and  C_22
REMARK                            x       y       z     vdW  Elec       q    Type
REMARK                         _______ _______ _______ _____ _____    ______ ____
ROOT
ATOM      1  N   UNL     1       3.750   4.410  19.001  0.00  0.00    +0.000 N 
ATOM      2  C   UNL     1       3.005   3.261  19.261  0.00  0.00    +0.000 C 
ATOM      3  O   UNL     1       3.436   2.137  18.957  0.00  0.00    +0.000 OA
ENDROOT
BRANCH   1   4
ATOM      4  C   UNL     1       3.207   5.703  19.104  0.00  0.00    +0.000 A 
ATOM      5  C   UNL     1       2.580   6.290  20.238  0.00  0.00    +0.000 A 
ATOM      6  N   UNL     1       2.037   7.475  19.975  0.00  0.00    +0.000 NA
ATOM      7  N   UNL     1       2.275   7.641  18.662  0.00  0.00    +0.000 N 
ATOM      8  C   UNL     1       1.773   8.811  17.984  0.00  0.00    +0.000 C 
ATOM      9  C   UNL     1       2.960   6.611  18.091  0.00  0.00    +0.000 A 
ENDBRANCH   1   4
BRANCH   2  10
ATOM     10  C   UNL     1       1.621   3.350  19.969  0.00  0.00    +0.000 C 
ATOM     11  C   UNL     1       0.448   2.637  19.281  0.00  0.00    +0.000 C 
ATOM     12  C   UNL     1       1.707   2.797  21.401  0.00  0.00    +0.000 C 
ENDBRANCH   2  10
BRANCH   1  13
ATOM     13  C   UNL     1       5.132   4.414  18.450  0.00  0.00    +0.000 C 
BRANCH  13  17
ATOM     14  C   UNL     1       6.727   4.635  14.446  0.00  0.00    +0.000 A 
ATOM     15  C   UNL     1       5.421   4.179  14.665  0.00  0.00    +0.000 A 
ATOM     16  C   UNL     1       4.842   4.221  15.935  0.00  0.00    +0.000 A 
ATOM     17  C   UNL     1       5.563   4.716  17.026  0.00  0.00    +0.000 A 
ATOM     18  C   UNL     1       6.864   5.227  16.792  0.00  0.00    +0.000 A 
ATOM     19  C   UNL     1       7.444   5.196  15.508  0.00  0.00    +0.000 A 
BRANCH  14  21
ATOM     20  C   UNL     1       6.420   3.534  12.336  0.00  0.00    +0.000 C 
ATOM     21  O   UNL     1       7.171   4.395  13.176  0.00  0.00    +0.000 OA
ENDBRANCH  14  21
BRANCH  18  22
ATOM     22  O   UNL     1       7.613   5.498  17.914  0.00  0.00    +0.000 OA
ATOM     23  C   UNL     1       7.865   6.864  18.212  0.00  0.00    +0.000 C 
ENDBRANCH  18  22
ENDBRANCH  13  17
ENDBRANCH   1  13
TORSDOF 6
ENDMDL
MODEL 3
REMARK VINA RESULT:      -6.9      1.765      3.344
REMARK  Name = 
REMARK  11 active torsions:
REMARK  status: ('A' for Active; 'I' for Inactive)
REMARK    1  A    between atoms: C_1  and  O_2
REMARK    2  A    between atoms: O_2  and  C_3
REMARK    3  A    between atoms: C_6  and  C_7
REMARK    4  A    between atoms: C_7  and  N_8
REMARK    5  A    between atoms: N_8  and  C_14
REMARK    6  A    between atoms: C_9  and  C_11
REMARK    7  A    between atoms: C_11  and  C_12
REMARK    8  A    between atoms: C_11  and  C_13
REMARK    9  A    between atoms: N_17  and  C_18
REMARK   10  A    between atoms: C_20  and  O_21
REMARK   11  A    between atoms: O_21  and  C_22
REMARK                            x       y       z     vdW  Elec       q    Type
REMARK                         _______ _______ _______ _____ _____    ______ ____
ROOT
ATOM      1  N   UNL     1       3.793   3.927  18.353  0.00  0.00    +0.000 N 
ATOM      2  C   UNL     1       2.962   2.836  18.604  0.00  0.00    +0.000 C 
ATOM      3  O   UNL     1       3.258   1.701  18.199  0.00  0.00    +0.000 OA
ENDROOT
BRANCH   1   4
ATOM      4  C   UNL     1       3.387   5.254  18.577  0.00  0.00    +0.000 A 
ATOM      5  C   UNL     1       3.128   5.880  19.829  0.00  0.00    +0.000 A 
ATOM      6  N   UNL     1       2.617   7.101  19.702  0.00  0.00    +0.000 NA
ATOM      7  N   UNL     1       2.506   7.254  18.371  0.00  0.00    +0.000 N 
ATOM      8  C   UNL     1       1.922   8.459  17.834  0.00  0.00    +0.000 C 
ATOM      9  C   UNL     1       2.941   6.181  17.654  0.00  0.00    +0.000 A 
ENDBRANCH   1   4
BRANCH   2  10
ATOM     10  C   UNL     1       1.651   3.004  19.427  0.00  0.00    +0.000 C 
ATOM     11  C   UNL     1       0.411   2.264  18.905  0.00  0.00    +0.000 C 
ATOM     12  C   UNL     1       1.863   2.558  20.882  0.00  0.00    +0.000 C 
ENDBRANCH   2  10
BRANCH   1  13
ATOM     13  C   UNL     1       5.124   3.841  17.692  0.00  0.00    +0.000 C 
BRANCH  13  17
ATOM     14  C   UNL     1       7.931   7.068  18.264  0.00  0.00    +0.000 A 
ATOM     15  C   UNL     1       7.713   6.129  19.281  0.00  0.00    +0.000 A 
ATOM     16  C   UNL     1       6.909   5.008  19.071  0.00  0.00    +0.000 A 
ATOM     17  C   UNL     1       6.293   4.800  17.833  0.00  0.00    +0.000 A 
ATOM     18  C   UNL     1       6.558   5.722  16.790  0.00  0.00    +0.000 A 
ATOM     19  C   UNL     1       7.380   6.847  16.998  0.00  0.00    +0.000 A 
BRANCH  14  21
ATOM     20  C   UNL     1       8.362   9.424  18.099  0.00  0.00    +0.000 C 
ATOM     21  O   UNL     1       8.632   8.162  18.689  0.00  0.00    +0.000 OA
ENDBRANCH  14  21
BRANCH  18  22
ATOM     22  O   UNL     1       5.768   5.604  15.669  0.00  0.00    +0.000 OA
ATOM     23  C   UNL     1       6.313   4.899  14.563  0.00  0.00    +0.000 C 
ENDBRANCH  18  22
ENDBRANCH  13  17
ENDBRANCH   1  13
TORSDOF 6
ENDMDL
MODEL 4
REMARK VINA RESULT:      -6.7      1.170      1.430
REMARK  Name = 
REMARK  11 active torsions:
REMARK  status: ('A' for Active; 'I' for Inactive)
REMARK    1  A    between atoms: C_1  and  O_2
REMARK    2  A    between atoms: O_2  and  C_3
REMARK    3  A    between atoms: C_6  and  C_7
REMARK    4  A    between atoms: C_7  and  N_8
REMARK    5  A    between atoms: N_8  and  C_14
REMARK    6  A    between atoms: C_9  and  C_11
REMARK    7  A    between atoms: C_11  and  C_12
REMARK    8  A    between atoms: C_11  and  C_13
REMARK    9  A    between atoms: N_17  and  C_18
REMARK   10  A    between atoms: C_20  and  O_21
REMARK   11  A    between atoms: O_21  and  C_22
REMARK                            x       y       z     vdW  Elec       q    Type
REMARK                         _______ _______ _______ _____ _____    ______ ____
ROOT
ATOM      1  N   UNL     1       3.665   3.652  19.066  0.00  0.00    +0.000 N 
ATOM      2  C   UNL     1       3.099   2.381  19.143  0.00  0.00    +0.000 C 
ATOM      3  O   UNL     1       3.730   1.377  18.776  0.00  0.00    +0.000 OA
ENDROOT
BRANCH   1   4
ATOM      4  C   UNL     1       2.913   4.827  19.240  0.00  0.00    +0.000 A 
ATOM      5  C   UNL     1       2.414   5.693  18.227  0.00  0.00    +0.000 A 
ATOM      6  N   UNL     1       1.867   6.802  18.715  0.00  0.00    +0.000 NA
ATOM      7  N   UNL     1       2.045   6.676  20.043  0.00  0.00    +0.000 N 
ATOM      8  C   UNL     1       1.624   7.736  20.926  0.00  0.00    +0.000 C 
ATOM      9  C   UNL     1       2.672   5.524  20.409  0.00  0.00    +0.000 A 
ENDBRANCH   1   4
BRANCH   2  10
ATOM     10  C   UNL     1       1.668   2.178  19.721  0.00  0.00    +0.000 C 
ATOM     11  C   UNL     1       1.397   2.767  21.113  0.00  0.00    +0.000 C 
ATOM     12  C   UNL     1       0.610   2.762  18.770  0.00  0.00    +0.000 C 
ENDBRANCH   2  10
BRANCH   1  13
ATOM     13  C   UNL     1       5.068   3.929  18.653  0.00  0.00    +0.000 C 
BRANCH  13  17
ATOM     14  C   UNL     1       6.724   4.569  14.719  0.00  0.00    +0.000 A 
ATOM     15  C   UNL     1       5.356   4.308  14.880  0.00  0.00    +0.000 A 
ATOM     16  C   UNL     1       4.778   4.227  16.148  0.00  0.00    +0.000 A 
ATOM     17  C   UNL     1       5.559   4.396  17.295  0.00  0.00    +0.000 A 
ATOM     18  C   UNL     1       6.931   4.713  17.129  0.00  0.00    +0.000 A 
ATOM     19  C   UNL     1       7.512   4.808  15.849  0.00  0.00    +0.000 A 
BRANCH  14  21
ATOM     20  C   UNL     1       6.425   3.636  12.528  0.00  0.00    +0.000 C 
ATOM     21  O   UNL     1       7.135   4.481  13.419  0.00  0.00    +0.000 OA
ENDBRANCH  14  21
BRANCH  18  22
ATOM     22  O   UNL     1       7.702   4.656  18.268  0.00  0.00    +0.000 OA
ATOM     23  C   UNL     1       7.908   5.871  18.974  0.00  0.00    +0.000 C 
ENDBRANCH  18  22
ENDBRANCH  13  17
ENDBRANCH   1  13
TORSDOF 6
ENDMDL
MODEL 5
REMARK VINA RESULT:      -6.6      3.133      6.235
REMARK  Name = 
REMARK  11 active torsions:
REMARK  status: ('A' for Active; 'I' for Inactive)
REMARK    1  A    between atoms: C_1  and  O_2
REMARK    2  A    between atoms: O_2  and  C_3
REMARK    3  A    between atoms: C_6  and  C_7
REMARK    4  A    between atoms: C_7  and  N_8
REMARK    5  A    between atoms: N_8  and  C_14
REMARK    6  A    between atoms: C_9  and  C_11
REMARK    7  A    between atoms: C_11  and  C_12
REMARK    8  A    between atoms: C_11  and  C_13
REMARK    9  A    between atoms: N_17  and  C_18
REMARK   10  A    between atoms: C_20  and  O_21
REMARK   11  A    between atoms: O_21  and  C_22
REMARK                            x       y       z     vdW  Elec       q    Type
REMARK                         _______ _______ _______ _____ _____    ______ ____
ROOT
ATOM      1  N   UNL     1       2.680   5.493  19.437  0.00  0.00    +0.000 N 
ATOM      2  C   UNL     1       1.872   4.371  19.614  0.00  0.00    +0.000 C 
ATOM      3  O   UNL     1       0.957   4.368  20.454  0.00  0.00    +0.000 OA
ENDROOT
BRANCH   1   4
ATOM      4  C   UNL     1       3.865   5.461  18.682  0.00  0.00    +0.000 A 
ATOM      5  C   UNL     1       3.988   5.476  17.264  0.00  0.00    +0.000 A 
ATOM      6  N   UNL     1       5.237   5.285  16.850  0.00  0.00    +0.000 NA
ATOM      7  N   UNL     1       5.919   5.106  17.995  0.00  0.00    +0.000 N 
ATOM      8  C   UNL     1       7.329   4.806  17.950  0.00  0.00    +0.000 C 
ATOM      9  C   UNL     1       5.149   5.190  19.115  0.00  0.00    +0.000 A 
ENDBRANCH   1   4
BRANCH   2  10
ATOM     10  C   UNL     1       2.074   3.097  18.743  0.00  0.00    +0.000 C 
ATOM     11  C   UNL     1       3.176   2.125  19.189  0.00  0.00    +0.000 C 
ATOM     12  C   UNL     1       0.769   2.288  18.653  0.00  0.00    +0.000 C 
ENDBRANCH   2  10
BRANCH   1  13
ATOM     13  C   UNL     1       2.479   6.796  20.128  0.00  0.00    +0.000 C 
BRANCH  13  17
ATOM     14  C   UNL     1       1.127  10.695  18.863  0.00  0.00    +0.000 A 
ATOM     15  C   UNL     1       1.788   9.847  17.964  0.00  0.00    +0.000 A 
ATOM     16  C   UNL     1       2.117   8.536  18.314  0.00  0.00    +0.000 A 
ATOM     17  C   UNL     1       1.800   8.040  19.582  0.00  0.00    +0.000 A 
ATOM     18  C   UNL     1       1.084   8.882  20.470  0.00  0.00    +0.000 A 
ATOM     19  C   UNL     1       0.740  10.200  20.112  0.00  0.00    +0.000 A 
BRANCH  14  21
ATOM     20  C   UNL     1       2.130  12.837  18.457  0.00  0.00    +0.000 C 
ATOM     21  O   UNL     1       1.006  11.974  18.399  0.00  0.00    +0.000 OA
ENDBRANCH  14  21
BRANCH  18  22
ATOM     22  O   UNL     1       0.986   8.439  21.769  0.00  0.00    +0.000 OA
ATOM     23  C   UNL     1       0.512   9.364  22.736  0.00  0.00    +0.000 C 
ENDBRANCH  18  22
ENDBRANCH  13  17
ENDBRANCH   1  13
TORSDOF 6
ENDMDL
MODEL 6
REMARK VINA RESULT:      -6.5      2.060      3.453
REMARK  Name = 
REMARK  11 active torsions:
REMARK  status: ('A' for Active; 'I' for Inactive)
REMARK    1  A    between atoms: C_1  and  O_2
REMARK    2  A    between atoms: O_2  and  C_3
REMARK    3  A    between atoms: C_6  and  C_7
REMARK    4  A    between atoms: C_7  and  N_8
REMARK    5  A    between atoms: N_8  and  C_14
REMARK    6  A    between atoms: C_9  and  C_11
REMARK    7  A    between atoms: C_11  and  C_12
REMARK    8  A    between atoms: C_11  and  C_13
REMARK    9  A    between atoms: N_17  and  C_18
REMARK   10  A    between atoms: C_20  and  O_21
REMARK   11  A    between atoms: O_21  and  C_22
REMARK                            x       y       z     vdW  Elec       q    Type
REMARK                         _______ _______ _______ _____ _____    ______ ____
ROOT
ATOM      1  N   UNL     1       3.674   5.265  18.040  0.00  0.00    +0.000 N 
ATOM      2  C   UNL     1       3.463   6.643  18.035  0.00  0.00    +0.000 C 
ATOM      3  O   UNL     1       4.322   7.420  17.587  0.00  0.00    +0.000 OA
ENDROOT
BRANCH   1   4
ATOM      4  C   UNL     1       2.846   4.376  18.747  0.00  0.00    +0.000 A 
ATOM      5  C   UNL     1       1.606   3.823  18.321  0.00  0.00    +0.000 A 
ATOM      6  N   UNL     1       0.991   3.132  19.276  0.00  0.00    +0.000 NA
ATOM      7  N   UNL     1       1.810   3.269  20.335  0.00  0.00    +0.000 N 
ATOM      8  C   UNL     1       1.442   2.694  21.605  0.00  0.00    +0.000 C 
ATOM      9  C   UNL     1       2.924   4.009  20.078  0.00  0.00    +0.000 A 
ENDBRANCH   1   4
BRANCH   2  10
ATOM     10  C   UNL     1       2.130   7.249  18.563  0.00  0.00    +0.000 C 
ATOM     11  C   UNL     1       2.041   7.505  20.074  0.00  0.00    +0.000 C 
ATOM     12  C   UNL     1       1.823   8.582  17.861  0.00  0.00    +0.000 C 
ENDBRANCH   2  10
BRANCH   1  13
ATOM     13  C   UNL     1       4.855   4.589  17.438  0.00  0.00    +0.000 C 
BRANCH  13  17
ATOM     14  C   UNL     1       6.748   4.425  13.563  0.00  0.00    +0.000 A 
ATOM     15  C   UNL     1       5.404   4.059  13.712  0.00  0.00    +0.000 A 
ATOM     16  C   UNL     1       4.738   4.228  14.927  0.00  0.00    +0.000 A 
ATOM     17  C   UNL     1       5.406   4.761  16.033  0.00  0.00    +0.000 A 
ATOM     18  C   UNL     1       6.750   5.179  15.866  0.00  0.00    +0.000 A 
ATOM     19  C   UNL     1       7.418   5.022  14.636  0.00  0.00    +0.000 A 
BRANCH  14  21
ATOM     20  C   UNL     1       6.754   2.920  11.693  0.00  0.00    +0.000 C 
ATOM     21  O   UNL     1       7.268   4.067  12.351  0.00  0.00    +0.000 OA
ENDBRANCH  14  21
BRANCH  18  22
ATOM     22  O   UNL     1       7.430   5.491  17.021  0.00  0.00    +0.000 OA
ATOM     23  C   UNL     1       7.567   6.868  17.342  0.00  0.00    +0.000 C 
ENDBRANCH  18  22
ENDBRANCH  13  17
ENDBRANCH   1  13
TORSDOF 6
ENDMDL
MODEL 7
REMARK VINA RESULT:      -6.5      2.673      6.333
REMARK  Name = 
REMARK  11 active torsions:
REMARK  status: ('A' for Active; 'I' for Inactive)
REMARK    1  A    between atoms: C_1  and  O_2
REMARK    2  A    between atoms: O_2  and  C_3
REMARK    3  A    between atoms: C_6  and  C_7
REMARK    4  A    between atoms: C_7  and  N_8
REMARK    5  A    between atoms: N_8  and  C_14
REMARK    6  A    between atoms: C_9  and  C_11
REMARK    7  A    between atoms: C_11  and  C_12
REMARK    8  A    between atoms: C_11  and  C_13
REMARK    9  A    between atoms: N_17  and  C_18
REMARK   10  A    between atoms: C_20  and  O_21
REMARK   11  A    between atoms: O_21  and  C_22
REMARK                            x       y       z     vdW  Elec       q    Type
REMARK                         _______ _______ _______ _____ _____    ______ ____
ROOT
ATOM      1  N   UNL     1       4.695   5.665  17.134  0.00  0.00    +0.000 N 
ATOM      2  C   UNL     1       5.110   5.702  15.804  0.00  0.00    +0.000 C 
ATOM      3  O   UNL     1       5.191   6.778  15.189  0.00  0.00    +0.000 OA
ENDROOT
BRANCH   1   4
ATOM      4  C   UNL     1       4.359   4.467  17.788  0.00  0.00    +0.000 A 
ATOM      5  C   UNL     1       3.162   3.711  17.649  0.00  0.00    +0.000 A 
ATOM      6  N   UNL     1       3.081   2.704  18.514  0.00  0.00    +0.000 NA
ATOM      7  N   UNL     1       4.205   2.829  19.242  0.00  0.00    +0.000 N 
ATOM      8  C   UNL     1       4.449   1.931  20.344  0.00  0.00    +0.000 C 
ATOM      9  C   UNL     1       4.997   3.868  18.858  0.00  0.00    +0.000 A 
ENDBRANCH   1   4
BRANCH   2  10
ATOM     10  C   UNL     1       5.514   4.397  15.057  0.00  0.00    +0.000 C 
ATOM     11  C   UNL     1       5.279   4.371  13.540  0.00  0.00    +0.000 C 
ATOM     12  C   UNL     1       7.000   4.077  15.289  0.00  0.00    +0.000 C 
ENDBRANCH   2  10
BRANCH   1  13
ATOM     13  C   UNL     1       4.416   6.867  17.966  0.00  0.00    +0.000 C 
BRANCH  13  17
ATOM     14  C   UNL     1       0.975   9.195  19.133  0.00  0.00    +0.000 A 
ATOM     15  C   UNL     1       1.650   9.477  17.937  0.00  0.00    +0.000 A 
ATOM     16  C   UNL     1       2.682   8.657  17.478  0.00  0.00    +0.000 A 
ATOM     17  C   UNL     1       3.074   7.533  18.212  0.00  0.00    +0.000 A 
ATOM     18  C   UNL     1       2.355   7.221  19.393  0.00  0.00    +0.000 A 
ATOM     19  C   UNL     1       1.304   8.041  19.849  0.00  0.00    +0.000 A 
BRANCH  14  21
ATOM     20  C   UNL     1      -0.910  10.568  18.563  0.00  0.00    +0.000 C 
ATOM     21  O   UNL     1       0.090  10.174  19.489  0.00  0.00    +0.000 OA
ENDBRANCH  14  21
BRANCH  18  22
ATOM     22  O   UNL     1       2.907   6.245  20.191  0.00  0.00    +0.000 OA
ATOM     23  C   UNL     1       2.017   5.309  20.782  0.00  0.00    +0.000 C 
ENDBRANCH  18  22
ENDBRANCH  13  17
ENDBRANCH   1  13
TORSDOF 6
ENDMDL
MODEL 8
REMARK VINA RESULT:      -6.4      1.745      3.138
REMARK  Name = 
REMARK  11 active torsions:
REMARK  status: ('A' for Active; 'I' for Inactive)
REMARK    1  A    between atoms: C_1  and  O_2
REMARK    2  A    between atoms: O_2  and  C_3
REMARK    3  A    between atoms: C_6  and  C_7
REMARK    4  A    between atoms: C_7  and  N_8
REMARK    5  A    between atoms: N_8  and  C_14
REMARK    6  A    between atoms: C_9  and  C_11
REMARK    7  A    between atoms: C_11  and  C_12
REMARK    8  A    between atoms: C_11  and  C_13
REMARK    9  A    between atoms: N_17  and  C_18
REMARK   10  A    between atoms: C_20  and  O_21
REMARK   11  A    between atoms: O_21  and  C_22
REMARK                            x       y       z     vdW  Elec       q    Type
REMARK                         _______ _______ _______ _____ _____    ______ ____
ROOT
ATOM      1  N   UNL     1       3.636   4.113  18.827  0.00  0.00    +0.000 N 
ATOM      2  C   UNL     1       3.093   3.010  19.484  0.00  0.00    +0.000 C 
ATOM      3  O   UNL     1       3.543   1.868  19.295  0.00  0.00    +0.000 OA
ENDROOT
BRANCH   1   4
ATOM      4  C   UNL     1       3.013   5.374  18.824  0.00  0.00    +0.000 A 
ATOM      5  C   UNL     1       2.864   6.262  17.722  0.00  0.00    +0.000 A 
ATOM      6  N   UNL     1       2.361   7.442  18.072  0.00  0.00    +0.000 NA
ATOM      7  N   UNL     1       2.220   7.336  19.406  0.00  0.00    +0.000 N 
ATOM      8  C   UNL     1       1.745   8.464  20.169  0.00  0.00    +0.000 C 
ATOM      9  C   UNL     1       2.603   6.128  19.906  0.00  0.00    +0.000 A 
ENDBRANCH   1   4
BRANCH   2  10
ATOM     10  C   UNL     1       1.925   3.181  20.500  0.00  0.00    +0.000 C 
ATOM     11  C   UNL     1       0.519   2.822  19.999  0.00  0.00    +0.000 C 
ATOM     12  C   UNL     1       2.180   2.346  21.765  0.00  0.00    +0.000 C 
ENDBRANCH   2  10
BRANCH   1  13
ATOM     13  C   UNL     1       4.833   4.066  17.944  0.00  0.00    +0.000 C 
BRANCH  13  17
ATOM     14  C   UNL     1       7.916   7.064  18.306  0.00  0.00    +0.000 A 
ATOM     15  C   UNL     1       7.601   6.235  19.391  0.00  0.00    +0.000 A 
ATOM     16  C   UNL     1       6.702   5.177  19.257  0.00  0.00    +0.000 A 
ATOM     17  C   UNL     1       6.083   4.924  18.029  0.00  0.00    +0.000 A 
ATOM     18  C   UNL     1       6.442   5.730  16.920  0.00  0.00    +0.000 A 
ATOM     19  C   UNL     1       7.361   6.791  17.052  0.00  0.00    +0.000 A 
BRANCH  14  21
ATOM     20  C   UNL     1       8.419   9.404  18.119  0.00  0.00    +0.000 C 
ATOM     21  O   UNL     1       8.708   8.122  18.654  0.00  0.00    +0.000 OA
ENDBRANCH  14  21
BRANCH  18  22
ATOM     22  O   UNL     1       5.658   5.592  15.798  0.00  0.00    +0.000 OA
ATOM     23  C   UNL     1       6.264   5.019  14.648  0.00  0.00    +0.000 C 
ENDBRANCH  18  22
ENDBRANCH  13  17
ENDBRANCH   1  13
TORSDOF 6
ENDMDL
MODEL 9
REMARK VINA RESULT:      -6.3      2.642      6.403
REMARK  Name = 
REMARK  11 active torsions:
REMARK  status: ('A' for Active; 'I' for Inactive)
REMARK    1  A    between atoms: C_1  and  O_2
REMARK    2  A    between atoms: O_2  and  C_3
REMARK    3  A    between atoms: C_6  and  C_7
REMARK    4  A    between atoms: C_7  and  N_8
REMARK    5  A    between atoms: N_8  and  C_14
REMARK    6  A    between atoms: C_9  and  C_11
REMARK    7  A    between atoms: C_11  and  C_12
REMARK    8  A    between atoms: C_11  and  C_13
REMARK    9  A    between atoms: N_17  and  C_18
REMARK   10  A    between atoms: C_20  and  O_21
REMARK   11  A    between atoms: O_21  and  C_22
REMARK                            x       y       z     vdW  Elec       q    Type
REMARK                         _______ _______ _______ _____ _____    ______ ____
ROOT
ATOM      1  N   UNL     1       4.546   5.808  17.162  0.00  0.00    +0.000 N 
ATOM      2  C   UNL     1       5.092   5.750  15.880  0.00  0.00    +0.000 C 
ATOM      3  O   UNL     1       5.330   6.787  15.240  0.00  0.00    +0.000 OA
ENDROOT
BRANCH   1   4
ATOM      4  C   UNL     1       4.041   4.673  17.820  0.00  0.00    +0.000 A 
ATOM      5  C   UNL     1       4.733   3.816  18.720  0.00  0.00    +0.000 A 
ATOM      6  N   UNL     1       4.026   2.742  19.061  0.00  0.00    +0.000 NA
ATOM      7  N   UNL     1       2.891   2.881  18.352  0.00  0.00    +0.000 N 
ATOM      8  C   UNL     1       1.878   1.856  18.413  0.00  0.00    +0.000 C 
ATOM      9  C   UNL     1       2.852   4.008  17.588  0.00  0.00    +0.000 A 
ENDBRANCH   1   4
BRANCH   2  10
ATOM     10  C   UNL     1       5.449   4.384  15.225  0.00  0.00    +0.000 C 
ATOM     11  C   UNL     1       5.356   4.309  13.694  0.00  0.00    +0.000 C 
ATOM     12  C   UNL     1       6.872   3.951  15.613  0.00  0.00    +0.000 C 
ENDBRANCH   2  10
BRANCH   1  13
ATOM     13  C   UNL     1       4.296   7.065  17.918  0.00  0.00    +0.000 C 
BRANCH  13  17
ATOM     14  C   UNL     1       0.877   9.345  19.235  0.00  0.00    +0.000 A 
ATOM     15  C   UNL     1       1.506   9.647  18.020  0.00  0.00    +0.000 A 
ATOM     16  C   UNL     1       2.529   8.843  17.514  0.00  0.00    +0.000 A 
ATOM     17  C   UNL     1       2.958   7.715  18.219  0.00  0.00    +0.000 A 
ATOM     18  C   UNL     1       2.284   7.381  19.421  0.00  0.00    +0.000 A 
ATOM     19  C   UNL     1       1.242   8.185  19.925  0.00  0.00    +0.000 A 
BRANCH  14  21
ATOM     20  C   UNL     1       0.488  11.600  19.958  0.00  0.00    +0.000 C 
ATOM     21  O   UNL     1      -0.004  10.310  19.635  0.00  0.00    +0.000 OA
ENDBRANCH  14  21
BRANCH  18  22
ATOM     22  O   UNL     1       2.873   6.401  20.187  0.00  0.00    +0.000 OA
ATOM     23  C   UNL     1       2.013   5.450  20.798  0.00  0.00    +0.000 C 
ENDBRANCH  18  22
ENDBRANCH  13  17
ENDBRANCH   1  13
TORSDOF 6
ENDMDL
