MODEL 1
REMARK VINA RESULT:      -7.8      0.000      0.000
REMARK  Name = 
REMARK  8 active torsions:
REMARK  status: ('A' for Active; 'I' for Inactive)
REMARK    1  A    between atoms: C_1  and  N_2
REMARK    2  A    between atoms: C_3  and  N_4
REMARK    3  A    between atoms: C_5  and  C_7
REMARK    4  A    between atoms: C_10  and  C_11
REMARK    5  A    between atoms: C_11  and  C_12
REMARK    6  A    between atoms: C_11  and  C_13
REMARK    7  A    between atoms: C_11  and  C_14
REMARK    8  A    between atoms: N_20  and  C_21
REMARK                            x       y       z     vdW  Elec       q    Type
REMARK                         _______ _______ _______ _____ _____    ______ ____
ROOT
ATOM      1  N   UNL     1       1.862   8.290  19.806  0.00  0.00    +0.000 N 
ATOM      2  C   UNL     1       2.091   6.930  19.966  0.00  0.00    +0.000 C 
ATOM      3  O   UNL     1       1.478   6.216  20.757  0.00  0.00    +0.000 OA
ATOM      4  H   UNL     1       2.313   8.756  19.036  0.00  0.00    +0.000 HD
ENDROOT
BRANCH   1   7
ATOM      5  C   UNL     1      -0.022  10.058  18.576  0.00  0.00    +0.000 C 
ATOM      6  N   UNL     1       0.154   9.975  20.020  0.00  0.00    +0.000 N 
ATOM      7  C   UNL     1       1.023   9.064  20.605  0.00  0.00    +0.000 A 
ATOM      8  C   UNL     1       1.063   8.971  21.940  0.00  0.00    +0.000 A 
ATOM      9  C   UNL     1       0.192   9.779  22.796  0.00  0.00    +0.000 A 
ATOM     10  O   UNL     1       0.246   9.627  24.014  0.00  0.00    +0.000 OA
ATOM     11  N   UNL     1      -0.624  10.673  22.149  0.00  0.00    +0.000 N 
ATOM     12  C   UNL     1      -1.522  11.494  22.940  0.00  0.00    +0.000 C 
ATOM     13  C   UNL     1      -0.660  10.833  20.773  0.00  0.00    +0.000 A 
ATOM     14  O   UNL     1      -1.379  11.683  20.242  0.00  0.00    +0.000 OA
ENDBRANCH   1   7
BRANCH   2  15
ATOM     15  C   UNL     1       3.133   6.270  19.130  0.00  0.00    +0.000 A 
ATOM     16  C   UNL     1       3.422   6.891  17.910  0.00  0.00    +0.000 A 
ATOM     17  C   UNL     1       4.430   6.415  17.072  0.00  0.00    +0.000 A 
ATOM     18  C   UNL     1       5.200   5.299  17.422  0.00  0.00    +0.000 A 
ATOM     19  C   UNL     1       4.887   4.660  18.640  0.00  0.00    +0.000 A 
ATOM     20  C   UNL     1       3.866   5.138  19.491  0.00  0.00    +0.000 A 
BRANCH  18  21
ATOM     21  C   UNL     1       6.371   4.823  16.537  0.00  0.00    +0.000 C 
ATOM     22  C   UNL     1       6.842   5.892  15.518  0.00  0.00    +0.000 C 
ATOM     23  C   UNL     1       7.586   4.479  17.423  0.00  0.00    +0.000 C 
ATOM     24  C   UNL     1       5.972   3.573  15.726  0.00  0.00    +0.000 C 
ENDBRANCH  18  21
ENDBRANCH   2  15
TORSDOF 3
ENDMDL
MODEL 2
REMARK VINA RESULT:      -7.5      2.800      8.531
REMARK  Name = 
REMARK  8 active torsions:
REMARK  status: ('A' for Active; 'I' for Inactive)
REMARK    1  A    between atoms: C_1  and  N_2
REMARK    2  A    between atoms: C_3  and  N_4
REMARK    3  A    between atoms: C_5  and  C_7
REMARK    4  A    between atoms: C_10  and  C_11
REMARK    5  A    between atoms: C_11  and  C_12
REMARK    6  A    between atoms: C_11  and  C_13
REMARK    7  A    between atoms: C_11  and  C_14
REMARK    8  A    between atoms: N_20  and  C_21
REMARK                            x       y       z     vdW  Elec       q    Type
REMARK                         _______ _______ _______ _____ _____    ______ ____
ROOT
ATOM      1  N   UNL     1       2.528   7.319  18.801  0.00  0.00    +0.000 N 
ATOM      2  C   UNL     1       1.980   8.519  18.370  0.00  0.00    +0.000 C 
ATOM      3  O   UNL     1       2.036   8.927  17.212  0.00  0.00    +0.000 OA
ATOM      4  H   UNL     1       2.307   7.007  19.732  0.00  0.00    +0.000 HD
ENDROOT
BRANCH   1   7
ATOM      5  C   UNL     1       1.882   4.540  18.586  0.00  0.00    +0.000 C 
ATOM      6  N   UNL     1       3.072   5.121  17.979  0.00  0.00    +0.000 N 
ATOM      7  C   UNL     1       3.337   6.483  18.033  0.00  0.00    +0.000 A 
ATOM      8  C   UNL     1       4.395   6.965  17.369  0.00  0.00    +0.000 A 
ATOM      9  C   UNL     1       5.258   6.101  16.561  0.00  0.00    +0.000 A 
ATOM     10  O   UNL     1       6.194   6.603  15.945  0.00  0.00    +0.000 OA
ATOM     11  N   UNL     1       4.949   4.764  16.573  0.00  0.00    +0.000 N 
ATOM     12  C   UNL     1       5.757   3.857  15.781  0.00  0.00    +0.000 C 
ATOM     13  C   UNL     1       3.893   4.220  17.285  0.00  0.00    +0.000 A 
ATOM     14  O   UNL     1       3.683   3.004  17.298  0.00  0.00    +0.000 OA
ENDBRANCH   1   7
BRANCH   2  15
ATOM     15  C   UNL     1       1.263   9.380  19.354  0.00  0.00    +0.000 A 
ATOM     16  C   UNL     1       0.869  10.639  18.891  0.00  0.00    +0.000 A 
ATOM     17  C   UNL     1       0.126  11.508  19.690  0.00  0.00    +0.000 A 
ATOM     18  C   UNL     1      -0.263  11.151  20.986  0.00  0.00    +0.000 A 
ATOM     19  C   UNL     1       0.160   9.891  21.458  0.00  0.00    +0.000 A 
ATOM     20  C   UNL     1       0.914   9.008  20.653  0.00  0.00    +0.000 A 
BRANCH  18  21
ATOM     21  C   UNL     1      -1.158  12.075  21.840  0.00  0.00    +0.000 C 
ATOM     22  C   UNL     1      -0.445  13.379  22.281  0.00  0.00    +0.000 C 
ATOM     23  C   UNL     1      -2.400  12.493  21.026  0.00  0.00    +0.000 C 
ATOM     24  C   UNL     1      -1.618  11.357  23.125  0.00  0.00    +0.000 C 
ENDBRANCH  18  21
ENDBRANCH   2  15
TORSDOF 3
ENDMDL
MODEL 3
REMARK VINA RESULT:      -7.5      0.435      1.086
REMARK  Name = 
REMARK  8 active torsions:
REMARK  status: ('A' for Active; 'I' for Inactive)
REMARK    1  A    between atoms: C_1  and  N_2
REMARK    2  A    between atoms: C_3  and  N_4
REMARK    3  A    between atoms: C_5  and  C_7
REMARK    4  A    between atoms: C_10  and  C_11
REMARK    5  A    between atoms: C_11  and  C_12
REMARK    6  A    between atoms: C_11  and  C_13
REMARK    7  A    between atoms: C_11  and  C_14
REMARK    8  A    between atoms: N_20  and  C_21
REMARK                            x       y       z     vdW  Elec       q    Type
REMARK                         _______ _______ _______ _____ _____    ______ ____
ROOT
ATOM      1  N   UNL     1       1.747   8.620  19.672  0.00  0.00    +0.000 N 
ATOM      2  C   UNL     1       2.111   7.285  19.788  0.00  0.00    +0.000 C 
ATOM      3  O   UNL     1       1.621   6.505  20.603  0.00  0.00    +0.000 OA
ATOM      4  H   UNL     1       2.100   9.137  18.884  0.00  0.00    +0.000 HD
ENDROOT
BRANCH   1   7
ATOM      5  C   UNL     1      -0.288  10.327  18.609  0.00  0.00    +0.000 C 
ATOM      6  N   UNL     1      -0.048  10.184  20.038  0.00  0.00    +0.000 N 
ATOM      7  C   UNL     1       0.898   9.300  20.542  0.00  0.00    +0.000 A 
ATOM      8  C   UNL     1       0.998   9.144  21.868  0.00  0.00    +0.000 A 
ATOM      9  C   UNL     1       0.117   9.854  22.797  0.00  0.00    +0.000 A 
ATOM     10  O   UNL     1       0.231   9.647  24.002  0.00  0.00    +0.000 OA
ATOM     11  N   UNL     1      -0.776  10.728  22.229  0.00  0.00    +0.000 N 
ATOM     12  C   UNL     1      -1.687  11.451  23.095  0.00  0.00    +0.000 C 
ATOM     13  C   UNL     1      -0.879  10.953  20.866  0.00  0.00    +0.000 A 
ATOM     14  O   UNL     1      -1.669  11.782  20.407  0.00  0.00    +0.000 OA
ENDBRANCH   1   7
BRANCH   2  15
ATOM     15  C   UNL     1       3.150   6.737  18.870  0.00  0.00    +0.000 A 
ATOM     16  C   UNL     1       3.687   5.496  19.226  0.00  0.00    +0.000 A 
ATOM     17  C   UNL     1       4.611   4.843  18.412  0.00  0.00    +0.000 A 
ATOM     18  C   UNL     1       5.033   5.399  17.199  0.00  0.00    +0.000 A 
ATOM     19  C   UNL     1       4.509   6.663  16.857  0.00  0.00    +0.000 A 
ATOM     20  C   UNL     1       3.574   7.330  17.680  0.00  0.00    +0.000 A 
BRANCH  18  21
ATOM     21  C   UNL     1       5.989   4.639  16.255  0.00  0.00    +0.000 C 
ATOM     22  C   UNL     1       6.186   5.342  14.888  0.00  0.00    +0.000 C 
ATOM     23  C   UNL     1       7.382   4.524  16.908  0.00  0.00    +0.000 C 
ATOM     24  C   UNL     1       5.455   3.223  15.959  0.00  0.00    +0.000 C 
ENDBRANCH  18  21
ENDBRANCH   2  15
TORSDOF 3
ENDMDL
MODEL 4
REMARK VINA RESULT:      -7.4      2.315      4.070
REMARK  Name = 
REMARK  8 active torsions:
REMARK  status: ('A' for Active; 'I' for Inactive)
REMARK    1  A    between atoms: C_1  and  N_2
REMARK    2  A    between atoms: C_3  and  N_4
REMARK    3  A    between atoms: C_5  and  C_7
REMARK    4  A    between atoms: C_10  and  C_11
REMARK    5  A    between atoms: C_11  and  C_12
REMARK    6  A    between atoms: C_11  and  C_13
REMARK    7  A    between atoms: C_11  and  C_14
REMARK    8  A    between atoms: N_20  and  C_21
REMARK                            x       y       z     vdW  Elec       q    Type
REMARK                         _______ _______ _______ _____ _____    ______ ____
ROOT
ATOM      1  N   UNL     1       0.386  10.989  21.298  0.00  0.00    +0.000 N 
ATOM      2  C   UNL     1       0.108  10.408  20.068  0.00  0.00    +0.000 C 
ATOM      3  O   UNL     1      -0.860  10.703  19.370  0.00  0.00    +0.000 OA
ATOM      4  H   UNL     1       1.274  10.784  21.725  0.00  0.00    +0.000 HD
ENDROOT
BRANCH   1   7
ATOM      5  C   UNL     1       0.995  13.784  21.323  0.00  0.00    +0.000 C 
ATOM      6  N   UNL     1      -0.128  13.217  22.057  0.00  0.00    +0.000 N 
ATOM      7  C   UNL     1      -0.452  11.868  21.980  0.00  0.00    +0.000 A 
ATOM      8  C   UNL     1      -1.556  11.431  22.599  0.00  0.00    +0.000 A 
ATOM      9  C   UNL     1      -2.446  12.340  23.324  0.00  0.00    +0.000 A 
ATOM     10  O   UNL     1      -3.463  11.889  23.844  0.00  0.00    +0.000 OA
ATOM     11  N   UNL     1      -2.050  13.653  23.376  0.00  0.00    +0.000 N 
ATOM     12  C   UNL     1      -2.895  14.608  24.067  0.00  0.00    +0.000 C 
ATOM     13  C   UNL     1      -0.891  14.136  22.790  0.00  0.00    +0.000 A 
ATOM     14  O   UNL     1      -0.556  15.318  22.903  0.00  0.00    +0.000 OA
ENDBRANCH   1   7
BRANCH   2  15
ATOM     15  C   UNL     1       1.032   9.367  19.535  0.00  0.00    +0.000 A 
ATOM     16  C   UNL     1       1.364   8.335  20.419  0.00  0.00    +0.000 A 
ATOM     17  C   UNL     1       2.159   7.262  20.018  0.00  0.00    +0.000 A 
ATOM     18  C   UNL     1       2.651   7.170  18.711  0.00  0.00    +0.000 A 
ATOM     19  C   UNL     1       2.336   8.227  17.831  0.00  0.00    +0.000 A 
ATOM     20  C   UNL     1       1.532   9.316  18.233  0.00  0.00    +0.000 A 
BRANCH  18  21
ATOM     21  C   UNL     1       3.458   5.941  18.241  0.00  0.00    +0.000 C 
ATOM     22  C   UNL     1       4.341   5.326  19.357  0.00  0.00    +0.000 C 
ATOM     23  C   UNL     1       2.494   4.834  17.768  0.00  0.00    +0.000 C 
ATOM     24  C   UNL     1       4.400   6.317  17.079  0.00  0.00    +0.000 C 
ENDBRANCH  18  21
ENDBRANCH   2  15
TORSDOF 3
ENDMDL
MODEL 5
REMARK VINA RESULT:      -7.3      2.823      8.553
REMARK  Name = 
REMARK  8 active torsions:
REMARK  status: ('A' for Active; 'I' for Inactive)
REMARK    1  A    between atoms: C_1  and  N_2
REMARK    2  A    between atoms: C_3  and  N_4
REMARK    3  A    between atoms: C_5  and  C_7
REMARK    4  A    between atoms: C_10  and  C_11
REMARK    5  A    between atoms: C_11  and  C_12
REMARK    6  A    between atoms: C_11  and  C_13
REMARK    7  A    between atoms: C_11  and  C_14
REMARK    8  A    between atoms: N_20  and  C_21
REMARK                            x       y       z     vdW  Elec       q    Type
REMARK                         _______ _______ _______ _____ _____    ______ ____
ROOT
ATOM      1  N   UNL     1       2.279   7.378  18.585  0.00  0.00    +0.000 N 
ATOM      2  C   UNL     1       1.894   8.640  18.152  0.00  0.00    +0.000 C 
ATOM      3  O   UNL     1       2.240   9.137  17.082  0.00  0.00    +0.000 OA
ATOM      4  H   UNL     1       1.830   7.004  19.404  0.00  0.00    +0.000 HD
ENDROOT
BRANCH   1   7
ATOM      5  C   UNL     1       1.745   4.582  18.294  0.00  0.00    +0.000 C 
ATOM      6  N   UNL     1       2.997   5.193  17.869  0.00  0.00    +0.000 N 
ATOM      7  C   UNL     1       3.215   6.562  17.953  0.00  0.00    +0.000 A 
ATOM      8  C   UNL     1       4.348   7.071  17.452  0.00  0.00    +0.000 A 
ATOM      9  C   UNL     1       5.344   6.228  16.789  0.00  0.00    +0.000 A 
ATOM     10  O   UNL     1       6.349   6.753  16.317  0.00  0.00    +0.000 OA
ATOM     11  N   UNL     1       5.073   4.883  16.763  0.00  0.00    +0.000 N 
ATOM     12  C   UNL     1       6.014   3.995  16.108  0.00  0.00    +0.000 C 
ATOM     13  C   UNL     1       3.936   4.312  17.313  0.00  0.00    +0.000 A 
ATOM     14  O   UNL     1       3.759   3.091  17.303  0.00  0.00    +0.000 OA
ENDBRANCH   1   7
BRANCH   2  15
ATOM     15  C   UNL     1       0.996   9.457  19.016  0.00  0.00    +0.000 A 
ATOM     16  C   UNL     1       1.148   9.280  20.395  0.00  0.00    +0.000 A 
ATOM     17  C   UNL     1       0.421  10.040  21.310  0.00  0.00    +0.000 A 
ATOM     18  C   UNL     1      -0.487  11.018  20.886  0.00  0.00    +0.000 A 
ATOM     19  C   UNL     1      -0.656  11.174  19.494  0.00  0.00    +0.000 A 
ATOM     20  C   UNL     1       0.077  10.405  18.563  0.00  0.00    +0.000 A 
BRANCH  18  21
ATOM     21  C   UNL     1      -1.228  11.918  21.897  0.00  0.00    +0.000 C 
ATOM     22  C   UNL     1      -2.609  12.402  21.386  0.00  0.00    +0.000 C 
ATOM     23  C   UNL     1      -1.479  11.138  23.203  0.00  0.00    +0.000 C 
ATOM     24  C   UNL     1      -0.400  13.179  22.217  0.00  0.00    +0.000 C 
ENDBRANCH  18  21
ENDBRANCH   2  15
TORSDOF 3
ENDMDL
MODEL 6
REMARK VINA RESULT:      -7.2      2.308      3.819
REMARK  Name = 
REMARK  8 active torsions:
REMARK  status: ('A' for Active; 'I' for Inactive)
REMARK    1  A    between atoms: C_1  and  N_2
REMARK    2  A    between atoms: C_3  and  N_4
REMARK    3  A    between atoms: C_5  and  C_7
REMARK    4  A    between atoms: C_10  and  C_11
REMARK    5  A    between atoms: C_11  and  C_12
REMARK    6  A    between atoms: C_11  and  C_13
REMARK    7  A    between atoms: C_11  and  C_14
REMARK    8  A    between atoms: N_20  and  C_21
REMARK                            x       y       z     vdW  Elec       q    Type
REMARK                         _______ _______ _______ _____ _____    ______ ____
ROOT
ATOM      1  N   UNL     1       0.305  10.697  21.480  0.00  0.00    +0.000 N 
ATOM      2  C   UNL     1       0.195  10.254  20.169  0.00  0.00    +0.000 C 
ATOM      3  O   UNL     1      -0.545  10.764  19.329  0.00  0.00    +0.000 OA
ATOM      4  H   UNL     1       1.038  10.308  22.049  0.00  0.00    +0.000 HD
ENDROOT
BRANCH   1   7
ATOM      5  C   UNL     1       1.024  13.456  21.236  0.00  0.00    +0.000 C 
ATOM      6  N   UNL     1      -0.122  13.007  22.016  0.00  0.00    +0.000 N 
ATOM      7  C   UNL     1      -0.499  11.671  22.070  0.00  0.00    +0.000 A 
ATOM      8  C   UNL     1      -1.619  11.340  22.723  0.00  0.00    +0.000 A 
ATOM      9  C   UNL     1      -2.473  12.349  23.352  0.00  0.00    +0.000 A 
ATOM     10  O   UNL     1      -3.508  11.991  23.908  0.00  0.00    +0.000 OA
ATOM     11  N   UNL     1      -2.026  13.645  23.279  0.00  0.00    +0.000 N 
ATOM     12  C   UNL     1      -2.834  14.694  23.870  0.00  0.00    +0.000 C 
ATOM     13  C   UNL     1      -0.848  14.022  22.654  0.00  0.00    +0.000 A 
ATOM     14  O   UNL     1      -0.467  15.196  22.654  0.00  0.00    +0.000 OA
ENDBRANCH   1   7
BRANCH   2  15
ATOM     15  C   UNL     1       1.023   9.097  19.726  0.00  0.00    +0.000 A 
ATOM     16  C   UNL     1       1.481   9.143  18.405  0.00  0.00    +0.000 A 
ATOM     17  C   UNL     1       2.326   8.159  17.894  0.00  0.00    +0.000 A 
ATOM     18  C   UNL     1       2.758   7.088  18.685  0.00  0.00    +0.000 A 
ATOM     19  C   UNL     1       2.272   7.031  20.008  0.00  0.00    +0.000 A 
ATOM     20  C   UNL     1       1.414   8.025  20.530  0.00  0.00    +0.000 A 
BRANCH  18  21
ATOM     21  C   UNL     1       3.761   6.045  18.147  0.00  0.00    +0.000 C 
ATOM     22  C   UNL     1       4.744   5.529  19.229  0.00  0.00    +0.000 C 
ATOM     23  C   UNL     1       2.998   4.818  17.609  0.00  0.00    +0.000 C 
ATOM     24  C   UNL     1       4.616   6.643  17.011  0.00  0.00    +0.000 C 
ENDBRANCH  18  21
ENDBRANCH   2  15
TORSDOF 3
ENDMDL
MODEL 7
REMARK VINA RESULT:      -7.1      3.044      3.918
REMARK  Name = 
REMARK  8 active torsions:
REMARK  status: ('A' for Active; 'I' for Inactive)
REMARK    1  A    between atoms: C_1  and  N_2
REMARK    2  A    between atoms: C_3  and  N_4
REMARK    3  A    between atoms: C_5  and  C_7
REMARK    4  A    between atoms: C_10  and  C_11
REMARK    5  A    between atoms: C_11  and  C_12
REMARK    6  A    between atoms: C_11  and  C_13
REMARK    7  A    between atoms: C_11  and  C_14
REMARK    8  A    between atoms: N_20  and  C_21
REMARK                            x       y       z     vdW  Elec       q    Type
REMARK                         _______ _______ _______ _____ _____    ______ ____
ROOT
ATOM      1  N   UNL     1       1.070   9.321  19.975  0.00  0.00    +0.000 N 
ATOM      2  C   UNL     1       1.900   8.669  19.074  0.00  0.00    +0.000 C 
ATOM      3  O   UNL     1       2.534   9.236  18.186  0.00  0.00    +0.000 OA
ATOM      4  H   UNL     1       0.708   8.791  20.751  0.00  0.00    +0.000 HD
ENDROOT
BRANCH   1   7
ATOM      5  C   UNL     1      -0.849  10.199  18.043  0.00  0.00    +0.000 C 
ATOM      6  N   UNL     1      -0.157  11.116  18.938  0.00  0.00    +0.000 N 
ATOM      7  C   UNL     1       0.721  10.668  19.917  0.00  0.00    +0.000 A 
ATOM      8  C   UNL     1       1.246  11.555  20.771  0.00  0.00    +0.000 A 
ATOM      9  C   UNL     1       0.894  12.976  20.722  0.00  0.00    +0.000 A 
ATOM     10  O   UNL     1       1.379  13.739  21.553  0.00  0.00    +0.000 OA
ATOM     11  N   UNL     1       0.039  13.349  19.715  0.00  0.00    +0.000 N 
ATOM     12  C   UNL     1      -0.360  14.739  19.620  0.00  0.00    +0.000 C 
ATOM     13  C   UNL     1      -0.487  12.470  18.782  0.00  0.00    +0.000 A 
ATOM     14  O   UNL     1      -1.217  12.862  17.868  0.00  0.00    +0.000 OA
ENDBRANCH   1   7
BRANCH   2  15
ATOM     15  C   UNL     1       2.058   7.190  19.177  0.00  0.00    +0.000 A 
ATOM     16  C   UNL     1       1.728   6.625  20.412  0.00  0.00    +0.000 A 
ATOM     17  C   UNL     1       1.761   5.245  20.613  0.00  0.00    +0.000 A 
ATOM     18  C   UNL     1       2.118   4.368  19.582  0.00  0.00    +0.000 A 
ATOM     19  C   UNL     1       2.477   4.945  18.346  0.00  0.00    +0.000 A 
ATOM     20  C   UNL     1       2.447   6.342  18.138  0.00  0.00    +0.000 A 
BRANCH  18  21
ATOM     21  C   UNL     1       2.072   2.838  19.777  0.00  0.00    +0.000 C 
ATOM     22  C   UNL     1       1.023   2.138  18.876  0.00  0.00    +0.000 C 
ATOM     23  C   UNL     1       3.445   2.227  19.428  0.00  0.00    +0.000 C 
ATOM     24  C   UNL     1       1.720   2.482  21.236  0.00  0.00    +0.000 C 
ENDBRANCH  18  21
ENDBRANCH   2  15
TORSDOF 3
ENDMDL
MODEL 8
REMARK VINA RESULT:      -7.1      3.281      4.158
REMARK  Name = 
REMARK  8 active torsions:
REMARK  status: ('A' for Active; 'I' for Inactive)
REMARK    1  A    between atoms: C_1  and  N_2
REMARK    2  A    between atoms: C_3  and  N_4
REMARK    3  A    between atoms: C_5  and  C_7
REMARK    4  A    between atoms: C_10  and  C_11
REMARK    5  A    between atoms: C_11  and  C_12
REMARK    6  A    between atoms: C_11  and  C_13
REMARK    7  A    between atoms: C_11  and  C_14
REMARK    8  A    between atoms: N_20  and  C_21
REMARK                            x       y       z     vdW  Elec       q    Type
REMARK                         _______ _______ _______ _____ _____    ______ ____
ROOT
ATOM      1  N   UNL     1       1.369   9.523  19.514  0.00  0.00    +0.000 N 
ATOM      2  C   UNL     1       1.917   8.700  18.539  0.00  0.00    +0.000 C 
ATOM      3  O   UNL     1       2.244   9.083  17.418  0.00  0.00    +0.000 OA
ATOM      4  H   UNL     1       1.268   9.150  20.443  0.00  0.00    +0.000 HD
ENDROOT
BRANCH   1   7
ATOM      5  C   UNL     1      -1.340  10.103  18.799  0.00  0.00    +0.000 C 
ATOM      6  N   UNL     1      -0.317  11.134  18.906  0.00  0.00    +0.000 N 
ATOM      7  C   UNL     1       0.977  10.847  19.321  0.00  0.00    +0.000 A 
ATOM      8  C   UNL     1       1.841  11.855  19.495  0.00  0.00    +0.000 A 
ATOM      9  C   UNL     1       1.449  13.251  19.293  0.00  0.00    +0.000 A 
ATOM     10  O   UNL     1       2.273  14.137  19.501  0.00  0.00    +0.000 OA
ATOM     11  N   UNL     1       0.162  13.457  18.862  0.00  0.00    +0.000 N 
ATOM     12  C   UNL     1      -0.293  14.818  18.657  0.00  0.00    +0.000 C 
ATOM     13  C   UNL     1      -0.747  12.438  18.624  0.00  0.00    +0.000 A 
ATOM     14  O   UNL     1      -1.879  12.673  18.194  0.00  0.00    +0.000 OA
ENDBRANCH   1   7
BRANCH   2  15
ATOM     15  C   UNL     1       2.143   7.260  18.854  0.00  0.00    +0.000 A 
ATOM     16  C   UNL     1       1.877   6.874  20.171  0.00  0.00    +0.000 A 
ATOM     17  C   UNL     1       1.977   5.542  20.572  0.00  0.00    +0.000 A 
ATOM     18  C   UNL     1       2.340   4.536  19.669  0.00  0.00    +0.000 A 
ATOM     19  C   UNL     1       2.633   4.935  18.348  0.00  0.00    +0.000 A 
ATOM     20  C   UNL     1       2.535   6.283  17.938  0.00  0.00    +0.000 A 
BRANCH  18  21
ATOM     21  C   UNL     1       2.367   3.051  20.090  0.00  0.00    +0.000 C 
ATOM     22  C   UNL     1       3.791   2.439  20.083  0.00  0.00    +0.000 C 
ATOM     23  C   UNL     1       1.822   2.906  21.525  0.00  0.00    +0.000 C 
ATOM     24  C   UNL     1       1.506   2.196  19.138  0.00  0.00    +0.000 C 
ENDBRANCH  18  21
ENDBRANCH   2  15
TORSDOF 3
ENDMDL
MODEL 9
REMARK VINA RESULT:      -7.1      2.071      3.045
REMARK  Name = 
REMARK  8 active torsions:
REMARK  status: ('A' for Active; 'I' for Inactive)
REMARK    1  A    between atoms: C_1  and  N_2
REMARK    2  A    between atoms: C_3  and  N_4
REMARK    3  A    between atoms: C_5  and  C_7
REMARK    4  A    between atoms: C_10  and  C_11
REMARK    5  A    between atoms: C_11  and  C_12
REMARK    6  A    between atoms: C_11  and  C_13
REMARK    7  A    between atoms: C_11  and  C_14
REMARK    8  A    between atoms: N_20  and  C_21
REMARK                            x       y       z     vdW  Elec       q    Type
REMARK                         _______ _______ _______ _____ _____    ______ ____
ROOT
ATOM      1  N   UNL     1       1.022  10.395  20.937  0.00  0.00    +0.000 N 
ATOM      2  C   UNL     1       0.739   9.801  19.714  0.00  0.00    +0.000 C 
ATOM      3  O   UNL     1      -0.163  10.165  18.963  0.00  0.00    +0.000 OA
ATOM      4  H   UNL     1       1.865  10.119  21.411  0.00  0.00    +0.000 HD
ENDROOT
BRANCH   1   7
ATOM      5  C   UNL     1       1.718  13.150  20.603  0.00  0.00    +0.000 C 
ATOM      6  N   UNL     1       0.618  12.713  21.452  0.00  0.00    +0.000 N 
ATOM      7  C   UNL     1       0.248  11.378  21.551  0.00  0.00    +0.000 A 
ATOM      8  C   UNL     1      -0.834  11.056  22.270  0.00  0.00    +0.000 A 
ATOM      9  C   UNL     1      -1.656  12.076  22.925  0.00  0.00    +0.000 A 
ATOM     10  O   UNL     1      -2.658  11.726  23.543  0.00  0.00    +0.000 OA
ATOM     11  N   UNL     1      -1.218  13.371  22.804  0.00  0.00    +0.000 N 
ATOM     12  C   UNL     1      -1.995  14.429  23.418  0.00  0.00    +0.000 C 
ATOM     13  C   UNL     1      -0.077  13.739  22.109  0.00  0.00    +0.000 A 
ATOM     14  O   UNL     1       0.300  14.913  22.066  0.00  0.00    +0.000 OA
ENDBRANCH   1   7
BRANCH   2  15
ATOM     15  C   UNL     1       1.575   8.654  19.259  0.00  0.00    +0.000 A 
ATOM     16  C   UNL     1       2.147   8.781  17.989  0.00  0.00    +0.000 A 
ATOM     17  C   UNL     1       3.010   7.812  17.479  0.00  0.00    +0.000 A 
ATOM     18  C   UNL     1       3.346   6.674  18.222  0.00  0.00    +0.000 A 
ATOM     19  C   UNL     1       2.745   6.536  19.491  0.00  0.00    +0.000 A 
ATOM     20  C   UNL     1       1.869   7.515  20.011  0.00  0.00    +0.000 A 
BRANCH  18  21
ATOM     21  C   UNL     1       4.367   5.643  17.696  0.00  0.00    +0.000 C 
ATOM     22  C   UNL     1       5.094   6.106  16.408  0.00  0.00    +0.000 C 
ATOM     23  C   UNL     1       5.453   5.395  18.763  0.00  0.00    +0.000 C 
ATOM     24  C   UNL     1       3.674   4.305  17.365  0.00  0.00    +0.000 C 
ENDBRANCH  18  21
ENDBRANCH   2  15
TORSDOF 3
ENDMDL
