MODEL 1
REMARK VINA RESULT:      -5.8      0.000      0.000
REMARK  Name = 
REMARK  12 active torsions:
REMARK  status: ('A' for Active; 'I' for Inactive)
REMARK    1  A    between atoms: C_2  and  C_20
REMARK    2  A    between atoms: N_3  and  C_4
REMARK    3  A    between atoms: C_4  and  C_5
REMARK    4  A    between atoms: C_5  and  N_6
REMARK    5  A    between atoms: N_6  and  C_7
REMARK    6  A    between atoms: C_7  and  C_8
REMARK    7  A    between atoms: C_8  and  C_9
REMARK    8  A    between atoms: C_9  and  N_10
REMARK    9  A    between atoms: N_10  and  C_11
REMARK   10  A    between atoms: C_11  and  C_12
REMARK   11  A    between atoms: C_12  and  N_13
REMARK   12  A    between atoms: C_14  and  C_16
REMARK                            x       y       z     vdW  Elec       q    Type
REMARK                         _______ _______ _______ _____ _____    ______ ____
ROOT
ATOM      1  C   UNL     1       6.044   4.018  14.630  0.00  0.00    +0.000 C 
ENDROOT
BRANCH   1   2
ATOM      2  C   UNL     1       4.977   4.184  15.711  0.00  0.00    +0.000 C 
BRANCH   2   3
ATOM      3  N   UNL     1       5.078   3.098  16.685  0.00  0.00    +0.000 NA
ATOM      4  H   UNL     1       5.570   2.308  16.262  0.00  0.00    +0.000 HD
BRANCH   3   5
ATOM      5  C   UNL     1       3.745   2.669  17.117  0.00  0.00    +0.000 C 
BRANCH   5   6
ATOM      6  C   UNL     1       3.827   1.869  18.426  0.00  0.00    +0.000 C 
BRANCH   6   9
ATOM      7  O   UNL     1       1.122   1.975  19.052  0.00  0.00    +0.000 OA
ATOM      8  C   UNL     1       1.898   2.590  19.794  0.00  0.00    +0.000 C 
ATOM      9  N   UNL     1       3.269   2.588  19.555  0.00  0.00    +0.000 N 
ATOM     10  H   UNL     1       3.886   3.095  20.184  0.00  0.00    +0.000 HD
BRANCH   8  11
ATOM     11  C   UNL     1       1.421   3.391  21.019  0.00  0.00    +0.000 C 
ATOM     12  F   UNL     1       0.802   2.596  21.945  0.00  0.00    +0.000 F 
ATOM     13  F   UNL     1       2.447   4.004  21.670  0.00  0.00    +0.000 F 
ATOM     14  F   UNL     1       0.526   4.363  20.691  0.00  0.00    +0.000 F 
ENDBRANCH   8  11
ENDBRANCH   6   9
ENDBRANCH   5   6
ENDBRANCH   3   5
ENDBRANCH   2   3
ENDBRANCH   1   2
BRANCH   1  15
ATOM     15  C   UNL     1       7.276   4.848  14.988  0.00  0.00    +0.000 C 
BRANCH  15  16
ATOM     16  N   UNL     1       7.426   4.921  16.441  0.00  0.00    +0.000 NA
ATOM     17  H   UNL     1       8.346   4.563  16.706  0.00  0.00    +0.000 HD
BRANCH  16  18
ATOM     18  C   UNL     1       7.288   6.305  16.904  0.00  0.00    +0.000 C 
BRANCH  18  19
ATOM     19  C   UNL     1       6.518   6.360  18.231  0.00  0.00    +0.000 C 
BRANCH  19  20
ATOM     20  N   UNL     1       5.102   6.629  18.046  0.00  0.00    +0.000 N 
ATOM     21  C   UNL     1       4.144   5.974  18.807  0.00  0.00    +0.000 C 
ATOM     22  O   UNL     1       4.468   5.142  19.663  0.00  0.00    +0.000 OA
ATOM     23  H   UNL     1       4.810   7.304  17.342  0.00  0.00    +0.000 HD
BRANCH  21  24
ATOM     24  C   UNL     1       2.677   6.345  18.514  0.00  0.00    +0.000 C 
ATOM     25  F   UNL     1       1.989   6.648  19.657  0.00  0.00    +0.000 F 
ATOM     26  F   UNL     1       2.567   7.431  17.702  0.00  0.00    +0.000 F 
ATOM     27  F   UNL     1       1.993   5.333  17.915  0.00  0.00    +0.000 F 
ENDBRANCH  21  24
ENDBRANCH  19  20
ENDBRANCH  18  19
ENDBRANCH  16  18
ENDBRANCH  15  16
ENDBRANCH   1  15
TORSDOF 12
ENDMDL
MODEL 2
REMARK VINA RESULT:      -5.7      3.772      6.116
REMARK  Name = 
REMARK  12 active torsions:
REMARK  status: ('A' for Active; 'I' for Inactive)
REMARK    1  A    between atoms: C_2  and  C_20
REMARK    2  A    between atoms: N_3  and  C_4
REMARK    3  A    between atoms: C_4  and  C_5
REMARK    4  A    between atoms: C_5  and  N_6
REMARK    5  A    between atoms: N_6  and  C_7
REMARK    6  A    between atoms: C_7  and  C_8
REMARK    7  A    between atoms: C_8  and  C_9
REMARK    8  A    between atoms: C_9  and  N_10
REMARK    9  A    between atoms: N_10  and  C_11
REMARK   10  A    between atoms: C_11  and  C_12
REMARK   11  A    between atoms: C_12  and  N_13
REMARK   12  A    between atoms: C_14  and  C_16
REMARK                            x       y       z     vdW  Elec       q    Type
REMARK                         _______ _______ _______ _____ _____    ______ ____
ROOT
ATOM      1  C   UNL     1       1.556   2.713  20.930  0.00  0.00    +0.000 C 
ENDROOT
BRANCH   1   2
ATOM      2  C   UNL     1       1.823   4.209  21.096  0.00  0.00    +0.000 C 
BRANCH   2   3
ATOM      3  N   UNL     1       1.918   4.849  19.785  0.00  0.00    +0.000 NA
ATOM      4  H   UNL     1       2.123   4.141  19.076  0.00  0.00    +0.000 HD
BRANCH   3   5
ATOM      5  C   UNL     1       2.975   5.864  19.784  0.00  0.00    +0.000 C 
BRANCH   5   6
ATOM      6  C   UNL     1       4.353   5.214  19.581  0.00  0.00    +0.000 C 
BRANCH   6   9
ATOM      7  O   UNL     1       7.111   5.400  19.871  0.00  0.00    +0.000 OA
ATOM      8  C   UNL     1       6.595   6.041  18.947  0.00  0.00    +0.000 C 
ATOM      9  N   UNL     1       5.222   6.003  18.729  0.00  0.00    +0.000 N 
ATOM     10  H   UNL     1       4.823   6.535  17.958  0.00  0.00    +0.000 HD
BRANCH   8  11
ATOM     11  C   UNL     1       7.415   6.917  17.982  0.00  0.00    +0.000 C 
ATOM     12  F   UNL     1       7.856   6.212  16.896  0.00  0.00    +0.000 F 
ATOM     13  F   UNL     1       6.693   7.961  17.490  0.00  0.00    +0.000 F 
ATOM     14  F   UNL     1       8.522   7.447  18.569  0.00  0.00    +0.000 F 
ENDBRANCH   8  11
ENDBRANCH   6   9
ENDBRANCH   5   6
ENDBRANCH   3   5
ENDBRANCH   2   3
ENDBRANCH   1   2
BRANCH   1  15
ATOM     15  C   UNL     1       1.115   2.423  19.497  0.00  0.00    +0.000 C 
BRANCH  15  16
ATOM     16  N   UNL     1       2.137   1.638  18.806  0.00  0.00    +0.000 NA
ATOM     17  H   UNL     1       1.795   0.687  18.662  0.00  0.00    +0.000 HD
BRANCH  16  18
ATOM     18  C   UNL     1       2.462   2.243  17.511  0.00  0.00    +0.000 C 
BRANCH  18  19
ATOM     19  C   UNL     1       3.885   2.819  17.521  0.00  0.00    +0.000 C 
BRANCH  19  20
ATOM     20  N   UNL     1       4.176   3.611  16.338  0.00  0.00    +0.000 N 
ATOM     21  C   UNL     1       5.478   3.985  16.031  0.00  0.00    +0.000 C 
ATOM     22  O   UNL     1       6.425   3.656  16.756  0.00  0.00    +0.000 OA
ATOM     23  H   UNL     1       3.414   3.901  15.730  0.00  0.00    +0.000 HD
BRANCH  21  24
ATOM     24  C   UNL     1       5.657   4.825  14.751  0.00  0.00    +0.000 C 
ATOM     25  F   UNL     1       5.199   6.103  14.912  0.00  0.00    +0.000 F 
ATOM     26  F   UNL     1       6.961   4.931  14.377  0.00  0.00    +0.000 F 
ATOM     27  F   UNL     1       4.983   4.307  13.689  0.00  0.00    +0.000 F 
ENDBRANCH  21  24
ENDBRANCH  19  20
ENDBRANCH  18  19
ENDBRANCH  16  18
ENDBRANCH  15  16
ENDBRANCH   1  15
TORSDOF 12
ENDMDL
MODEL 3
REMARK VINA RESULT:      -5.6      2.626      5.432
REMARK  Name = 
REMARK  12 active torsions:
REMARK  status: ('A' for Active; 'I' for Inactive)
REMARK    1  A    between atoms: C_2  and  C_20
REMARK    2  A    between atoms: N_3  and  C_4
REMARK    3  A    between atoms: C_4  and  C_5
REMARK    4  A    between atoms: C_5  and  N_6
REMARK    5  A    between atoms: N_6  and  C_7
REMARK    6  A    between atoms: C_7  and  C_8
REMARK    7  A    between atoms: C_8  and  C_9
REMARK    8  A    between atoms: C_9  and  N_10
REMARK    9  A    between atoms: N_10  and  C_11
REMARK   10  A    between atoms: C_11  and  C_12
REMARK   11  A    between atoms: C_12  and  N_13
REMARK   12  A    between atoms: C_14  and  C_16
REMARK                            x       y       z     vdW  Elec       q    Type
REMARK                         _______ _______ _______ _____ _____    ______ ____
ROOT
ATOM      1  C   UNL     1       4.363   4.064  17.629  0.00  0.00    +0.000 C 
ENDROOT
BRANCH   1   2
ATOM      2  C   UNL     1       4.416   3.523  16.201  0.00  0.00    +0.000 C 
BRANCH   2   3
ATOM      3  N   UNL     1       5.801   3.245  15.821  0.00  0.00    +0.000 NA
ATOM      4  H   UNL     1       6.426   3.568  16.563  0.00  0.00    +0.000 HD
BRANCH   3   5
ATOM      5  C   UNL     1       6.137   3.927  14.568  0.00  0.00    +0.000 C 
BRANCH   5   6
ATOM      6  C   UNL     1       7.178   5.031  14.810  0.00  0.00    +0.000 C 
BRANCH   6   9
ATOM      7  O   UNL     1       6.268   6.840  16.713  0.00  0.00    +0.000 OA
ATOM      8  C   UNL     1       7.121   6.021  17.075  0.00  0.00    +0.000 C 
ATOM      9  N   UNL     1       7.630   5.078  16.187  0.00  0.00    +0.000 N 
ATOM     10  H   UNL     1       8.326   4.411  16.512  0.00  0.00    +0.000 HD
BRANCH   8  11
ATOM     11  C   UNL     1       7.679   5.978  18.509  0.00  0.00    +0.000 C 
ATOM     12  F   UNL     1       6.685   5.927  19.447  0.00  0.00    +0.000 F 
ATOM     13  F   UNL     1       8.465   4.888  18.728  0.00  0.00    +0.000 F 
ATOM     14  F   UNL     1       8.431   7.072  18.810  0.00  0.00    +0.000 F 
ENDBRANCH   8  11
ENDBRANCH   6   9
ENDBRANCH   5   6
ENDBRANCH   3   5
ENDBRANCH   2   3
ENDBRANCH   1   2
BRANCH   1  15
ATOM     15  C   UNL     1       3.333   5.189  17.718  0.00  0.00    +0.000 C 
BRANCH  15  16
ATOM     16  N   UNL     1       3.683   6.106  18.801  0.00  0.00    +0.000 NA
ATOM     17  H   UNL     1       4.448   6.712  18.498  0.00  0.00    +0.000 HD
BRANCH  16  18
ATOM     18  C   UNL     1       2.528   6.927  19.175  0.00  0.00    +0.000 C 
BRANCH  18  19
ATOM     19  C   UNL     1       1.981   6.504  20.545  0.00  0.00    +0.000 C 
BRANCH  19  20
ATOM     20  N   UNL     1       2.376   5.155  20.913  0.00  0.00    +0.000 N 
ATOM     21  C   UNL     1       1.577   4.064  20.596  0.00  0.00    +0.000 C 
ATOM     22  O   UNL     1       0.507   4.210  19.992  0.00  0.00    +0.000 OA
ATOM     23  H   UNL     1       3.248   5.009  21.418  0.00  0.00    +0.000 HD
BRANCH  21  24
ATOM     24  C   UNL     1       2.104   2.686  21.042  0.00  0.00    +0.000 C 
ATOM     25  F   UNL     1       1.704   1.689  20.197  0.00  0.00    +0.000 F 
ATOM     26  F   UNL     1       3.463   2.635  21.078  0.00  0.00    +0.000 F 
ATOM     27  F   UNL     1       1.663   2.336  22.281  0.00  0.00    +0.000 F 
ENDBRANCH  21  24
ENDBRANCH  19  20
ENDBRANCH  18  19
ENDBRANCH  16  18
ENDBRANCH  15  16
ENDBRANCH   1  15
TORSDOF 12
ENDMDL
MODEL 4
REMARK VINA RESULT:      -5.6      2.788      5.283
REMARK  Name = 
REMARK  12 active torsions:
REMARK  status: ('A' for Active; 'I' for Inactive)
REMARK    1  A    between atoms: C_2  and  C_20
REMARK    2  A    between atoms: N_3  and  C_4
REMARK    3  A    between atoms: C_4  and  C_5
REMARK    4  A    between atoms: C_5  and  N_6
REMARK    5  A    between atoms: N_6  and  C_7
REMARK    6  A    between atoms: C_7  and  C_8
REMARK    7  A    between atoms: C_8  and  C_9
REMARK    8  A    between atoms: C_9  and  N_10
REMARK    9  A    between atoms: N_10  and  C_11
REMARK   10  A    between atoms: C_11  and  C_12
REMARK   11  A    between atoms: C_12  and  N_13
REMARK   12  A    between atoms: C_14  and  C_16
REMARK                            x       y       z     vdW  Elec       q    Type
REMARK                         _______ _______ _______ _____ _____    ______ ____
ROOT
ATOM      1  C   UNL     1       2.424   1.722  19.168  0.00  0.00    +0.000 C 
ENDROOT
BRANCH   1   2
ATOM      2  C   UNL     1       3.369   1.825  17.971  0.00  0.00    +0.000 C 
BRANCH   2   3
ATOM      3  N   UNL     1       3.930   3.173  17.891  0.00  0.00    +0.000 NA
ATOM      4  H   UNL     1       3.275   3.838  18.307  0.00  0.00    +0.000 HD
BRANCH   3   5
ATOM      5  C   UNL     1       4.181   3.543  16.495  0.00  0.00    +0.000 C 
BRANCH   5   6
ATOM      6  C   UNL     1       5.646   3.962  16.297  0.00  0.00    +0.000 C 
BRANCH   6   9
ATOM      7  O   UNL     1       7.515   6.013  16.444  0.00  0.00    +0.000 OA
ATOM      8  C   UNL     1       7.192   5.466  17.505  0.00  0.00    +0.000 C 
ATOM      9  N   UNL     1       6.262   4.431  17.523  0.00  0.00    +0.000 N 
ATOM     10  H   UNL     1       6.009   4.002  18.410  0.00  0.00    +0.000 HD
BRANCH   8  11
ATOM     11  C   UNL     1       7.782   5.875  18.867  0.00  0.00    +0.000 C 
ATOM     12  F   UNL     1       6.849   5.832  19.866  0.00  0.00    +0.000 F 
ATOM     13  F   UNL     1       8.797   5.057  19.260  0.00  0.00    +0.000 F 
ATOM     14  F   UNL     1       8.278   7.142  18.862  0.00  0.00    +0.000 F 
ENDBRANCH   8  11
ENDBRANCH   6   9
ENDBRANCH   5   6
ENDBRANCH   3   5
ENDBRANCH   2   3
ENDBRANCH   1   2
BRANCH   1  15
ATOM     15  C   UNL     1       1.109   2.432  18.850  0.00  0.00    +0.000 C 
BRANCH  15  16
ATOM     16  N   UNL     1       1.261   3.874  19.037  0.00  0.00    +0.000 NA
ATOM     17  H   UNL     1       0.543   4.363  18.499  0.00  0.00    +0.000 HD
BRANCH  16  18
ATOM     18  C   UNL     1       1.133   4.226  20.454  0.00  0.00    +0.000 C 
BRANCH  18  19
ATOM     19  C   UNL     1       2.039   5.416  20.803  0.00  0.00    +0.000 C 
BRANCH  19  20
ATOM     20  N   UNL     1       1.871   6.533  19.890  0.00  0.00    +0.000 N 
ATOM     21  C   UNL     1       2.798   6.782  18.886  0.00  0.00    +0.000 C 
ATOM     22  O   UNL     1       3.793   6.061  18.743  0.00  0.00    +0.000 OA
ATOM     23  H   UNL     1       1.065   7.146  19.993  0.00  0.00    +0.000 HD
BRANCH  21  24
ATOM     24  C   UNL     1       2.509   7.998  17.984  0.00  0.00    +0.000 C 
ATOM     25  F   UNL     1       1.280   7.915  17.393  0.00  0.00    +0.000 F 
ATOM     26  F   UNL     1       2.523   9.172  18.673  0.00  0.00    +0.000 F 
ATOM     27  F   UNL     1       3.411   8.123  16.973  0.00  0.00    +0.000 F 
ENDBRANCH  21  24
ENDBRANCH  19  20
ENDBRANCH  18  19
ENDBRANCH  16  18
ENDBRANCH  15  16
ENDBRANCH   1  15
TORSDOF 12
ENDMDL
MODEL 5
REMARK VINA RESULT:      -5.5      3.681      5.726
REMARK  Name = 
REMARK  12 active torsions:
REMARK  status: ('A' for Active; 'I' for Inactive)
REMARK    1  A    between atoms: C_2  and  C_20
REMARK    2  A    between atoms: N_3  and  C_4
REMARK    3  A    between atoms: C_4  and  C_5
REMARK    4  A    between atoms: C_5  and  N_6
REMARK    5  A    between atoms: N_6  and  C_7
REMARK    6  A    between atoms: C_7  and  C_8
REMARK    7  A    between atoms: C_8  and  C_9
REMARK    8  A    between atoms: C_9  and  N_10
REMARK    9  A    between atoms: N_10  and  C_11
REMARK   10  A    between atoms: C_11  and  C_12
REMARK   11  A    between atoms: C_12  and  N_13
REMARK   12  A    between atoms: C_14  and  C_16
REMARK                            x       y       z     vdW  Elec       q    Type
REMARK                         _______ _______ _______ _____ _____    ______ ____
ROOT
ATOM      1  C   UNL     1       1.520   3.811  19.170  0.00  0.00    +0.000 C 
ENDROOT
BRANCH   1   2
ATOM      2  C   UNL     1       1.002   4.577  20.387  0.00  0.00    +0.000 C 
BRANCH   2   3
ATOM      3  N   UNL     1       2.000   5.550  20.829  0.00  0.00    +0.000 NA
ATOM      4  H   UNL     1       1.567   6.204  21.485  0.00  0.00    +0.000 HD
BRANCH   3   5
ATOM      5  C   UNL     1       2.539   6.290  19.685  0.00  0.00    +0.000 C 
BRANCH   5   6
ATOM      6  C   UNL     1       2.030   7.740  19.685  0.00  0.00    +0.000 C 
BRANCH   6   9
ATOM      7  O   UNL     1       0.119   9.713  20.111  0.00  0.00    +0.000 OA
ATOM      8  C   UNL     1       0.597   9.164  21.112  0.00  0.00    +0.000 C 
ATOM      9  N   UNL     1       1.558   8.164  20.989  0.00  0.00    +0.000 N 
ATOM     10  H   UNL     1       1.930   7.724  21.827  0.00  0.00    +0.000 HD
BRANCH   8  11
ATOM     11  C   UNL     1       0.178   9.533  22.545  0.00  0.00    +0.000 C 
ATOM     12  F   UNL     1      -0.074  10.871  22.679  0.00  0.00    +0.000 F 
ATOM     13  F   UNL     1      -0.958   8.892  22.936  0.00  0.00    +0.000 F 
ATOM     14  F   UNL     1       1.135   9.231  23.464  0.00  0.00    +0.000 F 
ENDBRANCH   8  11
ENDBRANCH   6   9
ENDBRANCH   5   6
ENDBRANCH   3   5
ENDBRANCH   2   3
ENDBRANCH   1   2
BRANCH   1  15
ATOM     15  C   UNL     1       1.857   2.375  19.568  0.00  0.00    +0.000 C 
BRANCH  15  16
ATOM     16  N   UNL     1       3.307   2.189  19.594  0.00  0.00    +0.000 NA
ATOM     17  H   UNL     1       3.528   1.216  19.371  0.00  0.00    +0.000 HD
BRANCH  16  18
ATOM     18  C   UNL     1       3.957   3.073  18.622  0.00  0.00    +0.000 C 
BRANCH  18  19
ATOM     19  C   UNL     1       5.165   3.780  19.253  0.00  0.00    +0.000 C 
BRANCH  19  20
ATOM     20  N   UNL     1       5.724   4.808  18.392  0.00  0.00    +0.000 N 
ATOM     21  C   UNL     1       6.762   5.620  18.829  0.00  0.00    +0.000 C 
ATOM     22  O   UNL     1       7.239   5.492  19.963  0.00  0.00    +0.000 OA
ATOM     23  H   UNL     1       5.343   4.939  17.457  0.00  0.00    +0.000 HD
BRANCH  21  24
ATOM     24  C   UNL     1       7.266   6.674  17.824  0.00  0.00    +0.000 C 
ATOM     25  F   UNL     1       6.285   7.562  17.480  0.00  0.00    +0.000 F 
ATOM     26  F   UNL     1       8.295   7.415  18.319  0.00  0.00    +0.000 F 
ATOM     27  F   UNL     1       7.704   6.119  16.661  0.00  0.00    +0.000 F 
ENDBRANCH  21  24
ENDBRANCH  19  20
ENDBRANCH  18  19
ENDBRANCH  16  18
ENDBRANCH  15  16
ENDBRANCH   1  15
TORSDOF 12
ENDMDL
MODEL 6
REMARK VINA RESULT:      -5.5      3.890      5.300
REMARK  Name = 
REMARK  12 active torsions:
REMARK  status: ('A' for Active; 'I' for Inactive)
REMARK    1  A    between atoms: C_2  and  C_20
REMARK    2  A    between atoms: N_3  and  C_4
REMARK    3  A    between atoms: C_4  and  C_5
REMARK    4  A    between atoms: C_5  and  N_6
REMARK    5  A    between atoms: N_6  and  C_7
REMARK    6  A    between atoms: C_7  and  C_8
REMARK    7  A    between atoms: C_8  and  C_9
REMARK    8  A    between atoms: C_9  and  N_10
REMARK    9  A    between atoms: N_10  and  C_11
REMARK   10  A    between atoms: C_11  and  C_12
REMARK   11  A    between atoms: C_12  and  N_13
REMARK   12  A    between atoms: C_14  and  C_16
REMARK                            x       y       z     vdW  Elec       q    Type
REMARK                         _______ _______ _______ _____ _____    ______ ____
ROOT
ATOM      1  C   UNL     1       1.427   4.152  18.133  0.00  0.00    +0.000 C 
ENDROOT
BRANCH   1   2
ATOM      2  C   UNL     1       2.282   3.148  17.360  0.00  0.00    +0.000 C 
BRANCH   2   3
ATOM      3  N   UNL     1       2.569   1.985  18.198  0.00  0.00    +0.000 NA
ATOM      4  H   UNL     1       2.066   2.073  19.084  0.00  0.00    +0.000 HD
BRANCH   3   5
ATOM      5  C   UNL     1       4.007   1.883  18.461  0.00  0.00    +0.000 C 
BRANCH   5   6
ATOM      6  C   UNL     1       4.507   3.111  19.239  0.00  0.00    +0.000 C 
BRANCH   6   9
ATOM      7  O   UNL     1       5.642   5.570  19.862  0.00  0.00    +0.000 OA
ATOM      8  C   UNL     1       6.313   4.798  19.166  0.00  0.00    +0.000 C 
ATOM      9  N   UNL     1       5.821   3.546  18.809  0.00  0.00    +0.000 N 
ATOM     10  H   UNL     1       6.396   2.927  18.241  0.00  0.00    +0.000 HD
BRANCH   8  11
ATOM     11  C   UNL     1       7.718   5.151  18.647  0.00  0.00    +0.000 C 
ATOM     12  F   UNL     1       8.649   5.164  19.650  0.00  0.00    +0.000 F 
ATOM     13  F   UNL     1       8.169   4.261  17.721  0.00  0.00    +0.000 F 
ATOM     14  F   UNL     1       7.767   6.381  18.067  0.00  0.00    +0.000 F 
ENDBRANCH   8  11
ENDBRANCH   6   9
ENDBRANCH   5   6
ENDBRANCH   3   5
ENDBRANCH   2   3
ENDBRANCH   1   2
BRANCH   1  15
ATOM     15  C   UNL     1       1.837   5.575  17.758  0.00  0.00    +0.000 C 
BRANCH  15  16
ATOM     16  N   UNL     1       3.244   5.796  18.087  0.00  0.00    +0.000 NA
ATOM     17  H   UNL     1       3.814   5.074  17.642  0.00  0.00    +0.000 HD
BRANCH  16  18
ATOM     18  C   UNL     1       3.680   7.117  17.625  0.00  0.00    +0.000 C 
BRANCH  18  19
ATOM     19  C   UNL     1       4.900   6.993  16.700  0.00  0.00    +0.000 C 
BRANCH  19  20
ATOM     20  N   UNL     1       4.928   5.734  15.977  0.00  0.00    +0.000 N 
ATOM     21  C   UNL     1       6.067   5.326  15.296  0.00  0.00    +0.000 C 
ATOM     22  O   UNL     1       7.089   6.024  15.285  0.00  0.00    +0.000 OA
ATOM     23  H   UNL     1       4.097   5.146  15.963  0.00  0.00    +0.000 HD
BRANCH  21  24
ATOM     24  C   UNL     1       5.971   3.973  14.564  0.00  0.00    +0.000 C 
ATOM     25  F   UNL     1       4.916   3.936  13.696  0.00  0.00    +0.000 F 
ATOM     26  F   UNL     1       7.082   3.699  13.828  0.00  0.00    +0.000 F 
ATOM     27  F   UNL     1       5.798   2.929  15.420  0.00  0.00    +0.000 F 
ENDBRANCH  21  24
ENDBRANCH  19  20
ENDBRANCH  18  19
ENDBRANCH  16  18
ENDBRANCH  15  16
ENDBRANCH   1  15
TORSDOF 12
ENDMDL
MODEL 7
REMARK VINA RESULT:      -5.5      2.676      5.190
REMARK  Name = 
REMARK  12 active torsions:
REMARK  status: ('A' for Active; 'I' for Inactive)
REMARK    1  A    between atoms: C_2  and  C_20
REMARK    2  A    between atoms: N_3  and  C_4
REMARK    3  A    between atoms: C_4  and  C_5
REMARK    4  A    between atoms: C_5  and  N_6
REMARK    5  A    between atoms: N_6  and  C_7
REMARK    6  A    between atoms: C_7  and  C_8
REMARK    7  A    between atoms: C_8  and  C_9
REMARK    8  A    between atoms: C_9  and  N_10
REMARK    9  A    between atoms: N_10  and  C_11
REMARK   10  A    between atoms: C_11  and  C_12
REMARK   11  A    between atoms: C_12  and  N_13
REMARK   12  A    between atoms: C_14  and  C_16
REMARK                            x       y       z     vdW  Elec       q    Type
REMARK                         _______ _______ _______ _____ _____    ______ ____
ROOT
ATOM      1  C   UNL     1       3.566   1.864  18.144  0.00  0.00    +0.000 C 
ENDROOT
BRANCH   1   2
ATOM      2  C   UNL     1       3.496   3.200  17.405  0.00  0.00    +0.000 C 
BRANCH   2   3
ATOM      3  N   UNL     1       4.843   3.737  17.214  0.00  0.00    +0.000 NA
ATOM      4  H   UNL     1       4.992   4.516  17.859  0.00  0.00    +0.000 HD
BRANCH   3   5
ATOM      5  C   UNL     1       5.019   4.205  15.836  0.00  0.00    +0.000 C 
BRANCH   5   6
ATOM      6  C   UNL     1       6.166   5.224  15.748  0.00  0.00    +0.000 C 
BRANCH   6   9
ATOM      7  O   UNL     1       8.218   4.167  17.296  0.00  0.00    +0.000 OA
ATOM      8  C   UNL     1       7.604   5.137  17.758  0.00  0.00    +0.000 C 
ATOM      9  N   UNL     1       6.563   5.729  17.048  0.00  0.00    +0.000 N 
ATOM     10  H   UNL     1       6.079   6.529  17.447  0.00  0.00    +0.000 HD
BRANCH   8  11
ATOM     11  C   UNL     1       7.932   5.756  19.128  0.00  0.00    +0.000 C 
ATOM     12  F   UNL     1       6.867   5.708  19.984  0.00  0.00    +0.000 F 
ATOM     13  F   UNL     1       8.954   5.113  19.757  0.00  0.00    +0.000 F 
ATOM     14  F   UNL     1       8.290   7.066  19.037  0.00  0.00    +0.000 F 
ENDBRANCH   8  11
ENDBRANCH   6   9
ENDBRANCH   5   6
ENDBRANCH   3   5
ENDBRANCH   2   3
ENDBRANCH   1   2
BRANCH   1  15
ATOM     15  C   UNL     1       2.399   1.755  19.124  0.00  0.00    +0.000 C 
BRANCH  15  16
ATOM     16  N   UNL     1       1.538   2.931  19.011  0.00  0.00    +0.000 NA
ATOM     17  H   UNL     1       0.697   2.686  18.484  0.00  0.00    +0.000 HD
BRANCH  16  18
ATOM     18  C   UNL     1       1.157   3.419  20.339  0.00  0.00    +0.000 C 
BRANCH  18  19
ATOM     19  C   UNL     1       1.952   4.681  20.703  0.00  0.00    +0.000 C 
BRANCH  19  20
ATOM     20  N   UNL     1       1.848   5.718  19.691  0.00  0.00    +0.000 N 
ATOM     21  C   UNL     1       2.985   6.308  19.153  0.00  0.00    +0.000 C 
ATOM     22  O   UNL     1       4.116   5.967  19.520  0.00  0.00    +0.000 OA
ATOM     23  H   UNL     1       0.929   6.022  19.379  0.00  0.00    +0.000 HD
BRANCH  21  24
ATOM     24  C   UNL     1       2.743   7.398  18.090  0.00  0.00    +0.000 C 
ATOM     25  F   UNL     1       2.727   8.650  18.638  0.00  0.00    +0.000 F 
ATOM     26  F   UNL     1       3.709   7.412  17.131  0.00  0.00    +0.000 F 
ATOM     27  F   UNL     1       1.553   7.246  17.449  0.00  0.00    +0.000 F 
ENDBRANCH  21  24
ENDBRANCH  19  20
ENDBRANCH  18  19
ENDBRANCH  16  18
ENDBRANCH  15  16
ENDBRANCH   1  15
TORSDOF 12
ENDMDL
MODEL 8
REMARK VINA RESULT:      -5.5      3.677      5.031
REMARK  Name = 
REMARK  12 active torsions:
REMARK  status: ('A' for Active; 'I' for Inactive)
REMARK    1  A    between atoms: C_2  and  C_20
REMARK    2  A    between atoms: N_3  and  C_4
REMARK    3  A    between atoms: C_4  and  C_5
REMARK    4  A    between atoms: C_5  and  N_6
REMARK    5  A    between atoms: N_6  and  C_7
REMARK    6  A    between atoms: C_7  and  C_8
REMARK    7  A    between atoms: C_8  and  C_9
REMARK    8  A    between atoms: C_9  and  N_10
REMARK    9  A    between atoms: N_10  and  C_11
REMARK   10  A    between atoms: C_11  and  C_12
REMARK   11  A    between atoms: C_12  and  N_13
REMARK   12  A    between atoms: C_14  and  C_16
REMARK                            x       y       z     vdW  Elec       q    Type
REMARK                         _______ _______ _______ _____ _____    ______ ____
ROOT
ATOM      1  C   UNL     1       7.455   6.571  17.456  0.00  0.00    +0.000 C 
ENDROOT
BRANCH   1   2
ATOM      2  C   UNL     1       6.095   7.210  17.177  0.00  0.00    +0.000 C 
BRANCH   2   3
ATOM      3  N   UNL     1       5.073   6.607  18.032  0.00  0.00    +0.000 NA
ATOM      4  H   UNL     1       5.259   5.606  18.128  0.00  0.00    +0.000 HD
BRANCH   3   5
ATOM      5  C   UNL     1       3.740   6.803  17.456  0.00  0.00    +0.000 C 
BRANCH   5   6
ATOM      6  C   UNL     1       2.675   6.069  18.286  0.00  0.00    +0.000 C 
BRANCH   6   9
ATOM      7  O   UNL     1       2.110   3.651  17.036  0.00  0.00    +0.000 OA
ATOM      8  C   UNL     1       2.796   3.609  18.065  0.00  0.00    +0.000 C 
ATOM      9  N   UNL     1       3.127   4.773  18.752  0.00  0.00    +0.000 N 
ATOM     10  H   UNL     1       3.698   4.711  19.592  0.00  0.00    +0.000 HD
BRANCH   8  11
ATOM     11  C   UNL     1       3.329   2.292  18.658  0.00  0.00    +0.000 C 
ATOM     12  F   UNL     1       2.388   1.650  19.414  0.00  0.00    +0.000 F 
ATOM     13  F   UNL     1       3.712   1.408  17.696  0.00  0.00    +0.000 F 
ATOM     14  F   UNL     1       4.406   2.482  19.468  0.00  0.00    +0.000 F 
ENDBRANCH   8  11
ENDBRANCH   6   9
ENDBRANCH   5   6
ENDBRANCH   3   5
ENDBRANCH   2   3
ENDBRANCH   1   2
BRANCH   1  15
ATOM     15  C   UNL     1       7.330   5.572  18.605  0.00  0.00    +0.000 C 
BRANCH  15  16
ATOM     16  N   UNL     1       7.137   4.222  18.078  0.00  0.00    +0.000 NA
ATOM     17  H   UNL     1       6.228   3.867  18.380  0.00  0.00    +0.000 HD
BRANCH  16  18
ATOM     18  C   UNL     1       7.197   4.229  16.613  0.00  0.00    +0.000 C 
BRANCH  18  19
ATOM     19  C   UNL     1       5.858   3.777  16.013  0.00  0.00    +0.000 C 
BRANCH  19  20
ATOM     20  N   UNL     1       5.971   3.403  14.613  0.00  0.00    +0.000 N 
ATOM     21  C   UNL     1       6.520   4.274  13.682  0.00  0.00    +0.000 C 
ATOM     22  O   UNL     1       6.927   5.393  14.017  0.00  0.00    +0.000 OA
ATOM     23  H   UNL     1       5.635   2.491  14.311  0.00  0.00    +0.000 HD
BRANCH  21  24
ATOM     24  C   UNL     1       6.581   3.763  12.229  0.00  0.00    +0.000 C 
ATOM     25  F   UNL     1       7.189   2.541  12.144  0.00  0.00    +0.000 F 
ATOM     26  F   UNL     1       5.346   3.615  11.677  0.00  0.00    +0.000 F 
ATOM     27  F   UNL     1       7.282   4.596  11.413  0.00  0.00    +0.000 F 
ENDBRANCH  21  24
ENDBRANCH  19  20
ENDBRANCH  18  19
ENDBRANCH  16  18
ENDBRANCH  15  16
ENDBRANCH   1  15
TORSDOF 12
ENDMDL
MODEL 9
REMARK VINA RESULT:      -5.4      3.338      5.910
REMARK  Name = 
REMARK  12 active torsions:
REMARK  status: ('A' for Active; 'I' for Inactive)
REMARK    1  A    between atoms: C_2  and  C_20
REMARK    2  A    between atoms: N_3  and  C_4
REMARK    3  A    between atoms: C_4  and  C_5
REMARK    4  A    between atoms: C_5  and  N_6
REMARK    5  A    between atoms: N_6  and  C_7
REMARK    6  A    between atoms: C_7  and  C_8
REMARK    7  A    between atoms: C_8  and  C_9
REMARK    8  A    between atoms: C_9  and  N_10
REMARK    9  A    between atoms: N_10  and  C_11
REMARK   10  A    between atoms: C_11  and  C_12
REMARK   11  A    between atoms: C_12  and  N_13
REMARK   12  A    between atoms: C_14  and  C_16
REMARK                            x       y       z     vdW  Elec       q    Type
REMARK                         _______ _______ _______ _____ _____    ______ ____
ROOT
ATOM      1  C   UNL     1       2.138   2.312  20.094  0.00  0.00    +0.000 C 
ENDROOT
BRANCH   1   2
ATOM      2  C   UNL     1       1.412   3.222  21.084  0.00  0.00    +0.000 C 
BRANCH   2   3
ATOM      3  N   UNL     1       1.071   4.491  20.441  0.00  0.00    +0.000 NA
ATOM      4  H   UNL     1       0.682   4.307  19.514  0.00  0.00    +0.000 HD
BRANCH   3   5
ATOM      5  C   UNL     1       2.261   5.337  20.313  0.00  0.00    +0.000 C 
BRANCH   5   6
ATOM      6  C   UNL     1       1.929   6.798  20.657  0.00  0.00    +0.000 C 
BRANCH   6   9
ATOM      7  O   UNL     1       0.917   9.386  20.615  0.00  0.00    +0.000 OA
ATOM      8  C   UNL     1       1.367   8.938  19.553  0.00  0.00    +0.000 C 
ATOM      9  N   UNL     1       1.895   7.652  19.486  0.00  0.00    +0.000 N 
ATOM     10  H   UNL     1       2.264   7.310  18.602  0.00  0.00    +0.000 HD
BRANCH   8  11
ATOM     11  C   UNL     1       1.380   9.749  18.245  0.00  0.00    +0.000 C 
ATOM     12  F   UNL     1       1.858  11.017  18.430  0.00  0.00    +0.000 F 
ATOM     13  F   UNL     1       2.167   9.182  17.290  0.00  0.00    +0.000 F 
ATOM     14  F   UNL     1       0.139   9.884  17.702  0.00  0.00    +0.000 F 
ENDBRANCH   8  11
ENDBRANCH   6   9
ENDBRANCH   5   6
ENDBRANCH   3   5
ENDBRANCH   2   3
ENDBRANCH   1   2
BRANCH   1  15
ATOM     15  C   UNL     1       1.263   2.087  18.862  0.00  0.00    +0.000 C 
BRANCH  15  16
ATOM     16  N   UNL     1       2.070   2.191  17.647  0.00  0.00    +0.000 NA
ATOM     17  H   UNL     1       1.730   2.969  17.079  0.00  0.00    +0.000 HD
BRANCH  16  18
ATOM     18  C   UNL     1       3.480   2.410  17.984  0.00  0.00    +0.000 C 
BRANCH  18  19
ATOM     19  C   UNL     1       4.039   3.620  17.221  0.00  0.00    +0.000 C 
BRANCH  19  20
ATOM     20  N   UNL     1       5.408   3.932  17.592  0.00  0.00    +0.000 N 
ATOM     21  C   UNL     1       5.776   5.222  17.952  0.00  0.00    +0.000 C 
ATOM     22  O   UNL     1       4.949   6.141  17.965  0.00  0.00    +0.000 OA
ATOM     23  H   UNL     1       6.109   3.194  17.581  0.00  0.00    +0.000 HD
BRANCH  21  24
ATOM     24  C   UNL     1       7.259   5.425  18.322  0.00  0.00    +0.000 C 
ATOM     25  F   UNL     1       7.423   5.668  19.657  0.00  0.00    +0.000 F 
ATOM     26  F   UNL     1       8.020   4.334  18.035  0.00  0.00    +0.000 F 
ATOM     27  F   UNL     1       7.819   6.480  17.670  0.00  0.00    +0.000 F 
ENDBRANCH  21  24
ENDBRANCH  19  20
ENDBRANCH  18  19
ENDBRANCH  16  18
ENDBRANCH  15  16
ENDBRANCH   1  15
TORSDOF 12
ENDMDL
