MODEL 1
REMARK VINA RESULT:      -9.0      0.000      0.000
REMARK  Name = 
REMARK  10 active torsions:
REMARK  status: ('A' for Active; 'I' for Inactive)
REMARK    1  A    between atoms: O5*_1  and  C5*_2
REMARK    2  A    between atoms: C5*_2  and  C4*_3
REMARK    3  A    between atoms: C1*_5  and  N_6
REMARK    4  A    between atoms: N_11  and  C_12
REMARK    5  A    between atoms: C_12  and  C_13
REMARK    6  A    between atoms: C_13  and  C_14
REMARK    7  A    between atoms: C_17  and  O_18
REMARK    8  A    between atoms: C_19  and  O_20
REMARK    9  A    between atoms: C2*_26  and  O2*_27
REMARK   10  A    between atoms: C3*_28  and  O3*_29
REMARK                            x       y       z     vdW  Elec       q    Type
REMARK                         _______ _______ _______ _____ _____    ______ ____
ROOT
ATOM      1  N   UNL     1       4.707   4.293  18.555  0.00  0.00    +0.000 N 
ATOM      2  C   UNL     1       5.531   4.325  19.646  0.00  0.00    +0.000 A 
ATOM      3  N   UNL     1       6.514   5.185  19.502  0.00  0.00    +0.000 NA
ATOM      4  C   UNL     1       6.291   5.771  18.272  0.00  0.00    +0.000 A 
ATOM      5  C   UNL     1       6.905   6.850  17.618  0.00  0.00    +0.000 A 
ATOM      6  N   UNL     1       7.928   7.567  18.229  0.00  0.00    +0.000 N 
ATOM      7  N   UNL     1       6.425   7.211  16.398  0.00  0.00    +0.000 NA
ATOM      8  C   UNL     1       5.388   6.518  15.880  0.00  0.00    +0.000 A 
ATOM      9  N   UNL     1       4.684   5.515  16.448  0.00  0.00    +0.000 NA
ATOM     10  C   UNL     1       5.190   5.199  17.648  0.00  0.00    +0.000 A 
ATOM     11  H   UNL     1       8.676   6.977  18.575  0.00  0.00    +0.000 HD
ENDROOT
BRANCH   1  14
ATOM     12  C4* UNL     1       1.543   3.533  19.743  0.00  0.00    +0.000 C 
ATOM     13  O4* UNL     1       2.354   4.324  18.844  0.00  0.00    +0.000 OA
ATOM     14  C1* UNL     1       3.485   3.526  18.403  0.00  0.00    +0.000 C 
ATOM     15  C2* UNL     1       3.467   2.214  19.189  0.00  0.00    +0.000 C 
ATOM     16  C3* UNL     1       1.994   2.089  19.547  0.00  0.00    +0.000 C 
BRANCH  15  17
ATOM     17  O2* UNL     1       3.898   1.088  18.424  0.00  0.00    +0.000 OA
ATOM     18  H2* UNL     1       3.451   0.306  18.809  0.00  0.00    +0.000 HD
ENDBRANCH  15  17
BRANCH  16  19
ATOM     19  O3* UNL     1       1.305   1.487  18.430  0.00  0.00    +0.000 OA
ATOM     20  H3* UNL     1       1.901   0.842  18.003  0.00  0.00    +0.000 HD
ENDBRANCH  16  19
BRANCH  12  21
ATOM     21  C5* UNL     1       1.696   4.038  21.182  0.00  0.00    +0.000 C 
BRANCH  21  22
ATOM     22  O5* UNL     1       2.369   5.290  21.222  0.00  0.00    +0.000 OA
ATOM     23  H5* UNL     1       1.706   5.971  21.439  0.00  0.00    +0.000 HD
ENDBRANCH  21  22
ENDBRANCH  12  21
ENDBRANCH   1  14
BRANCH   6  24
ATOM     24  C   UNL     1       8.212   8.899  17.743  0.00  0.00    +0.000 C 
BRANCH  24  25
ATOM     25  C   UNL     1       8.992   9.692  18.798  0.00  0.00    +0.000 C 
BRANCH  25  26
ATOM     26  C   UNL     1       9.472  11.006  18.235  0.00  0.00    +0.000 A 
ATOM     27  C   UNL     1      10.844  11.228  18.021  0.00  0.00    +0.000 A 
ATOM     28  C   UNL     1      11.305  12.471  17.576  0.00  0.00    +0.000 A 
ATOM     29  C   UNL     1      10.390  13.492  17.351  0.00  0.00    +0.000 A 
ATOM     30  C   UNL     1       9.029  13.274  17.556  0.00  0.00    +0.000 A 
ATOM     31  C   UNL     1       8.563  12.044  17.993  0.00  0.00    +0.000 A 
BRANCH  29  32
ATOM     32  O   UNL     1      10.779  14.736  16.940  0.00  0.00    +0.000 OA
ATOM     33  H   UNL     1      10.941  15.276  17.733  0.00  0.00    +0.000 HD
ENDBRANCH  29  32
BRANCH  30  34
ATOM     34  O   UNL     1       8.137  14.286  17.343  0.00  0.00    +0.000 OA
ATOM     35  H   UNL     1       8.057  14.725  18.212  0.00  0.00    +0.000 HD
ENDBRANCH  30  34
ENDBRANCH  25  26
ENDBRANCH  24  25
ENDBRANCH   6  24
TORSDOF 10
ENDMDL
MODEL 2
REMARK VINA RESULT:      -8.5      0.873      1.304
REMARK  Name = 
REMARK  10 active torsions:
REMARK  status: ('A' for Active; 'I' for Inactive)
REMARK    1  A    between atoms: O5*_1  and  C5*_2
REMARK    2  A    between atoms: C5*_2  and  C4*_3
REMARK    3  A    between atoms: C1*_5  and  N_6
REMARK    4  A    between atoms: N_11  and  C_12
REMARK    5  A    between atoms: C_12  and  C_13
REMARK    6  A    between atoms: C_13  and  C_14
REMARK    7  A    between atoms: C_17  and  O_18
REMARK    8  A    between atoms: C_19  and  O_20
REMARK    9  A    between atoms: C2*_26  and  O2*_27
REMARK   10  A    between atoms: C3*_28  and  O3*_29
REMARK                            x       y       z     vdW  Elec       q    Type
REMARK                         _______ _______ _______ _____ _____    ______ ____
ROOT
ATOM      1  N   UNL     1       4.986   4.417  18.628  0.00  0.00    +0.000 N 
ATOM      2  C   UNL     1       5.881   4.337  19.659  0.00  0.00    +0.000 A 
ATOM      3  N   UNL     1       6.855   5.211  19.543  0.00  0.00    +0.000 NA
ATOM      4  C   UNL     1       6.553   5.923  18.400  0.00  0.00    +0.000 A 
ATOM      5  C   UNL     1       7.125   7.068  17.825  0.00  0.00    +0.000 A 
ATOM      6  N   UNL     1       8.189   7.720  18.440  0.00  0.00    +0.000 N 
ATOM      7  N   UNL     1       6.567   7.555  16.685  0.00  0.00    +0.000 NA
ATOM      8  C   UNL     1       5.496   6.916  16.166  0.00  0.00    +0.000 A 
ATOM      9  N   UNL     1       4.828   5.856  16.669  0.00  0.00    +0.000 NA
ATOM     10  C   UNL     1       5.411   5.416  17.792  0.00  0.00    +0.000 A 
ATOM     11  H   UNL     1       8.956   7.099  18.671  0.00  0.00    +0.000 HD
ENDROOT
BRANCH   1  14
ATOM     12  C4* UNL     1       1.857   3.614  19.877  0.00  0.00    +0.000 C 
ATOM     13  O4* UNL     1       2.644   4.446  18.995  0.00  0.00    +0.000 OA
ATOM     14  C1* UNL     1       3.755   3.666  18.476  0.00  0.00    +0.000 C 
ATOM     15  C2* UNL     1       3.752   2.315  19.194  0.00  0.00    +0.000 C 
ATOM     16  C3* UNL     1       2.291   2.180  19.592  0.00  0.00    +0.000 C 
BRANCH  15  17
ATOM     17  O2* UNL     1       4.151   1.227  18.358  0.00  0.00    +0.000 OA
ATOM     18  H2* UNL     1       3.797   0.416  18.775  0.00  0.00    +0.000 HD
ENDBRANCH  15  17
BRANCH  16  19
ATOM     19  O3* UNL     1       1.562   1.640  18.468  0.00  0.00    +0.000 OA
ATOM     20  H3* UNL     1       2.192   1.201  17.866  0.00  0.00    +0.000 HD
ENDBRANCH  16  19
BRANCH  12  21
ATOM     21  C5* UNL     1       2.059   4.043  21.335  0.00  0.00    +0.000 C 
BRANCH  21  22
ATOM     22  O5* UNL     1       1.962   2.933  22.218  0.00  0.00    +0.000 OA
ATOM     23  H5* UNL     1       1.797   3.286  23.112  0.00  0.00    +0.000 HD
ENDBRANCH  21  22
ENDBRANCH  12  21
ENDBRANCH   1  14
BRANCH   6  24
ATOM     24  C   UNL     1       8.444   9.097  18.081  0.00  0.00    +0.000 C 
BRANCH  24  25
ATOM     25  C   UNL     1       9.074   9.844  19.263  0.00  0.00    +0.000 C 
BRANCH  25  26
ATOM     26  C   UNL     1       9.583  11.197  18.832  0.00  0.00    +0.000 A 
ATOM     27  C   UNL     1       9.068  12.368  19.415  0.00  0.00    +0.000 A 
ATOM     28  C   UNL     1       9.475  13.628  18.964  0.00  0.00    +0.000 A 
ATOM     29  C   UNL     1      10.394  13.711  17.926  0.00  0.00    +0.000 A 
ATOM     30  C   UNL     1      10.911  12.553  17.350  0.00  0.00    +0.000 A 
ATOM     31  C   UNL     1      10.517  11.300  17.793  0.00  0.00    +0.000 A 
BRANCH  29  32
ATOM     32  O   UNL     1      10.813  14.912  17.425  0.00  0.00    +0.000 OA
ATOM     33  H   UNL     1      11.376  14.734  16.652  0.00  0.00    +0.000 HD
ENDBRANCH  29  32
BRANCH  30  34
ATOM     34  O   UNL     1      11.807  12.644  16.323  0.00  0.00    +0.000 OA
ATOM     35  H   UNL     1      11.341  12.251  15.560  0.00  0.00    +0.000 HD
ENDBRANCH  30  34
ENDBRANCH  25  26
ENDBRANCH  24  25
ENDBRANCH   6  24
TORSDOF 10
ENDMDL
MODEL 3
REMARK VINA RESULT:      -8.1      1.361      1.953
REMARK  Name = 
REMARK  10 active torsions:
REMARK  status: ('A' for Active; 'I' for Inactive)
REMARK    1  A    between atoms: O5*_1  and  C5*_2
REMARK    2  A    between atoms: C5*_2  and  C4*_3
REMARK    3  A    between atoms: C1*_5  and  N_6
REMARK    4  A    between atoms: N_11  and  C_12
REMARK    5  A    between atoms: C_12  and  C_13
REMARK    6  A    between atoms: C_13  and  C_14
REMARK    7  A    between atoms: C_17  and  O_18
REMARK    8  A    between atoms: C_19  and  O_20
REMARK    9  A    between atoms: C2*_26  and  O2*_27
REMARK   10  A    between atoms: C3*_28  and  O3*_29
REMARK                            x       y       z     vdW  Elec       q    Type
REMARK                         _______ _______ _______ _____ _____    ______ ____
ROOT
ATOM      1  N   UNL     1       4.691   4.794  17.744  0.00  0.00    +0.000 N 
ATOM      2  C   UNL     1       4.019   5.822  17.145  0.00  0.00    +0.000 A 
ATOM      3  N   UNL     1       4.693   6.949  17.184  0.00  0.00    +0.000 NA
ATOM      4  C   UNL     1       5.882   6.625  17.805  0.00  0.00    +0.000 A 
ATOM      5  C   UNL     1       7.063   7.353  18.018  0.00  0.00    +0.000 A 
ATOM      6  N   UNL     1       7.197   8.652  17.538  0.00  0.00    +0.000 N 
ATOM      7  N   UNL     1       8.092   6.728  18.650  0.00  0.00    +0.000 NA
ATOM      8  C   UNL     1       7.927   5.445  19.039  0.00  0.00    +0.000 A 
ATOM      9  N   UNL     1       6.868   4.635  18.827  0.00  0.00    +0.000 NA
ATOM     10  C   UNL     1       5.885   5.292  18.198  0.00  0.00    +0.000 A 
ATOM     11  H   UNL     1       6.431   9.258  17.810  0.00  0.00    +0.000 HD
ENDROOT
BRANCH   1  14
ATOM     12  C4* UNL     1       2.115   2.488  17.962  0.00  0.00    +0.000 C 
ATOM     13  O4* UNL     1       3.021   3.233  17.116  0.00  0.00    +0.000 OA
ATOM     14  C1* UNL     1       4.285   3.403  17.812  0.00  0.00    +0.000 C 
ATOM     15  C2* UNL     1       4.111   2.869  19.235  0.00  0.00    +0.000 C 
ATOM     16  C3* UNL     1       2.982   1.867  19.053  0.00  0.00    +0.000 C 
BRANCH  15  17
ATOM     17  O2* UNL     1       5.279   2.227  19.748  0.00  0.00    +0.000 OA
ATOM     18  H2* UNL     1       5.581   1.609  19.051  0.00  0.00    +0.000 HD
ENDBRANCH  15  17
BRANCH  16  19
ATOM     19  O3* UNL     1       3.552   0.619  18.602  0.00  0.00    +0.000 OA
ATOM     20  H3* UNL     1       4.524   0.709  18.571  0.00  0.00    +0.000 HD
ENDBRANCH  16  19
BRANCH  12  21
ATOM     21  C5* UNL     1       1.012   3.407  18.499  0.00  0.00    +0.000 C 
BRANCH  21  22
ATOM     22  O5* UNL     1       0.456   2.897  19.705  0.00  0.00    +0.000 OA
ATOM     23  H5* UNL     1      -0.084   3.607  20.099  0.00  0.00    +0.000 HD
ENDBRANCH  21  22
ENDBRANCH  12  21
ENDBRANCH   1  14
BRANCH   6  24
ATOM     24  C   UNL     1       8.531   9.185  17.376  0.00  0.00    +0.000 C 
BRANCH  24  25
ATOM     25  C   UNL     1       8.912  10.036  18.593  0.00  0.00    +0.000 C 
BRANCH  25  26
ATOM     26  C   UNL     1       9.584  11.316  18.164  0.00  0.00    +0.000 A 
ATOM     27  C   UNL     1      10.984  11.381  18.052  0.00  0.00    +0.000 A 
ATOM     28  C   UNL     1      11.620  12.585  17.735  0.00  0.00    +0.000 A 
ATOM     29  C   UNL     1      10.851  13.724  17.533  0.00  0.00    +0.000 A 
ATOM     30  C   UNL     1       9.463  13.662  17.637  0.00  0.00    +0.000 A 
ATOM     31  C   UNL     1       8.824  12.472  17.948  0.00  0.00    +0.000 A 
BRANCH  29  32
ATOM     32  O   UNL     1      11.414  14.936  17.245  0.00  0.00    +0.000 OA
ATOM     33  H   UNL     1      11.162  15.558  17.948  0.00  0.00    +0.000 HD
ENDBRANCH  29  32
BRANCH  30  34
ATOM     34  O   UNL     1       8.715  14.790  17.447  0.00  0.00    +0.000 OA
ATOM     35  H   UNL     1       8.116  14.561  16.710  0.00  0.00    +0.000 HD
ENDBRANCH  30  34
ENDBRANCH  25  26
ENDBRANCH  24  25
ENDBRANCH   6  24
TORSDOF 10
ENDMDL
MODEL 4
REMARK VINA RESULT:      -8.1      1.448      1.616
REMARK  Name = 
REMARK  10 active torsions:
REMARK  status: ('A' for Active; 'I' for Inactive)
REMARK    1  A    between atoms: O5*_1  and  C5*_2
REMARK    2  A    between atoms: C5*_2  and  C4*_3
REMARK    3  A    between atoms: C1*_5  and  N_6
REMARK    4  A    between atoms: N_11  and  C_12
REMARK    5  A    between atoms: C_12  and  C_13
REMARK    6  A    between atoms: C_13  and  C_14
REMARK    7  A    between atoms: C_17  and  O_18
REMARK    8  A    between atoms: C_19  and  O_20
REMARK    9  A    between atoms: C2*_26  and  O2*_27
REMARK   10  A    between atoms: C3*_28  and  O3*_29
REMARK                            x       y       z     vdW  Elec       q    Type
REMARK                         _______ _______ _______ _____ _____    ______ ____
ROOT
ATOM      1  N   UNL     1       4.539   4.214  18.552  0.00  0.00    +0.000 N 
ATOM      2  C   UNL     1       5.222   4.415  19.720  0.00  0.00    +0.000 A 
ATOM      3  N   UNL     1       6.268   5.194  19.557  0.00  0.00    +0.000 NA
ATOM      4  C   UNL     1       6.236   5.550  18.224  0.00  0.00    +0.000 A 
ATOM      5  C   UNL     1       6.994   6.464  17.476  0.00  0.00    +0.000 A 
ATOM      6  N   UNL     1       7.977   7.241  18.080  0.00  0.00    +0.000 N 
ATOM      7  N   UNL     1       6.693   6.612  16.158  0.00  0.00    +0.000 NA
ATOM      8  C   UNL     1       5.686   5.876  15.638  0.00  0.00    +0.000 A 
ATOM      9  N   UNL     1       4.855   5.025  16.277  0.00  0.00    +0.000 NA
ATOM     10  C   UNL     1       5.187   4.916  17.570  0.00  0.00    +0.000 A 
ATOM     11  H   UNL     1       8.637   6.695  18.623  0.00  0.00    +0.000 HD
ENDROOT
BRANCH   1  14
ATOM     12  C4* UNL     1       1.339   3.531  19.690  0.00  0.00    +0.000 C 
ATOM     13  O4* UNL     1       2.183   4.306  18.809  0.00  0.00    +0.000 OA
ATOM     14  C1* UNL     1       3.299   3.481  18.377  0.00  0.00    +0.000 C 
ATOM     15  C2* UNL     1       3.235   2.165  19.153  0.00  0.00    +0.000 C 
ATOM     16  C3* UNL     1       1.754   2.077  19.490  0.00  0.00    +0.000 C 
BRANCH  15  17
ATOM     17  O2* UNL     1       3.646   1.033  18.385  0.00  0.00    +0.000 OA
ATOM     18  H2* UNL     1       2.828   0.627  18.033  0.00  0.00    +0.000 HD
ENDBRANCH  15  17
BRANCH  16  19
ATOM     19  O3* UNL     1       1.065   1.501  18.359  0.00  0.00    +0.000 OA
ATOM     20  H3* UNL     1       0.804   2.218  17.750  0.00  0.00    +0.000 HD
ENDBRANCH  16  19
BRANCH  12  21
ATOM     21  C5* UNL     1       1.486   4.021  21.135  0.00  0.00    +0.000 C 
BRANCH  21  22
ATOM     22  O5* UNL     1       2.229   5.232  21.197  0.00  0.00    +0.000 OA
ATOM     23  H5* UNL     1       3.171   5.000  21.096  0.00  0.00    +0.000 HD
ENDBRANCH  21  22
ENDBRANCH  12  21
ENDBRANCH   1  14
BRANCH   6  24
ATOM     24  C   UNL     1       8.402   8.447  17.407  0.00  0.00    +0.000 C 
BRANCH  24  25
ATOM     25  C   UNL     1       7.892   9.681  18.160  0.00  0.00    +0.000 C 
BRANCH  25  26
ATOM     26  C   UNL     1       9.041  10.555  18.599  0.00  0.00    +0.000 A 
ATOM     27  C   UNL     1      10.030  10.945  17.679  0.00  0.00    +0.000 A 
ATOM     28  C   UNL     1      11.140  11.686  18.095  0.00  0.00    +0.000 A 
ATOM     29  C   UNL     1      11.260  12.031  19.435  0.00  0.00    +0.000 A 
ATOM     30  C   UNL     1      10.279  11.652  20.349  0.00  0.00    +0.000 A 
ATOM     31  C   UNL     1       9.173  10.920  19.945  0.00  0.00    +0.000 A 
BRANCH  29  32
ATOM     32  O   UNL     1      12.333  12.733  19.908  0.00  0.00    +0.000 OA
ATOM     33  H   UNL     1      12.196  13.671  19.692  0.00  0.00    +0.000 HD
ENDBRANCH  29  32
BRANCH  30  34
ATOM     34  O   UNL     1      10.411  11.987  21.667  0.00  0.00    +0.000 OA
ATOM     35  H   UNL     1       9.493  12.117  21.976  0.00  0.00    +0.000 HD
ENDBRANCH  30  34
ENDBRANCH  25  26
ENDBRANCH  24  25
ENDBRANCH   6  24
TORSDOF 10
ENDMDL
MODEL 5
REMARK VINA RESULT:      -8.1      1.076      1.204
REMARK  Name = 
REMARK  10 active torsions:
REMARK  status: ('A' for Active; 'I' for Inactive)
REMARK    1  A    between atoms: O5*_1  and  C5*_2
REMARK    2  A    between atoms: C5*_2  and  C4*_3
REMARK    3  A    between atoms: C1*_5  and  N_6
REMARK    4  A    between atoms: N_11  and  C_12
REMARK    5  A    between atoms: C_12  and  C_13
REMARK    6  A    between atoms: C_13  and  C_14
REMARK    7  A    between atoms: C_17  and  O_18
REMARK    8  A    between atoms: C_19  and  O_20
REMARK    9  A    between atoms: C2*_26  and  O2*_27
REMARK   10  A    between atoms: C3*_28  and  O3*_29
REMARK                            x       y       z     vdW  Elec       q    Type
REMARK                         _______ _______ _______ _____ _____    ______ ____
ROOT
ATOM      1  N   UNL     1       4.920   4.404  18.552  0.00  0.00    +0.000 N 
ATOM      2  C   UNL     1       5.742   4.294  19.640  0.00  0.00    +0.000 A 
ATOM      3  N   UNL     1       6.752   5.132  19.588  0.00  0.00    +0.000 NA
ATOM      4  C   UNL     1       6.552   5.852  18.428  0.00  0.00    +0.000 A 
ATOM      5  C   UNL     1       7.202   6.975  17.892  0.00  0.00    +0.000 A 
ATOM      6  N   UNL     1       8.246   7.589  18.576  0.00  0.00    +0.000 N 
ATOM      7  N   UNL     1       6.737   7.479  16.718  0.00  0.00    +0.000 NA
ATOM      8  C   UNL     1       5.680   6.878  16.129  0.00  0.00    +0.000 A 
ATOM      9  N   UNL     1       4.943   5.844  16.588  0.00  0.00    +0.000 NA
ATOM     10  C   UNL     1       5.435   5.386  17.746  0.00  0.00    +0.000 A 
ATOM     11  H   UNL     1       8.973   6.941  18.857  0.00  0.00    +0.000 HD
ENDROOT
BRANCH   1  14
ATOM     12  C4* UNL     1       1.732   3.619  19.656  0.00  0.00    +0.000 C 
ATOM     13  O4* UNL     1       2.569   4.478  18.848  0.00  0.00    +0.000 OA
ATOM     14  C1* UNL     1       3.675   3.697  18.320  0.00  0.00    +0.000 C 
ATOM     15  C2* UNL     1       3.614   2.309  18.958  0.00  0.00    +0.000 C 
ATOM     16  C3* UNL     1       2.137   2.192  19.303  0.00  0.00    +0.000 C 
BRANCH  15  17
ATOM     17  O2* UNL     1       4.011   1.260  18.074  0.00  0.00    +0.000 OA
ATOM     18  H2* UNL     1       3.275   0.613  18.067  0.00  0.00    +0.000 HD
ENDBRANCH  15  17
BRANCH  16  19
ATOM     19  O3* UNL     1       1.431   1.738  18.128  0.00  0.00    +0.000 OA
ATOM     20  H3* UNL     1       0.733   2.384  17.910  0.00  0.00    +0.000 HD
ENDBRANCH  16  19
BRANCH  12  21
ATOM     21  C5* UNL     1       1.899   3.959  21.142  0.00  0.00    +0.000 C 
BRANCH  21  22
ATOM     22  O5* UNL     1       2.246   5.326  21.323  0.00  0.00    +0.000 OA
ATOM     23  H5* UNL     1       2.018   5.566  22.240  0.00  0.00    +0.000 HD
ENDBRANCH  21  22
ENDBRANCH  12  21
ENDBRANCH   1  14
BRANCH   6  24
ATOM     24  C   UNL     1       8.573   8.955  18.235  0.00  0.00    +0.000 C 
BRANCH  24  25
ATOM     25  C   UNL     1       9.032   9.717  19.483  0.00  0.00    +0.000 C 
BRANCH  25  26
ATOM     26  C   UNL     1       9.710  11.010  19.104  0.00  0.00    +0.000 A 
ATOM     27  C   UNL     1      10.154  11.221  17.787  0.00  0.00    +0.000 A 
ATOM     28  C   UNL     1      10.855  12.381  17.447  0.00  0.00    +0.000 A 
ATOM     29  C   UNL     1      11.115  13.328  18.430  0.00  0.00    +0.000 A 
ATOM     30  C   UNL     1      10.671  13.126  19.735  0.00  0.00    +0.000 A 
ATOM     31  C   UNL     1       9.972  11.980  20.080  0.00  0.00    +0.000 A 
BRANCH  29  32
ATOM     32  O   UNL     1      11.817  14.471  18.166  0.00  0.00    +0.000 OA
ATOM     33  H   UNL     1      11.816  15.015  18.972  0.00  0.00    +0.000 HD
ENDBRANCH  29  32
BRANCH  30  34
ATOM     34  O   UNL     1      10.940  14.057  20.697  0.00  0.00    +0.000 OA
ATOM     35  H   UNL     1      11.897  13.959  20.868  0.00  0.00    +0.000 HD
ENDBRANCH  30  34
ENDBRANCH  25  26
ENDBRANCH  24  25
ENDBRANCH   6  24
TORSDOF 10
ENDMDL
MODEL 6
REMARK VINA RESULT:      -8.0      1.105      1.403
REMARK  Name = 
REMARK  10 active torsions:
REMARK  status: ('A' for Active; 'I' for Inactive)
REMARK    1  A    between atoms: O5*_1  and  C5*_2
REMARK    2  A    between atoms: C5*_2  and  C4*_3
REMARK    3  A    between atoms: C1*_5  and  N_6
REMARK    4  A    between atoms: N_11  and  C_12
REMARK    5  A    between atoms: C_12  and  C_13
REMARK    6  A    between atoms: C_13  and  C_14
REMARK    7  A    between atoms: C_17  and  O_18
REMARK    8  A    between atoms: C_19  and  O_20
REMARK    9  A    between atoms: C2*_26  and  O2*_27
REMARK   10  A    between atoms: C3*_28  and  O3*_29
REMARK                            x       y       z     vdW  Elec       q    Type
REMARK                         _______ _______ _______ _____ _____    ______ ____
ROOT
ATOM      1  N   UNL     1       4.750   4.348  18.576  0.00  0.00    +0.000 N 
ATOM      2  C   UNL     1       5.618   4.342  19.633  0.00  0.00    +0.000 A 
ATOM      3  N   UNL     1       6.579   5.227  19.494  0.00  0.00    +0.000 NA
ATOM      4  C   UNL     1       6.294   5.870  18.306  0.00  0.00    +0.000 A 
ATOM      5  C   UNL     1       6.861   6.992  17.683  0.00  0.00    +0.000 A 
ATOM      6  N   UNL     1       7.896   7.698  18.288  0.00  0.00    +0.000 N 
ATOM      7  N   UNL     1       6.325   7.405  16.503  0.00  0.00    +0.000 NA
ATOM      8  C   UNL     1       5.280   6.717  15.993  0.00  0.00    +0.000 A 
ATOM      9  N   UNL     1       4.619   5.674  16.537  0.00  0.00    +0.000 NA
ATOM     10  C   UNL     1       5.179   5.308  17.697  0.00  0.00    +0.000 A 
ATOM     11  H   UNL     1       8.668   7.106  18.573  0.00  0.00    +0.000 HD
ENDROOT
BRANCH   1  14
ATOM     12  C4* UNL     1       1.631   3.501  19.824  0.00  0.00    +0.000 C 
ATOM     13  O4* UNL     1       2.405   4.331  18.927  0.00  0.00    +0.000 OA
ATOM     14  C1* UNL     1       3.537   3.565  18.434  0.00  0.00    +0.000 C 
ATOM     15  C2* UNL     1       3.561   2.231  19.182  0.00  0.00    +0.000 C 
ATOM     16  C3* UNL     1       2.100   2.071  19.575  0.00  0.00    +0.000 C 
BRANCH  15  17
ATOM     17  O2* UNL     1       3.990   1.134  18.374  0.00  0.00    +0.000 OA
ATOM     18  H2* UNL     1       4.397   0.486  18.985  0.00  0.00    +0.000 HD
ENDBRANCH  15  17
BRANCH  16  19
ATOM     19  O3* UNL     1       1.392   1.489  18.459  0.00  0.00    +0.000 OA
ATOM     20  H3* UNL     1       0.923   0.690  18.766  0.00  0.00    +0.000 HD
ENDBRANCH  16  19
BRANCH  12  21
ATOM     21  C5* UNL     1       1.815   3.968  21.272  0.00  0.00    +0.000 C 
BRANCH  21  22
ATOM     22  O5* UNL     1       1.886   2.865  22.166  0.00  0.00    +0.000 OA
ATOM     23  H5* UNL     1       2.354   3.167  22.966  0.00  0.00    +0.000 HD
ENDBRANCH  21  22
ENDBRANCH  12  21
ENDBRANCH   1  14
BRANCH   6  24
ATOM     24  C   UNL     1       8.135   9.058  17.861  0.00  0.00    +0.000 C 
BRANCH  24  25
ATOM     25  C   UNL     1       9.416   9.599  18.506  0.00  0.00    +0.000 C 
BRANCH  25  26
ATOM     26  C   UNL     1       9.233  11.029  18.947  0.00  0.00    +0.000 A 
ATOM     27  C   UNL     1       9.215  11.356  20.314  0.00  0.00    +0.000 A 
ATOM     28  C   UNL     1       8.964  12.666  20.733  0.00  0.00    +0.000 A 
ATOM     29  C   UNL     1       8.726  13.647  19.778  0.00  0.00    +0.000 A 
ATOM     30  C   UNL     1       8.748  13.329  18.422  0.00  0.00    +0.000 A 
ATOM     31  C   UNL     1       9.000  12.034  17.998  0.00  0.00    +0.000 A 
BRANCH  29  32
ATOM     32  O   UNL     1       8.450  14.941  20.124  0.00  0.00    +0.000 OA
ATOM     33  H   UNL     1       7.544  14.970  20.475  0.00  0.00    +0.000 HD
ENDBRANCH  29  32
BRANCH  30  34
ATOM     34  O   UNL     1       8.503  14.299  17.491  0.00  0.00    +0.000 OA
ATOM     35  H   UNL     1       8.501  15.131  18.004  0.00  0.00    +0.000 HD
ENDBRANCH  30  34
ENDBRANCH  25  26
ENDBRANCH  24  25
ENDBRANCH   6  24
TORSDOF 10
ENDMDL
MODEL 7
REMARK VINA RESULT:      -7.9      5.043      7.383
REMARK  Name = 
REMARK  10 active torsions:
REMARK  status: ('A' for Active; 'I' for Inactive)
REMARK    1  A    between atoms: O5*_1  and  C5*_2
REMARK    2  A    between atoms: C5*_2  and  C4*_3
REMARK    3  A    between atoms: C1*_5  and  N_6
REMARK    4  A    between atoms: N_11  and  C_12
REMARK    5  A    between atoms: C_12  and  C_13
REMARK    6  A    between atoms: C_13  and  C_14
REMARK    7  A    between atoms: C_17  and  O_18
REMARK    8  A    between atoms: C_19  and  O_20
REMARK    9  A    between atoms: C2*_26  and  O2*_27
REMARK   10  A    between atoms: C3*_28  and  O3*_29
REMARK                            x       y       z     vdW  Elec       q    Type
REMARK                         _______ _______ _______ _____ _____    ______ ____
ROOT
ATOM      1  N   UNL     1       1.128   9.034  19.286  0.00  0.00    +0.000 N 
ATOM      2  C   UNL     1       1.600   9.418  18.061  0.00  0.00    +0.000 A 
ATOM      3  N   UNL     1       2.402   8.521  17.532  0.00  0.00    +0.000 NA
ATOM      4  C   UNL     1       2.416   7.484  18.442  0.00  0.00    +0.000 A 
ATOM      5  C   UNL     1       2.968   6.194  18.392  0.00  0.00    +0.000 A 
ATOM      6  N   UNL     1       3.628   5.744  17.253  0.00  0.00    +0.000 N 
ATOM      7  N   UNL     1       2.781   5.379  19.464  0.00  0.00    +0.000 NA
ATOM      8  C   UNL     1       2.078   5.849  20.518  0.00  0.00    +0.000 A 
ATOM      9  N   UNL     1       1.451   7.038  20.643  0.00  0.00    +0.000 NA
ATOM     10  C   UNL     1       1.660   7.802  19.563  0.00  0.00    +0.000 A 
ATOM     11  H   UNL     1       4.351   6.380  16.935  0.00  0.00    +0.000 HD
ENDROOT
BRANCH   1  14
ATOM     12  C4* UNL     1      -0.990  11.747  19.677  0.00  0.00    +0.000 C 
ATOM     13  O4* UNL     1      -0.830  10.370  19.265  0.00  0.00    +0.000 OA
ATOM     14  C1* UNL     1       0.165   9.736  20.112  0.00  0.00    +0.000 C 
ATOM     15  C2* UNL     1       0.776  10.817  21.006  0.00  0.00    +0.000 C 
ATOM     16  C3* UNL     1      -0.344  11.846  21.055  0.00  0.00    +0.000 C 
BRANCH  15  17
ATOM     17  O2* UNL     1       1.096  10.355  22.319  0.00  0.00    +0.000 OA
ATOM     18  H2* UNL     1       0.241  10.205  22.773  0.00  0.00    +0.000 HD
ENDBRANCH  15  17
BRANCH  16  19
ATOM     19  O3* UNL     1      -1.276  11.452  22.085  0.00  0.00    +0.000 OA
ATOM     20  H3* UNL     1      -2.175  11.431  21.705  0.00  0.00    +0.000 HD
ENDBRANCH  16  19
BRANCH  12  21
ATOM     21  C5* UNL     1      -0.373  12.689  18.637  0.00  0.00    +0.000 C 
BRANCH  21  22
ATOM     22  O5* UNL     1      -1.168  12.750  17.459  0.00  0.00    +0.000 OA
ATOM     23  H5* UNL     1      -0.809  12.095  16.832  0.00  0.00    +0.000 HD
ENDBRANCH  21  22
ENDBRANCH  12  21
ENDBRANCH   1  14
BRANCH   6  24
ATOM     24  C   UNL     1       3.774   4.318  17.068  0.00  0.00    +0.000 C 
BRANCH  24  25
ATOM     25  C   UNL     1       5.250   3.958  16.870  0.00  0.00    +0.000 C 
BRANCH  25  26
ATOM     26  C   UNL     1       6.145   5.007  17.480  0.00  0.00    +0.000 A 
ATOM     27  C   UNL     1       6.546   6.125  16.728  0.00  0.00    +0.000 A 
ATOM     28  C   UNL     1       7.441   7.060  17.259  0.00  0.00    +0.000 A 
ATOM     29  C   UNL     1       7.936   6.869  18.542  0.00  0.00    +0.000 A 
ATOM     30  C   UNL     1       7.537   5.765  19.293  0.00  0.00    +0.000 A 
ATOM     31  C   UNL     1       6.648   4.836  18.777  0.00  0.00    +0.000 A 
BRANCH  29  32
ATOM     32  O   UNL     1       8.832   7.732  19.108  0.00  0.00    +0.000 OA
ATOM     33  H   UNL     1       9.632   7.228  19.335  0.00  0.00    +0.000 HD
ENDBRANCH  29  32
BRANCH  30  34
ATOM     34  O   UNL     1       8.038   5.580  20.551  0.00  0.00    +0.000 OA
ATOM     35  H   UNL     1       7.573   6.244  21.096  0.00  0.00    +0.000 HD
ENDBRANCH  30  34
ENDBRANCH  25  26
ENDBRANCH  24  25
ENDBRANCH   6  24
TORSDOF 10
ENDMDL
MODEL 8
REMARK VINA RESULT:      -7.8      1.680      1.935
REMARK  Name = 
REMARK  10 active torsions:
REMARK  status: ('A' for Active; 'I' for Inactive)
REMARK    1  A    between atoms: O5*_1  and  C5*_2
REMARK    2  A    between atoms: C5*_2  and  C4*_3
REMARK    3  A    between atoms: C1*_5  and  N_6
REMARK    4  A    between atoms: N_11  and  C_12
REMARK    5  A    between atoms: C_12  and  C_13
REMARK    6  A    between atoms: C_13  and  C_14
REMARK    7  A    between atoms: C_17  and  O_18
REMARK    8  A    between atoms: C_19  and  O_20
REMARK    9  A    between atoms: C2*_26  and  O2*_27
REMARK   10  A    between atoms: C3*_28  and  O3*_29
REMARK                            x       y       z     vdW  Elec       q    Type
REMARK                         _______ _______ _______ _____ _____    ______ ____
ROOT
ATOM      1  N   UNL     1       4.614   4.323  18.579  0.00  0.00    +0.000 N 
ATOM      2  C   UNL     1       5.483   4.308  19.635  0.00  0.00    +0.000 A 
ATOM      3  N   UNL     1       6.461   5.174  19.487  0.00  0.00    +0.000 NA
ATOM      4  C   UNL     1       6.188   5.812  18.294  0.00  0.00    +0.000 A 
ATOM      5  C   UNL     1       6.776   6.918  17.661  0.00  0.00    +0.000 A 
ATOM      6  N   UNL     1       7.825   7.608  18.259  0.00  0.00    +0.000 N 
ATOM      7  N   UNL     1       6.246   7.331  16.479  0.00  0.00    +0.000 NA
ATOM      8  C   UNL     1       5.187   6.660  15.975  0.00  0.00    +0.000 A 
ATOM      9  N   UNL     1       4.506   5.634  16.529  0.00  0.00    +0.000 NA
ATOM     10  C   UNL     1       5.061   5.267  17.691  0.00  0.00    +0.000 A 
ATOM     11  H   UNL     1       8.586   7.003  18.549  0.00  0.00    +0.000 HD
ENDROOT
BRANCH   1  14
ATOM     12  C4* UNL     1       1.596   3.341  19.966  0.00  0.00    +0.000 C 
ATOM     13  O4* UNL     1       2.305   4.268  19.112  0.00  0.00    +0.000 OA
ATOM     14  C1* UNL     1       3.386   3.563  18.445  0.00  0.00    +0.000 C 
ATOM     15  C2* UNL     1       3.455   2.151  19.030  0.00  0.00    +0.000 C 
ATOM     16  C3* UNL     1       2.029   1.949  19.517  0.00  0.00    +0.000 C 
BRANCH  15  17
ATOM     17  O2* UNL     1       3.808   1.155  18.069  0.00  0.00    +0.000 OA
ATOM     18  H2* UNL     1       3.134   1.206  17.361  0.00  0.00    +0.000 HD
ENDBRANCH  15  17
BRANCH  16  19
ATOM     19  O3* UNL     1       1.228   1.500  18.402  0.00  0.00    +0.000 OA
ATOM     20  H3* UNL     1       1.274   2.168  17.692  0.00  0.00    +0.000 HD
ENDBRANCH  16  19
BRANCH  12  21
ATOM     21  C5* UNL     1       1.898   3.636  21.439  0.00  0.00    +0.000 C 
BRANCH  21  22
ATOM     22  O5* UNL     1       1.546   2.537  22.270  0.00  0.00    +0.000 OA
ATOM     23  H5* UNL     1       0.794   2.082  21.847  0.00  0.00    +0.000 HD
ENDBRANCH  21  22
ENDBRANCH  12  21
ENDBRANCH   1  14
BRANCH   6  24
ATOM     24  C   UNL     1       8.090   8.960  17.820  0.00  0.00    +0.000 C 
BRANCH  24  25
ATOM     25  C   UNL     1       9.416   9.456  18.407  0.00  0.00    +0.000 C 
BRANCH  25  26
ATOM     26  C   UNL     1       9.233  10.784  19.099  0.00  0.00    +0.000 A 
ATOM     27  C   UNL     1       9.058  11.959  18.348  0.00  0.00    +0.000 A 
ATOM     28  C   UNL     1       8.969  13.204  18.979  0.00  0.00    +0.000 A 
ATOM     29  C   UNL     1       9.061  13.269  20.363  0.00  0.00    +0.000 A 
ATOM     30  C   UNL     1       9.229  12.106  21.112  0.00  0.00    +0.000 A 
ATOM     31  C   UNL     1       9.314  10.868  20.495  0.00  0.00    +0.000 A 
BRANCH  29  32
ATOM     32  O   UNL     1       9.007  14.457  21.037  0.00  0.00    +0.000 OA
ATOM     33  H   UNL     1       8.550  14.301  21.881  0.00  0.00    +0.000 HD
ENDBRANCH  29  32
BRANCH  30  34
ATOM     34  O   UNL     1       9.329  12.180  22.473  0.00  0.00    +0.000 OA
ATOM     35  H   UNL     1      10.044  12.828  22.627  0.00  0.00    +0.000 HD
ENDBRANCH  30  34
ENDBRANCH  25  26
ENDBRANCH  24  25
ENDBRANCH   6  24
TORSDOF 10
ENDMDL
MODEL 9
REMARK VINA RESULT:      -7.8      6.109      8.315
REMARK  Name = 
REMARK  10 active torsions:
REMARK  status: ('A' for Active; 'I' for Inactive)
REMARK    1  A    between atoms: O5*_1  and  C5*_2
REMARK    2  A    between atoms: C5*_2  and  C4*_3
REMARK    3  A    between atoms: C1*_5  and  N_6
REMARK    4  A    between atoms: N_11  and  C_12
REMARK    5  A    between atoms: C_12  and  C_13
REMARK    6  A    between atoms: C_13  and  C_14
REMARK    7  A    between atoms: C_17  and  O_18
REMARK    8  A    between atoms: C_19  and  O_20
REMARK    9  A    between atoms: C2*_26  and  O2*_27
REMARK   10  A    between atoms: C3*_28  and  O3*_29
REMARK                            x       y       z     vdW  Elec       q    Type
REMARK                         _______ _______ _______ _____ _____    ______ ____
ROOT
ATOM      1  N   UNL     1       2.331   6.134  19.665  0.00  0.00    +0.000 N 
ATOM      2  C   UNL     1       1.688   6.282  20.863  0.00  0.00    +0.000 A 
ATOM      3  N   UNL     1       1.266   7.512  21.054  0.00  0.00    +0.000 NA
ATOM      4  C   UNL     1       1.615   8.185  19.901  0.00  0.00    +0.000 A 
ATOM      5  C   UNL     1       1.323   9.478  19.440  0.00  0.00    +0.000 A 
ATOM      6  N   UNL     1       0.514  10.334  20.180  0.00  0.00    +0.000 N 
ATOM      7  N   UNL     1       1.801   9.843  18.220  0.00  0.00    +0.000 NA
ATOM      8  C   UNL     1       2.529   8.948  17.518  0.00  0.00    +0.000 A 
ATOM      9  N   UNL     1       2.812   7.666  17.833  0.00  0.00    +0.000 NA
ATOM     10  C   UNL     1       2.317   7.353  19.038  0.00  0.00    +0.000 A 
ATOM     11  H   UNL     1       0.815  10.432  21.144  0.00  0.00    +0.000 HD
ENDROOT
BRANCH   1  14
ATOM     12  C4* UNL     1       2.872   2.730  20.009  0.00  0.00    +0.000 C 
ATOM     13  O4* UNL     1       2.020   3.788  19.515  0.00  0.00    +0.000 OA
ATOM     14  C1* UNL     1       2.850   4.905  19.095  0.00  0.00    +0.000 C 
ATOM     15  C2* UNL     1       4.293   4.591  19.492  0.00  0.00    +0.000 C 
ATOM     16  C3* UNL     1       4.279   3.070  19.528  0.00  0.00    +0.000 C 
BRANCH  15  17
ATOM     17  O2* UNL     1       5.257   5.066  18.550  0.00  0.00    +0.000 OA
ATOM     18  H2* UNL     1       4.852   4.958  17.665  0.00  0.00    +0.000 HD
ENDBRANCH  15  17
BRANCH  16  19
ATOM     19  O3* UNL     1       4.490   2.583  18.185  0.00  0.00    +0.000 OA
ATOM     20  H3* UNL     1       3.808   2.965  17.600  0.00  0.00    +0.000 HD
ENDBRANCH  16  19
BRANCH  12  21
ATOM     21  C5* UNL     1       2.752   2.618  21.533  0.00  0.00    +0.000 C 
BRANCH  21  22
ATOM     22  O5* UNL     1       1.399   2.740  21.955  0.00  0.00    +0.000 OA
ATOM     23  H5* UNL     1       1.328   3.564  22.471  0.00  0.00    +0.000 HD
ENDBRANCH  21  22
ENDBRANCH  12  21
ENDBRANCH   1  14
BRANCH   6  24
ATOM     24  C   UNL     1      -0.119  11.438  19.494  0.00  0.00    +0.000 C 
BRANCH  24  25
ATOM     25  C   UNL     1      -1.635  11.399  19.715  0.00  0.00    +0.000 C 
BRANCH  25  26
ATOM     26  C   UNL     1      -2.353  11.027  18.442  0.00  0.00    +0.000 A 
ATOM     27  C   UNL     1      -1.715  10.238  17.470  0.00  0.00    +0.000 A 
ATOM     28  C   UNL     1      -2.342   9.957  16.252  0.00  0.00    +0.000 A 
ATOM     29  C   UNL     1      -3.609  10.473  16.009  0.00  0.00    +0.000 A 
ATOM     30  C   UNL     1      -4.248  11.250  16.972  0.00  0.00    +0.000 A 
ATOM     31  C   UNL     1      -3.635  11.531  18.183  0.00  0.00    +0.000 A 
BRANCH  29  32
ATOM     32  O   UNL     1      -4.265  10.255  14.830  0.00  0.00    +0.000 OA
ATOM     33  H   UNL     1      -3.992   9.385  14.492  0.00  0.00    +0.000 HD
ENDBRANCH  29  32
BRANCH  30  34
ATOM     34  O   UNL     1      -5.490  11.762  16.720  0.00  0.00    +0.000 OA
ATOM     35  H   UNL     1      -5.322  12.692  16.473  0.00  0.00    +0.000 HD
ENDBRANCH  30  34
ENDBRANCH  25  26
ENDBRANCH  24  25
ENDBRANCH   6  24
TORSDOF 10
ENDMDL
