MODEL 1
REMARK VINA RESULT:      -8.7      0.000      0.000
REMARK  Name = 
REMARK  4 active torsions:
REMARK  status: ('A' for Active; 'I' for Inactive)
REMARK    1  A    between atoms: C_1  and  C_2
REMARK    2  A    between atoms: C_4  and  O_5
REMARK    3  A    between atoms: C_12  and  O_13
REMARK    4  A    between atoms: C_15  and  O_16
REMARK                            x       y       z     vdW  Elec       q    Type
REMARK                         _______ _______ _______ _____ _____    ______ ____
ROOT
ATOM      1  C   UNL     1       2.594   6.210  19.902  0.00  0.00    +0.000 C 
ATOM      2  C   UNL     1       3.645   5.222  19.372  0.00  0.00    +0.000 C 
ATOM      3  C   UNL     1       3.541   3.851  20.066  0.00  0.00    +0.000 C 
ATOM      4  C   UNL     1       3.633   2.734  19.312  0.00  0.00    +0.000 C 
ATOM      5  C   UNL     1       2.890   2.783  17.991  0.00  0.00    +0.000 C 
ATOM      6  O   UNL     1       2.659   1.772  17.345  0.00  0.00    +0.000 OA
ATOM      7  C   UNL     1       2.526   4.162  17.484  0.00  0.00    +0.000 C 
ATOM      8  C   UNL     1       3.488   5.045  17.864  0.00  0.00    +0.000 C 
ATOM      9  C   UNL     1       4.771   4.927  17.119  0.00  0.00    +0.000 A 
ATOM     10  C   UNL     1       4.741   4.709  15.728  0.00  0.00    +0.000 A 
ATOM     11  C   UNL     1       5.885   4.288  15.066  0.00  0.00    +0.000 A 
ATOM     12  C   UNL     1       7.066   4.079  15.760  0.00  0.00    +0.000 A 
ATOM     13  C   UNL     1       7.124   4.368  17.122  0.00  0.00    +0.000 A 
ATOM     14  C   UNL     1       5.993   4.851  17.804  0.00  0.00    +0.000 A 
ATOM     15  C   UNL     1       6.075   5.320  19.220  0.00  0.00    +0.000 C 
ATOM     16  O   UNL     1       7.118   5.432  19.840  0.00  0.00    +0.000 OA
ATOM     17  O   UNL     1       4.910   5.790  19.736  0.00  0.00    +0.000 OA
ENDROOT
BRANCH   4  18
ATOM     18  O   UNL     1       4.870   2.098  19.260  0.00  0.00    +0.000 OA
ATOM     19  H   UNL     1       5.132   1.895  20.180  0.00  0.00    +0.000 HD
ENDBRANCH   4  18
BRANCH  11  20
ATOM     20  O   UNL     1       5.871   4.014  13.732  0.00  0.00    +0.000 OA
ATOM     21  H   UNL     1       6.245   4.767  13.244  0.00  0.00    +0.000 HD
ENDBRANCH  11  20
BRANCH  13  22
ATOM     22  O   UNL     1       8.289   4.120  17.789  0.00  0.00    +0.000 OA
ATOM     23  H   UNL     1       8.118   4.004  18.737  0.00  0.00    +0.000 HD
ENDBRANCH  13  22
TORSDOF 3
ENDMDL
MODEL 2
REMARK VINA RESULT:      -7.6      2.200      4.433
REMARK  Name = 
REMARK  4 active torsions:
REMARK  status: ('A' for Active; 'I' for Inactive)
REMARK    1  A    between atoms: C_1  and  C_2
REMARK    2  A    between atoms: C_4  and  O_5
REMARK    3  A    between atoms: C_12  and  O_13
REMARK    4  A    between atoms: C_15  and  O_16
REMARK                            x       y       z     vdW  Elec       q    Type
REMARK                         _______ _______ _______ _____ _____    ______ ____
ROOT
ATOM      1  C   UNL     1       4.830   1.405  20.594  0.00  0.00    +0.000 C 
ATOM      2  C   UNL     1       4.167   2.461  19.698  0.00  0.00    +0.000 C 
ATOM      3  C   UNL     1       3.532   1.830  18.444  0.00  0.00    +0.000 C 
ATOM      4  C   UNL     1       2.307   2.246  18.058  0.00  0.00    +0.000 C 
ATOM      5  C   UNL     1       1.310   2.452  19.183  0.00  0.00    +0.000 C 
ATOM      6  O   UNL     1       0.112   2.557  18.969  0.00  0.00    +0.000 OA
ATOM      7  C   UNL     1       1.896   2.601  20.571  0.00  0.00    +0.000 C 
ATOM      8  C   UNL     1       3.102   3.223  20.482  0.00  0.00    +0.000 C 
ATOM      9  C   UNL     1       3.030   4.677  20.174  0.00  0.00    +0.000 A 
ATOM     10  C   UNL     1       2.048   5.466  20.804  0.00  0.00    +0.000 A 
ATOM     11  C   UNL     1       1.755   6.731  20.316  0.00  0.00    +0.000 A 
ATOM     12  C   UNL     1       2.421   7.234  19.210  0.00  0.00    +0.000 A 
ATOM     13  C   UNL     1       3.449   6.491  18.630  0.00  0.00    +0.000 A 
ATOM     14  C   UNL     1       3.804   5.231  19.143  0.00  0.00    +0.000 A 
ATOM     15  C   UNL     1       5.003   4.493  18.643  0.00  0.00    +0.000 C 
ATOM     16  O   UNL     1       5.813   4.961  17.862  0.00  0.00    +0.000 OA
ATOM     17  O   UNL     1       5.239   3.304  19.254  0.00  0.00    +0.000 OA
ENDROOT
BRANCH   4  18
ATOM     18  O   UNL     1       2.245   3.199  17.045  0.00  0.00    +0.000 OA
ATOM     19  H   UNL     1       2.796   2.873  16.306  0.00  0.00    +0.000 HD
ENDBRANCH   4  18
BRANCH  11  20
ATOM     20  O   UNL     1       0.771   7.493  20.868  0.00  0.00    +0.000 OA
ATOM     21  H   UNL     1       1.096   7.892  21.692  0.00  0.00    +0.000 HD
ENDBRANCH  11  20
BRANCH  13  22
ATOM     22  O   UNL     1       4.066   6.994  17.520  0.00  0.00    +0.000 OA
ATOM     23  H   UNL     1       3.406   7.288  16.872  0.00  0.00    +0.000 HD
ENDBRANCH  13  22
TORSDOF 3
ENDMDL
MODEL 3
REMARK VINA RESULT:      -7.6      1.836      4.925
REMARK  Name = 
REMARK  4 active torsions:
REMARK  status: ('A' for Active; 'I' for Inactive)
REMARK    1  A    between atoms: C_1  and  C_2
REMARK    2  A    between atoms: C_4  and  O_5
REMARK    3  A    between atoms: C_12  and  O_13
REMARK    4  A    between atoms: C_15  and  O_16
REMARK                            x       y       z     vdW  Elec       q    Type
REMARK                         _______ _______ _______ _____ _____    ______ ____
ROOT
ATOM      1  C   UNL     1       5.958   4.006  14.774  0.00  0.00    +0.000 C 
ATOM      2  C   UNL     1       5.696   4.376  16.241  0.00  0.00    +0.000 C 
ATOM      3  C   UNL     1       6.995   4.381  17.070  0.00  0.00    +0.000 C 
ATOM      4  C   UNL     1       7.204   5.390  17.942  0.00  0.00    +0.000 C 
ATOM      5  C   UNL     1       6.821   6.769  17.439  0.00  0.00    +0.000 C 
ATOM      6  O   UNL     1       7.201   7.786  17.999  0.00  0.00    +0.000 OA
ATOM      7  C   UNL     1       5.877   6.806  16.256  0.00  0.00    +0.000 C 
ATOM      8  C   UNL     1       5.029   5.745  16.329  0.00  0.00    +0.000 C 
ATOM      9  C   UNL     1       3.982   5.857  17.380  0.00  0.00    +0.000 A 
ATOM     10  C   UNL     1       3.338   7.093  17.581  0.00  0.00    +0.000 A 
ATOM     11  C   UNL     1       2.601   7.313  18.735  0.00  0.00    +0.000 A 
ATOM     12  C   UNL     1       2.486   6.324  19.700  0.00  0.00    +0.000 A 
ATOM     13  C   UNL     1       3.055   5.071  19.471  0.00  0.00    +0.000 A 
ATOM     14  C   UNL     1       3.759   4.806  18.283  0.00  0.00    +0.000 A 
ATOM     15  C   UNL     1       4.233   3.431  17.946  0.00  0.00    +0.000 C 
ATOM     16  O   UNL     1       3.955   2.437  18.594  0.00  0.00    +0.000 OA
ATOM     17  O   UNL     1       4.869   3.321  16.752  0.00  0.00    +0.000 OA
ENDROOT
BRANCH   4  18
ATOM     18  O   UNL     1       6.897   5.154  19.279  0.00  0.00    +0.000 OA
ATOM     19  H   UNL     1       7.209   4.253  19.494  0.00  0.00    +0.000 HD
ENDBRANCH   4  18
BRANCH  11  20
ATOM     20  O   UNL     1       2.015   8.516  18.984  0.00  0.00    +0.000 OA
ATOM     21  H   UNL     1       1.820   8.591  19.933  0.00  0.00    +0.000 HD
ENDBRANCH  11  20
BRANCH  13  22
ATOM     22  O   UNL     1       2.958   4.127  20.453  0.00  0.00    +0.000 OA
ATOM     23  H   UNL     1       3.412   3.312  20.183  0.00  0.00    +0.000 HD
ENDBRANCH  13  22
TORSDOF 3
ENDMDL
MODEL 4
REMARK VINA RESULT:      -7.4      1.960      3.849
REMARK  Name = 
REMARK  4 active torsions:
REMARK  status: ('A' for Active; 'I' for Inactive)
REMARK    1  A    between atoms: C_1  and  C_2
REMARK    2  A    between atoms: C_4  and  O_5
REMARK    3  A    between atoms: C_12  and  O_13
REMARK    4  A    between atoms: C_15  and  O_16
REMARK                            x       y       z     vdW  Elec       q    Type
REMARK                         _______ _______ _______ _____ _____    ______ ____
ROOT
ATOM      1  C   UNL     1       4.565   1.858  20.788  0.00  0.00    +0.000 C 
ATOM      2  C   UNL     1       4.154   2.744  19.603  0.00  0.00    +0.000 C 
ATOM      3  C   UNL     1       3.529   1.919  18.462  0.00  0.00    +0.000 C 
ATOM      4  C   UNL     1       2.422   2.391  17.852  0.00  0.00    +0.000 C 
ATOM      5  C   UNL     1       1.383   3.000  18.774  0.00  0.00    +0.000 C 
ATOM      6  O   UNL     1       0.239   3.213  18.404  0.00  0.00    +0.000 OA
ATOM      7  C   UNL     1       1.872   3.402  20.150  0.00  0.00    +0.000 C 
ATOM      8  C   UNL     1       3.165   3.812  20.062  0.00  0.00    +0.000 C 
ATOM      9  C   UNL     1       3.353   5.143  19.423  0.00  0.00    +0.000 A 
ATOM     10  C   UNL     1       2.463   6.189  19.737  0.00  0.00    +0.000 A 
ATOM     11  C   UNL     1       2.416   7.323  18.941  0.00  0.00    +0.000 A 
ATOM     12  C   UNL     1       3.242   7.445  17.835  0.00  0.00    +0.000 A 
ATOM     13  C   UNL     1       4.181   6.450  17.564  0.00  0.00    +0.000 A 
ATOM     14  C   UNL     1       4.287   5.317  18.390  0.00  0.00    +0.000 A 
ATOM     15  C   UNL     1       5.388   4.323  18.216  0.00  0.00    +0.000 C 
ATOM     16  O   UNL     1       6.322   4.471  17.448  0.00  0.00    +0.000 OA
ATOM     17  O   UNL     1       5.380   3.298  19.106  0.00  0.00    +0.000 OA
ENDROOT
BRANCH   4  18
ATOM     18  O   UNL     1       2.595   3.067  16.646  0.00  0.00    +0.000 OA
ATOM     19  H   UNL     1       3.517   2.916  16.358  0.00  0.00    +0.000 HD
ENDBRANCH   4  18
BRANCH  11  20
ATOM     20  O   UNL     1       1.526   8.325  19.185  0.00  0.00    +0.000 OA
ATOM     21  H   UNL     1       1.263   8.735  18.344  0.00  0.00    +0.000 HD
ENDBRANCH  11  20
BRANCH  13  22
ATOM     22  O   UNL     1       4.957   6.578  16.448  0.00  0.00    +0.000 OA
ATOM     23  H   UNL     1       5.652   5.900  16.442  0.00  0.00    +0.000 HD
ENDBRANCH  13  22
TORSDOF 3
ENDMDL
MODEL 5
REMARK VINA RESULT:      -7.3      1.580      5.093
REMARK  Name = 
REMARK  4 active torsions:
REMARK  status: ('A' for Active; 'I' for Inactive)
REMARK    1  A    between atoms: C_1  and  C_2
REMARK    2  A    between atoms: C_4  and  O_5
REMARK    3  A    between atoms: C_12  and  O_13
REMARK    4  A    between atoms: C_15  and  O_16
REMARK                            x       y       z     vdW  Elec       q    Type
REMARK                         _______ _______ _______ _____ _____    ______ ____
ROOT
ATOM      1  C   UNL     1       5.225   5.167  14.982  0.00  0.00    +0.000 C 
ATOM      2  C   UNL     1       4.794   4.722  16.388  0.00  0.00    +0.000 C 
ATOM      3  C   UNL     1       5.862   3.838  17.060  0.00  0.00    +0.000 C 
ATOM      4  C   UNL     1       6.162   4.057  18.358  0.00  0.00    +0.000 C 
ATOM      5  C   UNL     1       6.266   5.516  18.761  0.00  0.00    +0.000 C 
ATOM      6  O   UNL     1       6.789   5.857  19.810  0.00  0.00    +0.000 OA
ATOM      7  C   UNL     1       5.612   6.511  17.826  0.00  0.00    +0.000 C 
ATOM      8  C   UNL     1       4.514   5.940  17.263  0.00  0.00    +0.000 C 
ATOM      9  C   UNL     1       3.353   5.788  18.182  0.00  0.00    +0.000 A 
ATOM     10  C   UNL     1       3.036   6.833  19.070  0.00  0.00    +0.000 A 
ATOM     11  C   UNL     1       2.177   6.604  20.135  0.00  0.00    +0.000 A 
ATOM     12  C   UNL     1       1.619   5.351  20.336  0.00  0.00    +0.000 A 
ATOM     13  C   UNL     1       1.865   4.333  19.415  0.00  0.00    +0.000 A 
ATOM     14  C   UNL     1       2.687   4.558  18.296  0.00  0.00    +0.000 A 
ATOM     15  C   UNL     1       2.832   3.536  17.216  0.00  0.00    +0.000 C 
ATOM     16  O   UNL     1       2.178   2.510  17.157  0.00  0.00    +0.000 OA
ATOM     17  O   UNL     1       3.633   3.906  16.183  0.00  0.00    +0.000 OA
ENDROOT
BRANCH   4  18
ATOM     18  O   UNL     1       5.551   3.236  19.303  0.00  0.00    +0.000 OA
ATOM     19  H   UNL     1       6.014   3.377  20.152  0.00  0.00    +0.000 HD
ENDBRANCH   4  18
BRANCH  11  20
ATOM     20  O   UNL     1       1.899   7.579  21.043  0.00  0.00    +0.000 OA
ATOM     21  H   UNL     1       1.015   7.944  20.864  0.00  0.00    +0.000 HD
ENDBRANCH  11  20
BRANCH  13  22
ATOM     22  O   UNL     1       1.332   3.099  19.655  0.00  0.00    +0.000 OA
ATOM     23  H   UNL     1       1.347   2.562  18.847  0.00  0.00    +0.000 HD
ENDBRANCH  13  22
TORSDOF 3
ENDMDL
MODEL 6
REMARK VINA RESULT:      -6.8      2.285      4.817
REMARK  Name = 
REMARK  4 active torsions:
REMARK  status: ('A' for Active; 'I' for Inactive)
REMARK    1  A    between atoms: C_1  and  C_2
REMARK    2  A    between atoms: C_4  and  O_5
REMARK    3  A    between atoms: C_12  and  O_13
REMARK    4  A    between atoms: C_15  and  O_16
REMARK                            x       y       z     vdW  Elec       q    Type
REMARK                         _______ _______ _______ _____ _____    ______ ____
ROOT
ATOM      1  C   UNL     1       3.221   2.335  17.556  0.00  0.00    +0.000 C 
ATOM      2  C   UNL     1       3.442   3.629  18.354  0.00  0.00    +0.000 C 
ATOM      3  C   UNL     1       4.827   3.655  19.028  0.00  0.00    +0.000 C 
ATOM      4  C   UNL     1       5.549   4.795  18.982  0.00  0.00    +0.000 C 
ATOM      5  C   UNL     1       5.529   5.521  17.650  0.00  0.00    +0.000 C 
ATOM      6  O   UNL     1       6.337   6.396  17.382  0.00  0.00    +0.000 OA
ATOM      7  C   UNL     1       4.400   5.152  16.710  0.00  0.00    +0.000 C 
ATOM      8  C   UNL     1       3.295   4.843  17.440  0.00  0.00    +0.000 C 
ATOM      9  C   UNL     1       2.616   6.009  18.066  0.00  0.00    +0.000 A 
ATOM     10  C   UNL     1       2.473   7.200  17.328  0.00  0.00    +0.000 A 
ATOM     11  C   UNL     1       2.138   8.381  17.973  0.00  0.00    +0.000 A 
ATOM     12  C   UNL     1       1.936   8.405  19.344  0.00  0.00    +0.000 A 
ATOM     13  C   UNL     1       1.997   7.216  20.069  0.00  0.00    +0.000 A 
ATOM     14  C   UNL     1       2.280   5.996  19.428  0.00  0.00    +0.000 A 
ATOM     15  C   UNL     1       2.190   4.694  20.154  0.00  0.00    +0.000 C 
ATOM     16  O   UNL     1       1.763   4.575  21.289  0.00  0.00    +0.000 OA
ATOM     17  O   UNL     1       2.460   3.598  19.398  0.00  0.00    +0.000 OA
ENDROOT
BRANCH   4  18
ATOM     18  O   UNL     1       5.502   5.628  20.097  0.00  0.00    +0.000 OA
ATOM     19  H   UNL     1       4.630   6.070  20.092  0.00  0.00    +0.000 HD
ENDBRANCH   4  18
BRANCH  11  20
ATOM     20  O   UNL     1       2.049   9.559  17.294  0.00  0.00    +0.000 OA
ATOM     21  H   UNL     1       1.114   9.802  17.191  0.00  0.00    +0.000 HD
ENDBRANCH  11  20
BRANCH  13  22
ATOM     22  O   UNL     1       1.830   7.273  21.422  0.00  0.00    +0.000 OA
ATOM     23  H   UNL     1       1.001   7.727  21.642  0.00  0.00    +0.000 HD
ENDBRANCH  13  22
TORSDOF 3
ENDMDL
MODEL 7
REMARK VINA RESULT:      -6.8      1.597      3.917
REMARK  Name = 
REMARK  4 active torsions:
REMARK  status: ('A' for Active; 'I' for Inactive)
REMARK    1  A    between atoms: C_1  and  C_2
REMARK    2  A    between atoms: C_4  and  O_5
REMARK    3  A    between atoms: C_12  and  O_13
REMARK    4  A    between atoms: C_15  and  O_16
REMARK                            x       y       z     vdW  Elec       q    Type
REMARK                         _______ _______ _______ _____ _____    ______ ____
ROOT
ATOM      1  C   UNL     1       2.304   2.115  17.782  0.00  0.00    +0.000 C 
ATOM      2  C   UNL     1       3.063   3.445  17.662  0.00  0.00    +0.000 C 
ATOM      3  C   UNL     1       2.102   4.639  17.504  0.00  0.00    +0.000 C 
ATOM      4  C   UNL     1       2.346   5.765  18.208  0.00  0.00    +0.000 C 
ATOM      5  C   UNL     1       2.784   5.549  19.644  0.00  0.00    +0.000 C 
ATOM      6  O   UNL     1       2.773   6.454  20.463  0.00  0.00    +0.000 OA
ATOM      7  C   UNL     1       3.310   4.168  19.976  0.00  0.00    +0.000 C 
ATOM      8  C   UNL     1       3.947   3.660  18.887  0.00  0.00    +0.000 C 
ATOM      9  C   UNL     1       5.269   4.276  18.595  0.00  0.00    +0.000 A 
ATOM     10  C   UNL     1       6.144   4.565  19.660  0.00  0.00    +0.000 A 
ATOM     11  C   UNL     1       7.226   5.409  19.461  0.00  0.00    +0.000 A 
ATOM     12  C   UNL     1       7.462   5.975  18.218  0.00  0.00    +0.000 A 
ATOM     13  C   UNL     1       6.647   5.631  17.140  0.00  0.00    +0.000 A 
ATOM     14  C   UNL     1       5.578   4.732  17.304  0.00  0.00    +0.000 A 
ATOM     15  C   UNL     1       4.796   4.226  16.136  0.00  0.00    +0.000 C 
ATOM     16  O   UNL     1       5.087   4.449  14.974  0.00  0.00    +0.000 OA
ATOM     17  O   UNL     1       3.815   3.340  16.446  0.00  0.00    +0.000 OA
ENDROOT
BRANCH   4  18
ATOM     18  O   UNL     1       3.004   6.801  17.550  0.00  0.00    +0.000 OA
ATOM     19  H   UNL     1       3.950   6.559  17.502  0.00  0.00    +0.000 HD
ENDBRANCH   4  18
BRANCH  11  20
ATOM     20  O   UNL     1       8.056   5.752  20.485  0.00  0.00    +0.000 OA
ATOM     21  H   UNL     1       8.205   4.978  21.053  0.00  0.00    +0.000 HD
ENDBRANCH  11  20
BRANCH  13  22
ATOM     22  O   UNL     1       6.878   6.230  15.935  0.00  0.00    +0.000 OA
ATOM     23  H   UNL     1       7.683   6.770  15.976  0.00  0.00    +0.000 HD
ENDBRANCH  13  22
TORSDOF 3
ENDMDL
MODEL 8
REMARK VINA RESULT:      -6.7      1.610      4.615
REMARK  Name = 
REMARK  4 active torsions:
REMARK  status: ('A' for Active; 'I' for Inactive)
REMARK    1  A    between atoms: C_1  and  C_2
REMARK    2  A    between atoms: C_4  and  O_5
REMARK    3  A    between atoms: C_12  and  O_13
REMARK    4  A    between atoms: C_15  and  O_16
REMARK                            x       y       z     vdW  Elec       q    Type
REMARK                         _______ _______ _______ _____ _____    ______ ____
ROOT
ATOM      1  C   UNL     1       3.735   7.780  18.240  0.00  0.00    +0.000 C 
ATOM      2  C   UNL     1       3.841   6.316  17.788  0.00  0.00    +0.000 C 
ATOM      3  C   UNL     1       4.438   6.196  16.373  0.00  0.00    +0.000 C 
ATOM      4  C   UNL     1       5.366   5.244  16.140  0.00  0.00    +0.000 C 
ATOM      5  C   UNL     1       6.403   5.068  17.233  0.00  0.00    +0.000 C 
ATOM      6  O   UNL     1       7.440   4.452  17.043  0.00  0.00    +0.000 OA
ATOM      7  C   UNL     1       6.038   5.631  18.590  0.00  0.00    +0.000 C 
ATOM      8  C   UNL     1       4.694   5.521  18.772  0.00  0.00    +0.000 C 
ATOM      9  C   UNL     1       4.213   4.137  19.031  0.00  0.00    +0.000 A 
ATOM     10  C   UNL     1       4.955   3.298  19.885  0.00  0.00    +0.000 A 
ATOM     11  C   UNL     1       4.714   1.932  19.898  0.00  0.00    +0.000 A 
ATOM     12  C   UNL     1       3.743   1.378  19.079  0.00  0.00    +0.000 A 
ATOM     13  C   UNL     1       2.951   2.211  18.290  0.00  0.00    +0.000 A 
ATOM     14  C   UNL     1       3.138   3.605  18.302  0.00  0.00    +0.000 A 
ATOM     15  C   UNL     1       2.198   4.525  17.594  0.00  0.00    +0.000 C 
ATOM     16  O   UNL     1       1.161   4.165  17.067  0.00  0.00    +0.000 OA
ATOM     17  O   UNL     1       2.488   5.846  17.721  0.00  0.00    +0.000 OA
ENDROOT
BRANCH   4  18
ATOM     18  O   UNL     1       4.931   4.056  15.556  0.00  0.00    +0.000 OA
ATOM     19  H   UNL     1       5.708   3.467  15.484  0.00  0.00    +0.000 HD
ENDBRANCH   4  18
BRANCH  11  20
ATOM     20  O   UNL     1       5.454   1.090  20.670  0.00  0.00    +0.000 OA
ATOM     21  H   UNL     1       5.025   0.983  21.535  0.00  0.00    +0.000 HD
ENDBRANCH  11  20
BRANCH  13  22
ATOM     22  O   UNL     1       2.027   1.636  17.466  0.00  0.00    +0.000 OA
ATOM     23  H   UNL     1       1.148   1.654  17.879  0.00  0.00    +0.000 HD
ENDBRANCH  13  22
TORSDOF 3
ENDMDL
MODEL 9
REMARK VINA RESULT:      -6.7      1.820      3.177
REMARK  Name = 
REMARK  4 active torsions:
REMARK  status: ('A' for Active; 'I' for Inactive)
REMARK    1  A    between atoms: C_1  and  C_2
REMARK    2  A    between atoms: C_4  and  O_5
REMARK    3  A    between atoms: C_12  and  O_13
REMARK    4  A    between atoms: C_15  and  O_16
REMARK                            x       y       z     vdW  Elec       q    Type
REMARK                         _______ _______ _______ _____ _____    ______ ____
ROOT
ATOM      1  C   UNL     1       0.445   2.460  18.467  0.00  0.00    +0.000 C 
ATOM      2  C   UNL     1       1.669   3.366  18.668  0.00  0.00    +0.000 C 
ATOM      3  C   UNL     1       2.018   3.531  20.159  0.00  0.00    +0.000 C 
ATOM      4  C   UNL     1       3.314   3.462  20.533  0.00  0.00    +0.000 C 
ATOM      5  C   UNL     1       4.126   2.376  19.855  0.00  0.00    +0.000 C 
ATOM      6  O   UNL     1       5.214   2.023  20.284  0.00  0.00    +0.000 OA
ATOM      7  C   UNL     1       3.546   1.815  18.574  0.00  0.00    +0.000 C 
ATOM      8  C   UNL     1       2.872   2.799  17.920  0.00  0.00    +0.000 C 
ATOM      9  C   UNL     1       3.739   3.824  17.277  0.00  0.00    +0.000 A 
ATOM     10  C   UNL     1       4.905   3.414  16.603  0.00  0.00    +0.000 A 
ATOM     11  C   UNL     1       5.879   4.344  16.272  0.00  0.00    +0.000 A 
ATOM     12  C   UNL     1       5.718   5.682  16.594  0.00  0.00    +0.000 A 
ATOM     13  C   UNL     1       4.531   6.108  17.189  0.00  0.00    +0.000 A 
ATOM     14  C   UNL     1       3.505   5.192  17.483  0.00  0.00    +0.000 A 
ATOM     15  C   UNL     1       2.167   5.647  17.968  0.00  0.00    +0.000 C 
ATOM     16  O   UNL     1       1.828   6.816  18.032  0.00  0.00    +0.000 OA
ATOM     17  O   UNL     1       1.267   4.653  18.179  0.00  0.00    +0.000 OA
ENDROOT
BRANCH   4  18
ATOM     18  O   UNL     1       3.992   4.665  20.715  0.00  0.00    +0.000 OA
ATOM     19  H   UNL     1       3.318   5.367  20.809  0.00  0.00    +0.000 HD
ENDBRANCH   4  18
BRANCH  11  20
ATOM     20  O   UNL     1       7.043   3.968  15.672  0.00  0.00    +0.000 OA
ATOM     21  H   UNL     1       6.890   3.843  14.720  0.00  0.00    +0.000 HD
ENDBRANCH  11  20
BRANCH  13  22
ATOM     22  O   UNL     1       4.412   7.424  17.529  0.00  0.00    +0.000 OA
ATOM     23  H   UNL     1       3.605   7.568  18.049  0.00  0.00    +0.000 HD
ENDBRANCH  13  22
TORSDOF 3
ENDMDL
