MODEL 1
REMARK VINA RESULT:      -8.0      0.000      0.000
REMARK  Name = 
REMARK  7 active torsions:
REMARK  status: ('A' for Active; 'I' for Inactive)
REMARK    1  A    between atoms: C_1  and  C_2
REMARK    2  A    between atoms: C_2  and  C_3
REMARK    3  A    between atoms: C_8  and  N_9
REMARK    4  A    between atoms: C_10  and  C_12
REMARK    5  A    between atoms: C_20  and  N_21
REMARK    6  A    between atoms: N_23  and  C_24
REMARK    7  A    between atoms: C_24  and  C_25
REMARK                            x       y       z     vdW  Elec       q    Type
REMARK                         _______ _______ _______ _____ _____    ______ ____
ROOT
ATOM      1  C   UNL     1       1.253   8.836  19.652  0.00  0.00    +0.000 A 
ATOM      2  S   UNL     1       1.157   9.033  21.354  0.00  0.00    +0.000 S 
ATOM      3  C   UNL     1       0.112  10.355  21.205  0.00  0.00    +0.000 A 
ATOM      4  N   UNL     1      -0.272  11.024  22.306  0.00  0.00    +0.000 NA
ATOM      5  C   UNL     1      -1.064  12.087  22.072  0.00  0.00    +0.000 A 
ATOM      6  C   UNL     1      -1.499  12.480  20.803  0.00  0.00    +0.000 A 
ATOM      7  C   UNL     1      -1.115  11.717  19.693  0.00  0.00    +0.000 A 
ATOM      8  C   UNL     1      -0.243  10.627  19.891  0.00  0.00    +0.000 A 
ATOM      9  C   UNL     1       0.394   9.699  18.995  0.00  0.00    +0.000 A 
ATOM     10  C   UNL     1      -2.388  13.685  20.628  0.00  0.00    +0.000 C 
ATOM     11  N   UNL     1      -2.282  14.676  21.713  0.00  0.00    +0.000 NA
ATOM     12  C   UNL     1      -2.451  13.977  23.002  0.00  0.00    +0.000 C 
ATOM     13  C   UNL     1      -1.367  12.934  23.281  0.00  0.00    +0.000 C 
ENDROOT
BRANCH   1  15
ATOM     14  N   UNL     1       2.473   6.832  20.054  0.00  0.00    +0.000 N 
ATOM     15  C   UNL     1       2.205   7.857  19.158  0.00  0.00    +0.000 C 
ATOM     16  O   UNL     1       2.715   7.947  18.044  0.00  0.00    +0.000 OA
ATOM     17  H   UNL     1       2.078   6.940  20.981  0.00  0.00    +0.000 HD
BRANCH  14  23
ATOM     18  C   UNL     1       2.597   4.391  19.921  0.00  0.00    +0.000 A 
ATOM     19  C   UNL     1       3.344   3.234  19.620  0.00  0.00    +0.000 A 
ATOM     20  C   UNL     1       4.668   3.321  19.190  0.00  0.00    +0.000 A 
ATOM     21  C   UNL     1       5.265   4.564  19.049  0.00  0.00    +0.000 A 
ATOM     22  C   UNL     1       4.536   5.718  19.333  0.00  0.00    +0.000 A 
ATOM     23  C   UNL     1       3.210   5.653  19.781  0.00  0.00    +0.000 A 
BRANCH  18  25
ATOM     24  C   UNL     1       1.150   2.906  21.322  0.00  0.00    +0.000 C 
ATOM     25  C   UNL     1       1.217   4.194  20.510  0.00  0.00    +0.000 C 
ENDBRANCH  18  25
ENDBRANCH  14  23
ENDBRANCH   1  15
BRANCH   9  26
ATOM     26  N   UNL     1       0.186   9.695  17.647  0.00  0.00    +0.000 N 
ATOM     27  H   UNL     1      -0.773   9.596  17.314  0.00  0.00    +0.000 HD
ATOM     28  H   UNL     1       0.802   9.127  17.066  0.00  0.00    +0.000 HD
ENDBRANCH   9  26
BRANCH  11  29
ATOM     29  C   UNL     1      -1.016  15.436  21.670  0.00  0.00    +0.000 C 
BRANCH  29  30
ATOM     30  C   UNL     1      -0.787  16.168  20.365  0.00  0.00    +0.000 A 
ATOM     31  C   UNL     1      -1.759  17.037  19.855  0.00  0.00    +0.000 A 
ATOM     32  C   UNL     1      -1.542  17.712  18.654  0.00  0.00    +0.000 A 
ATOM     33  C   UNL     1      -0.351  17.527  17.953  0.00  0.00    +0.000 A 
ATOM     34  C   UNL     1       0.623  16.664  18.450  0.00  0.00    +0.000 A 
ATOM     35  C   UNL     1       0.408  15.987  19.651  0.00  0.00    +0.000 A 
ENDBRANCH  29  30
ENDBRANCH  11  29
TORSDOF 6
ENDMDL
MODEL 2
REMARK VINA RESULT:      -7.9      2.180      4.037
REMARK  Name = 
REMARK  7 active torsions:
REMARK  status: ('A' for Active; 'I' for Inactive)
REMARK    1  A    between atoms: C_1  and  C_2
REMARK    2  A    between atoms: C_2  and  C_3
REMARK    3  A    between atoms: C_8  and  N_9
REMARK    4  A    between atoms: C_10  and  C_12
REMARK    5  A    between atoms: C_20  and  N_21
REMARK    6  A    between atoms: N_23  and  C_24
REMARK    7  A    between atoms: C_24  and  C_25
REMARK                            x       y       z     vdW  Elec       q    Type
REMARK                         _______ _______ _______ _____ _____    ______ ____
ROOT
ATOM      1  C   UNL     1       2.011   8.353  19.073  0.00  0.00    +0.000 A 
ATOM      2  S   UNL     1       1.824   9.699  18.025  0.00  0.00    +0.000 S 
ATOM      3  C   UNL     1       0.928  10.552  19.179  0.00  0.00    +0.000 A 
ATOM      4  N   UNL     1       0.403  11.748  18.859  0.00  0.00    +0.000 NA
ATOM      5  C   UNL     1      -0.331  12.319  19.832  0.00  0.00    +0.000 A 
ATOM      6  C   UNL     1      -0.532  11.760  21.098  0.00  0.00    +0.000 A 
ATOM      7  C   UNL     1       0.081  10.538  21.399  0.00  0.00    +0.000 A 
ATOM      8  C   UNL     1       0.815   9.882  20.389  0.00  0.00    +0.000 A 
ATOM      9  C   UNL     1       1.496   8.616  20.330  0.00  0.00    +0.000 A 
ATOM     10  C   UNL     1      -1.369  12.468  22.133  0.00  0.00    +0.000 C 
ATOM     11  N   UNL     1      -2.360  13.402  21.571  0.00  0.00    +0.000 NA
ATOM     12  C   UNL     1      -1.670  14.303  20.627  0.00  0.00    +0.000 C 
ATOM     13  C   UNL     1      -1.053  13.578  19.429  0.00  0.00    +0.000 C 
ENDROOT
BRANCH   1  15
ATOM     14  N   UNL     1       2.252   5.985  19.135  0.00  0.00    +0.000 N 
ATOM     15  C   UNL     1       2.627   7.165  18.510  0.00  0.00    +0.000 C 
ATOM     16  O   UNL     1       3.409   7.222  17.563  0.00  0.00    +0.000 OA
ATOM     17  H   UNL     1       1.696   6.088  19.976  0.00  0.00    +0.000 HD
BRANCH  14  23
ATOM     18  C   UNL     1       1.873   3.570  19.261  0.00  0.00    +0.000 A 
ATOM     19  C   UNL     1       2.164   2.275  18.784  0.00  0.00    +0.000 A 
ATOM     20  C   UNL     1       3.098   2.073  17.768  0.00  0.00    +0.000 A 
ATOM     21  C   UNL     1       3.751   3.160  17.208  0.00  0.00    +0.000 A 
ATOM     22  C   UNL     1       3.467   4.446  17.661  0.00  0.00    +0.000 A 
ATOM     23  C   UNL     1       2.544   4.672  18.692  0.00  0.00    +0.000 A 
BRANCH  18  25
ATOM     24  C   UNL     1       1.415   2.770  21.587  0.00  0.00    +0.000 C 
ATOM     25  C   UNL     1       0.952   3.680  20.456  0.00  0.00    +0.000 C 
ENDBRANCH  18  25
ENDBRANCH  14  23
ENDBRANCH   1  15
BRANCH   9  26
ATOM     26  N   UNL     1       1.595   7.768  21.392  0.00  0.00    +0.000 N 
ATOM     27  H   UNL     1       1.423   8.148  22.323  0.00  0.00    +0.000 HD
ATOM     28  H   UNL     1       2.396   7.136  21.432  0.00  0.00    +0.000 HD
ENDBRANCH   9  26
BRANCH  11  29
ATOM     29  C   UNL     1      -3.497  12.711  20.929  0.00  0.00    +0.000 C 
BRANCH  29  30
ATOM     30  C   UNL     1      -4.759  12.703  21.765  0.00  0.00    +0.000 A 
ATOM     31  C   UNL     1      -4.707  12.985  23.136  0.00  0.00    +0.000 A 
ATOM     32  C   UNL     1      -5.874  12.980  23.902  0.00  0.00    +0.000 A 
ATOM     33  C   UNL     1      -7.101  12.697  23.305  0.00  0.00    +0.000 A 
ATOM     34  C   UNL     1      -7.165  12.415  21.942  0.00  0.00    +0.000 A 
ATOM     35  C   UNL     1      -6.000  12.418  21.174  0.00  0.00    +0.000 A 
ENDBRANCH  29  30
ENDBRANCH  11  29
TORSDOF 6
ENDMDL
MODEL 3
REMARK VINA RESULT:      -7.9      2.683      4.766
REMARK  Name = 
REMARK  7 active torsions:
REMARK  status: ('A' for Active; 'I' for Inactive)
REMARK    1  A    between atoms: C_1  and  C_2
REMARK    2  A    between atoms: C_2  and  C_3
REMARK    3  A    between atoms: C_8  and  N_9
REMARK    4  A    between atoms: C_10  and  C_12
REMARK    5  A    between atoms: C_20  and  N_21
REMARK    6  A    between atoms: N_23  and  C_24
REMARK    7  A    between atoms: C_24  and  C_25
REMARK                            x       y       z     vdW  Elec       q    Type
REMARK                         _______ _______ _______ _____ _____    ______ ____
ROOT
ATOM      1  C   UNL     1       2.199   7.906  19.010  0.00  0.00    +0.000 A 
ATOM      2  S   UNL     1       2.201   9.260  17.954  0.00  0.00    +0.000 S 
ATOM      3  C   UNL     1       1.163  10.129  18.968  0.00  0.00    +0.000 A 
ATOM      4  N   UNL     1       0.719  11.338  18.581  0.00  0.00    +0.000 NA
ATOM      5  C   UNL     1      -0.139  11.923  19.439  0.00  0.00    +0.000 A 
ATOM      6  C   UNL     1      -0.539  11.365  20.656  0.00  0.00    +0.000 A 
ATOM      7  C   UNL     1      -0.005  10.127  21.037  0.00  0.00    +0.000 A 
ATOM      8  C   UNL     1       0.856   9.458  20.143  0.00  0.00    +0.000 A 
ATOM      9  C   UNL     1       1.509   8.177  20.177  0.00  0.00    +0.000 A 
ATOM     10  C   UNL     1      -1.504  12.089  21.560  0.00  0.00    +0.000 C 
ATOM     11  N   UNL     1      -2.379  13.048  20.863  0.00  0.00    +0.000 NA
ATOM     12  C   UNL     1      -1.536  13.935  20.039  0.00  0.00    +0.000 C 
ATOM     13  C   UNL     1      -0.764  13.200  18.941  0.00  0.00    +0.000 C 
ENDROOT
BRANCH   1  15
ATOM     14  N   UNL     1       3.854   6.945  17.592  0.00  0.00    +0.000 N 
ATOM     15  C   UNL     1       2.866   6.705  18.536  0.00  0.00    +0.000 C 
ATOM     16  O   UNL     1       2.566   5.587  18.948  0.00  0.00    +0.000 OA
ATOM     17  H   UNL     1       3.919   7.898  17.253  0.00  0.00    +0.000 HD
BRANCH  14  23
ATOM     18  C   UNL     1       6.162   6.299  17.095  0.00  0.00    +0.000 A 
ATOM     19  C   UNL     1       7.069   5.332  16.617  0.00  0.00    +0.000 A 
ATOM     20  C   UNL     1       6.625   4.095  16.148  0.00  0.00    +0.000 A 
ATOM     21  C   UNL     1       5.270   3.803  16.154  0.00  0.00    +0.000 A 
ATOM     22  C   UNL     1       4.362   4.745  16.633  0.00  0.00    +0.000 A 
ATOM     23  C   UNL     1       4.784   6.000  17.094  0.00  0.00    +0.000 A 
BRANCH  18  25
ATOM     24  C   UNL     1       8.041   7.526  18.201  0.00  0.00    +0.000 C 
ATOM     25  C   UNL     1       6.720   7.659  17.453  0.00  0.00    +0.000 C 
ENDBRANCH  18  25
ENDBRANCH  14  23
ENDBRANCH   1  15
BRANCH   9  26
ATOM     26  N   UNL     1       1.430   7.322  21.237  0.00  0.00    +0.000 N 
ATOM     27  H   UNL     1       1.421   7.725  22.174  0.00  0.00    +0.000 HD
ATOM     28  H   UNL     1       2.027   6.495  21.235  0.00  0.00    +0.000 HD
ENDBRANCH   9  26
BRANCH  11  29
ATOM     29  C   UNL     1      -3.423  12.385  20.055  0.00  0.00    +0.000 C 
BRANCH  29  30
ATOM     30  C   UNL     1      -4.800  12.424  20.684  0.00  0.00    +0.000 A 
ATOM     31  C   UNL     1      -5.000  13.044  21.923  0.00  0.00    +0.000 A 
ATOM     32  C   UNL     1      -6.271  13.080  22.497  0.00  0.00    +0.000 A 
ATOM     33  C   UNL     1      -7.353  12.498  21.838  0.00  0.00    +0.000 A 
ATOM     34  C   UNL     1      -7.166  11.877  20.605  0.00  0.00    +0.000 A 
ATOM     35  C   UNL     1      -5.895  11.840  20.028  0.00  0.00    +0.000 A 
ENDBRANCH  29  30
ENDBRANCH  11  29
TORSDOF 6
ENDMDL
MODEL 4
REMARK VINA RESULT:      -7.9      2.615      4.521
REMARK  Name = 
REMARK  7 active torsions:
REMARK  status: ('A' for Active; 'I' for Inactive)
REMARK    1  A    between atoms: C_1  and  C_2
REMARK    2  A    between atoms: C_2  and  C_3
REMARK    3  A    between atoms: C_8  and  N_9
REMARK    4  A    between atoms: C_10  and  C_12
REMARK    5  A    between atoms: C_20  and  N_21
REMARK    6  A    between atoms: N_23  and  C_24
REMARK    7  A    between atoms: C_24  and  C_25
REMARK                            x       y       z     vdW  Elec       q    Type
REMARK                         _______ _______ _______ _____ _____    ______ ____
ROOT
ATOM      1  C   UNL     1       2.287   7.974  18.740  0.00  0.00    +0.000 A 
ATOM      2  S   UNL     1       2.198   9.461  17.886  0.00  0.00    +0.000 S 
ATOM      3  C   UNL     1       1.315  10.193  19.129  0.00  0.00    +0.000 A 
ATOM      4  N   UNL     1       0.860  11.448  18.969  0.00  0.00    +0.000 NA
ATOM      5  C   UNL     1       0.129  11.918  19.998  0.00  0.00    +0.000 A 
ATOM      6  C   UNL     1      -0.135  11.202  21.168  0.00  0.00    +0.000 A 
ATOM      7  C   UNL     1       0.407   9.918  21.309  0.00  0.00    +0.000 A 
ATOM      8  C   UNL     1       1.134   9.369  20.232  0.00  0.00    +0.000 A 
ATOM      9  C   UNL     1       1.751   8.089  20.010  0.00  0.00    +0.000 A 
ATOM     10  C   UNL     1      -0.963  11.804  22.274  0.00  0.00    +0.000 C 
ATOM     11  N   UNL     1      -1.889  12.859  21.828  0.00  0.00    +0.000 NA
ATOM     12  C   UNL     1      -1.129  13.843  21.034  0.00  0.00    +0.000 C 
ATOM     13  C   UNL     1      -0.516  13.259  19.759  0.00  0.00    +0.000 C 
ENDROOT
BRANCH   1  15
ATOM     14  N   UNL     1       4.079   7.115  17.428  0.00  0.00    +0.000 N 
ATOM     15  C   UNL     1       2.857   6.844  18.028  0.00  0.00    +0.000 C 
ATOM     16  O   UNL     1       2.293   5.754  17.975  0.00  0.00    +0.000 OA
ATOM     17  H   UNL     1       4.376   8.083  17.448  0.00  0.00    +0.000 HD
BRANCH  14  23
ATOM     18  C   UNL     1       5.770   5.358  17.640  0.00  0.00    +0.000 A 
ATOM     19  C   UNL     1       6.607   4.406  17.022  0.00  0.00    +0.000 A 
ATOM     20  C   UNL     1       6.630   4.258  15.635  0.00  0.00    +0.000 A 
ATOM     21  C   UNL     1       5.816   5.053  14.844  0.00  0.00    +0.000 A 
ATOM     22  C   UNL     1       4.976   5.992  15.441  0.00  0.00    +0.000 A 
ATOM     23  C   UNL     1       4.947   6.168  16.831  0.00  0.00    +0.000 A 
BRANCH  18  25
ATOM     24  C   UNL     1       7.378   5.664  19.532  0.00  0.00    +0.000 C 
ATOM     25  C   UNL     1       5.911   5.542  19.135  0.00  0.00    +0.000 C 
ENDBRANCH  18  25
ENDBRANCH  14  23
ENDBRANCH   1  15
BRANCH   9  26
ATOM     26  N   UNL     1       1.777   7.097  20.945  0.00  0.00    +0.000 N 
ATOM     27  H   UNL     1       2.181   6.200  20.677  0.00  0.00    +0.000 HD
ATOM     28  H   UNL     1       0.935   6.933  21.497  0.00  0.00    +0.000 HD
ENDBRANCH   9  26
BRANCH  11  29
ATOM     29  C   UNL     1      -3.042  12.326  21.074  0.00  0.00    +0.000 C 
BRANCH  29  30
ATOM     30  C   UNL     1      -4.378  12.582  21.736  0.00  0.00    +0.000 A 
ATOM     31  C   UNL     1      -5.569  12.474  21.006  0.00  0.00    +0.000 A 
ATOM     32  C   UNL     1      -6.798  12.708  21.622  0.00  0.00    +0.000 A 
ATOM     33  C   UNL     1      -6.850  13.049  22.973  0.00  0.00    +0.000 A 
ATOM     34  C   UNL     1      -5.673  13.160  23.709  0.00  0.00    +0.000 A 
ATOM     35  C   UNL     1      -4.441  12.927  23.095  0.00  0.00    +0.000 A 
ENDBRANCH  29  30
ENDBRANCH  11  29
TORSDOF 6
ENDMDL
MODEL 5
REMARK VINA RESULT:      -7.8      2.429      4.367
REMARK  Name = 
REMARK  7 active torsions:
REMARK  status: ('A' for Active; 'I' for Inactive)
REMARK    1  A    between atoms: C_1  and  C_2
REMARK    2  A    between atoms: C_2  and  C_3
REMARK    3  A    between atoms: C_8  and  N_9
REMARK    4  A    between atoms: C_10  and  C_12
REMARK    5  A    between atoms: C_20  and  N_21
REMARK    6  A    between atoms: N_23  and  C_24
REMARK    7  A    between atoms: C_24  and  C_25
REMARK                            x       y       z     vdW  Elec       q    Type
REMARK                         _______ _______ _______ _____ _____    ______ ____
ROOT
ATOM      1  C   UNL     1       2.104   8.137  18.791  0.00  0.00    +0.000 A 
ATOM      2  S   UNL     1       2.029   9.623  17.935  0.00  0.00    +0.000 S 
ATOM      3  C   UNL     1       1.165  10.369  19.183  0.00  0.00    +0.000 A 
ATOM      4  N   UNL     1       0.726  11.630  19.023  0.00  0.00    +0.000 NA
ATOM      5  C   UNL     1       0.009  12.112  20.056  0.00  0.00    +0.000 A 
ATOM      6  C   UNL     1      -0.256  11.401  21.230  0.00  0.00    +0.000 A 
ATOM      7  C   UNL     1       0.269  10.111  21.369  0.00  0.00    +0.000 A 
ATOM      8  C   UNL     1       0.981   9.550  20.289  0.00  0.00    +0.000 A 
ATOM      9  C   UNL     1       1.580   8.261  20.065  0.00  0.00    +0.000 A 
ATOM     10  C   UNL     1      -1.068  12.016  22.341  0.00  0.00    +0.000 C 
ATOM     11  N   UNL     1      -1.984  13.083  21.900  0.00  0.00    +0.000 NA
ATOM     12  C   UNL     1      -1.215  14.055  21.098  0.00  0.00    +0.000 C 
ATOM     13  C   UNL     1      -0.620  13.460  19.820  0.00  0.00    +0.000 C 
ENDROOT
BRANCH   1  15
ATOM     14  N   UNL     1       3.915   7.223  17.544  0.00  0.00    +0.000 N 
ATOM     15  C   UNL     1       2.655   6.998  18.078  0.00  0.00    +0.000 C 
ATOM     16  O   UNL     1       2.042   5.938  17.968  0.00  0.00    +0.000 OA
ATOM     17  H   UNL     1       4.257   8.175  17.604  0.00  0.00    +0.000 HD
BRANCH  14  23
ATOM     18  C   UNL     1       5.286   5.206  17.757  0.00  0.00    +0.000 A 
ATOM     19  C   UNL     1       6.110   4.236  17.150  0.00  0.00    +0.000 A 
ATOM     20  C   UNL     1       6.413   4.295  15.790  0.00  0.00    +0.000 A 
ATOM     21  C   UNL     1       5.895   5.320  15.013  0.00  0.00    +0.000 A 
ATOM     22  C   UNL     1       5.071   6.281  15.597  0.00  0.00    +0.000 A 
ATOM     23  C   UNL     1       4.766   6.250  16.964  0.00  0.00    +0.000 A 
BRANCH  18  25
ATOM     24  C   UNL     1       4.408   3.859  19.674  0.00  0.00    +0.000 C 
ATOM     25  C   UNL     1       5.124   5.140  19.260  0.00  0.00    +0.000 C 
ENDBRANCH  18  25
ENDBRANCH  14  23
ENDBRANCH   1  15
BRANCH   9  26
ATOM     26  N   UNL     1       1.599   7.271  21.002  0.00  0.00    +0.000 N 
ATOM     27  H   UNL     1       1.907   6.344  20.709  0.00  0.00    +0.000 HD
ATOM     28  H   UNL     1       0.792   7.175  21.619  0.00  0.00    +0.000 HD
ENDBRANCH   9  26
BRANCH  11  29
ATOM     29  C   UNL     1      -3.149  12.564  21.154  0.00  0.00    +0.000 C 
BRANCH  29  30
ATOM     30  C   UNL     1      -4.453  12.655  21.917  0.00  0.00    +0.000 A 
ATOM     31  C   UNL     1      -4.458  12.927  23.291  0.00  0.00    +0.000 A 
ATOM     32  C   UNL     1      -5.662  13.014  23.989  0.00  0.00    +0.000 A 
ATOM     33  C   UNL     1      -6.872  12.832  23.321  0.00  0.00    +0.000 A 
ATOM     34  C   UNL     1      -6.880  12.560  21.954  0.00  0.00    +0.000 A 
ATOM     35  C   UNL     1      -5.676  12.472  21.254  0.00  0.00    +0.000 A 
ENDBRANCH  29  30
ENDBRANCH  11  29
TORSDOF 6
ENDMDL
MODEL 6
REMARK VINA RESULT:      -7.8      1.028      1.388
REMARK  Name = 
REMARK  7 active torsions:
REMARK  status: ('A' for Active; 'I' for Inactive)
REMARK    1  A    between atoms: C_1  and  C_2
REMARK    2  A    between atoms: C_2  and  C_3
REMARK    3  A    between atoms: C_8  and  N_9
REMARK    4  A    between atoms: C_10  and  C_12
REMARK    5  A    between atoms: C_20  and  N_21
REMARK    6  A    between atoms: N_23  and  C_24
REMARK    7  A    between atoms: C_24  and  C_25
REMARK                            x       y       z     vdW  Elec       q    Type
REMARK                         _______ _______ _______ _____ _____    ______ ____
ROOT
ATOM      1  C   UNL     1       0.834   9.654  19.217  0.00  0.00    +0.000 A 
ATOM      2  S   UNL     1       1.076   9.835  20.907  0.00  0.00    +0.000 S 
ATOM      3  C   UNL     1      -0.050  11.093  20.997  0.00  0.00    +0.000 A 
ATOM      4  N   UNL     1      -0.239  11.732  22.165  0.00  0.00    +0.000 NA
ATOM      5  C   UNL     1      -1.122  12.747  22.115  0.00  0.00    +0.000 A 
ATOM      6  C   UNL     1      -1.828  13.122  20.969  0.00  0.00    +0.000 A 
ATOM      7  C   UNL     1      -1.635  12.390  19.790  0.00  0.00    +0.000 A 
ATOM      8  C   UNL     1      -0.680  11.352  19.787  0.00  0.00    +0.000 A 
ATOM      9  C   UNL     1      -0.188  10.468  18.764  0.00  0.00    +0.000 A 
ATOM     10  C   UNL     1      -2.800  14.273  21.000  0.00  0.00    +0.000 C 
ATOM     11  N   UNL     1      -2.531  15.262  22.058  0.00  0.00    +0.000 NA
ATOM     12  C   UNL     1      -2.395  14.546  23.342  0.00  0.00    +0.000 C 
ATOM     13  C   UNL     1      -1.219  13.568  23.375  0.00  0.00    +0.000 C 
ENDROOT
BRANCH   1  15
ATOM     14  N   UNL     1       2.134   7.661  19.296  0.00  0.00    +0.000 N 
ATOM     15  C   UNL     1       1.720   8.736  18.523  0.00  0.00    +0.000 C 
ATOM     16  O   UNL     1       2.060   8.914  17.355  0.00  0.00    +0.000 OA
ATOM     17  H   UNL     1       1.878   7.696  20.276  0.00  0.00    +0.000 HD
BRANCH  14  23
ATOM     18  C   UNL     1       2.494   5.240  19.306  0.00  0.00    +0.000 A 
ATOM     19  C   UNL     1       3.198   4.121  18.816  0.00  0.00    +0.000 A 
ATOM     20  C   UNL     1       4.224   4.266  17.881  0.00  0.00    +0.000 A 
ATOM     21  C   UNL     1       4.559   5.530  17.419  0.00  0.00    +0.000 A 
ATOM     22  C   UNL     1       3.866   6.644  17.888  0.00  0.00    +0.000 A 
ATOM     23  C   UNL     1       2.842   6.523  18.837  0.00  0.00    +0.000 A 
BRANCH  18  25
ATOM     24  C   UNL     1       1.114   3.526  20.499  0.00  0.00    +0.000 C 
ATOM     25  C   UNL     1       1.494   5.000  20.416  0.00  0.00    +0.000 C 
ENDBRANCH  18  25
ENDBRANCH  14  23
ENDBRANCH   1  15
BRANCH   9  26
ATOM     26  N   UNL     1      -0.665  10.461  17.487  0.00  0.00    +0.000 N 
ATOM     27  H   UNL     1      -1.247   9.673  17.200  0.00  0.00    +0.000 HD
ATOM     28  H   UNL     1      -0.021  10.693  16.730  0.00  0.00    +0.000 HD
ENDBRANCH   9  26
BRANCH  11  29
ATOM     29  C   UNL     1      -1.346  16.096  21.772  0.00  0.00    +0.000 C 
BRANCH  29  30
ATOM     30  C   UNL     1      -1.406  16.806  20.437  0.00  0.00    +0.000 A 
ATOM     31  C   UNL     1      -0.510  16.474  19.412  0.00  0.00    +0.000 A 
ATOM     32  C   UNL     1      -0.572  17.129  18.182  0.00  0.00    +0.000 A 
ATOM     33  C   UNL     1      -1.528  18.119  17.964  0.00  0.00    +0.000 A 
ATOM     34  C   UNL     1      -2.423  18.458  18.976  0.00  0.00    +0.000 A 
ATOM     35  C   UNL     1      -2.364  17.805  20.208  0.00  0.00    +0.000 A 
ENDBRANCH  29  30
ENDBRANCH  11  29
TORSDOF 6
ENDMDL
MODEL 7
REMARK VINA RESULT:      -7.7      2.461      4.118
REMARK  Name = 
REMARK  7 active torsions:
REMARK  status: ('A' for Active; 'I' for Inactive)
REMARK    1  A    between atoms: C_1  and  C_2
REMARK    2  A    between atoms: C_2  and  C_3
REMARK    3  A    between atoms: C_8  and  N_9
REMARK    4  A    between atoms: C_10  and  C_12
REMARK    5  A    between atoms: C_20  and  N_21
REMARK    6  A    between atoms: N_23  and  C_24
REMARK    7  A    between atoms: C_24  and  C_25
REMARK                            x       y       z     vdW  Elec       q    Type
REMARK                         _______ _______ _______ _____ _____    ______ ____
ROOT
ATOM      1  C   UNL     1       0.941   9.741  19.715  0.00  0.00    +0.000 A 
ATOM      2  S   UNL     1       1.268  11.395  19.390  0.00  0.00    +0.000 S 
ATOM      3  C   UNL     1       0.198  11.907  20.595  0.00  0.00    +0.000 A 
ATOM      4  N   UNL     1      -0.034  13.221  20.761  0.00  0.00    +0.000 NA
ATOM      5  C   UNL     1      -0.937  13.518  21.714  0.00  0.00    +0.000 A 
ATOM      6  C   UNL     1      -1.584  12.568  22.508  0.00  0.00    +0.000 A 
ATOM      7  C   UNL     1      -1.268  11.215  22.333  0.00  0.00    +0.000 A 
ATOM      8  C   UNL     1      -0.366  10.859  21.309  0.00  0.00    +0.000 A 
ATOM      9  C   UNL     1       0.117   9.597  20.816  0.00  0.00    +0.000 A 
ATOM     10  C   UNL     1      -2.584  12.987  23.556  0.00  0.00    +0.000 C 
ATOM     11  N   UNL     1      -3.220  14.290  23.297  0.00  0.00    +0.000 NA
ATOM     12  C   UNL     1      -2.159  15.284  23.037  0.00  0.00    +0.000 C 
ATOM     13  C   UNL     1      -1.320  14.973  21.796  0.00  0.00    +0.000 C 
ENDROOT
BRANCH   1  15
ATOM     14  N   UNL     1       2.255   7.774  19.443  0.00  0.00    +0.000 N 
ATOM     15  C   UNL     1       1.524   8.768  18.808  0.00  0.00    +0.000 C 
ATOM     16  O   UNL     1       1.372   8.837  17.591  0.00  0.00    +0.000 OA
ATOM     17  H   UNL     1       2.401   7.899  20.438  0.00  0.00    +0.000 HD
BRANCH  14  23
ATOM     18  C   UNL     1       2.341   5.333  19.274  0.00  0.00    +0.000 A 
ATOM     19  C   UNL     1       2.858   4.184  18.641  0.00  0.00    +0.000 A 
ATOM     20  C   UNL     1       3.783   4.286  17.602  0.00  0.00    +0.000 A 
ATOM     21  C   UNL     1       4.203   5.536  17.176  0.00  0.00    +0.000 A 
ATOM     22  C   UNL     1       3.695   6.682  17.785  0.00  0.00    +0.000 A 
ATOM     23  C   UNL     1       2.776   6.603  18.840  0.00  0.00    +0.000 A 
BRANCH  18  25
ATOM     24  C   UNL     1       1.112   3.648  20.655  0.00  0.00    +0.000 C 
ATOM     25  C   UNL     1       1.451   5.123  20.479  0.00  0.00    +0.000 C 
ENDBRANCH  18  25
ENDBRANCH  14  23
ENDBRANCH   1  15
BRANCH   9  26
ATOM     26  N   UNL     1      -0.228   8.397  21.364  0.00  0.00    +0.000 N 
ATOM     27  H   UNL     1      -1.203   8.106  21.299  0.00  0.00    +0.000 HD
ATOM     28  H   UNL     1       0.126   8.172  22.295  0.00  0.00    +0.000 HD
ENDBRANCH   9  26
BRANCH  11  29
ATOM     29  C   UNL     1      -4.198  14.239  22.191  0.00  0.00    +0.000 C 
BRANCH  29  30
ATOM     30  C   UNL     1      -5.500  13.560  22.558  0.00  0.00    +0.000 A 
ATOM     31  C   UNL     1      -6.097  13.788  23.804  0.00  0.00    +0.000 A 
ATOM     32  C   UNL     1      -7.299  13.163  24.136  0.00  0.00    +0.000 A 
ATOM     33  C   UNL     1      -7.916  12.306  23.226  0.00  0.00    +0.000 A 
ATOM     34  C   UNL     1      -7.332  12.071  21.983  0.00  0.00    +0.000 A 
ATOM     35  C   UNL     1      -6.129  12.695  21.649  0.00  0.00    +0.000 A 
ENDBRANCH  29  30
ENDBRANCH  11  29
TORSDOF 6
ENDMDL
MODEL 8
REMARK VINA RESULT:      -7.7      3.003     10.229
REMARK  Name = 
REMARK  7 active torsions:
REMARK  status: ('A' for Active; 'I' for Inactive)
REMARK    1  A    between atoms: C_1  and  C_2
REMARK    2  A    between atoms: C_2  and  C_3
REMARK    3  A    between atoms: C_8  and  N_9
REMARK    4  A    between atoms: C_10  and  C_12
REMARK    5  A    between atoms: C_20  and  N_21
REMARK    6  A    between atoms: N_23  and  C_24
REMARK    7  A    between atoms: C_24  and  C_25
REMARK                            x       y       z     vdW  Elec       q    Type
REMARK                         _______ _______ _______ _____ _____    ______ ____
ROOT
ATOM      1  C   UNL     1      -1.099  11.995  20.064  0.00  0.00    +0.000 A 
ATOM      2  S   UNL     1      -0.669  10.932  21.342  0.00  0.00    +0.000 S 
ATOM      3  C   UNL     1       0.361  10.042  20.338  0.00  0.00    +0.000 A 
ATOM      4  N   UNL     1       0.968   8.943  20.819  0.00  0.00    +0.000 NA
ATOM      5  C   UNL     1       1.728   8.282  19.925  0.00  0.00    +0.000 A 
ATOM      6  C   UNL     1       1.918   8.688  18.601  0.00  0.00    +0.000 A 
ATOM      7  C   UNL     1       1.306   9.869  18.164  0.00  0.00    +0.000 A 
ATOM      8  C   UNL     1       0.460  10.563  19.055  0.00  0.00    +0.000 A 
ATOM      9  C   UNL     1      -0.362  11.735  18.923  0.00  0.00    +0.000 A 
ATOM     10  C   UNL     1       2.787   7.889  17.664  0.00  0.00    +0.000 C 
ATOM     11  N   UNL     1       2.919   6.468  18.028  0.00  0.00    +0.000 NA
ATOM     12  C   UNL     1       3.317   6.384  19.446  0.00  0.00    +0.000 C 
ATOM     13  C   UNL     1       2.281   6.967  20.409  0.00  0.00    +0.000 C 
ENDROOT
BRANCH   1  15
ATOM     14  N   UNL     1      -3.379  12.375  20.634  0.00  0.00    +0.000 N 
ATOM     15  C   UNL     1      -2.154  12.954  20.337  0.00  0.00    +0.000 C 
ATOM     16  O   UNL     1      -1.957  14.167  20.304  0.00  0.00    +0.000 OA
ATOM     17  H   UNL     1      -3.434  11.371  20.512  0.00  0.00    +0.000 HD
BRANCH  14  23
ATOM     18  C   UNL     1      -4.743  13.170  22.505  0.00  0.00    +0.000 A 
ATOM     19  C   UNL     1      -5.882  13.865  22.959  0.00  0.00    +0.000 A 
ATOM     20  C   UNL     1      -6.790  14.428  22.062  0.00  0.00    +0.000 A 
ATOM     21  C   UNL     1      -6.573  14.310  20.698  0.00  0.00    +0.000 A 
ATOM     22  C   UNL     1      -5.446  13.634  20.233  0.00  0.00    +0.000 A 
ATOM     23  C   UNL     1      -4.529  13.048  21.117  0.00  0.00    +0.000 A 
BRANCH  18  25
ATOM     24  C   UNL     1      -4.608  12.421  24.888  0.00  0.00    +0.000 C 
ATOM     25  C   UNL     1      -3.890  12.477  23.545  0.00  0.00    +0.000 C 
ENDBRANCH  18  25
ENDBRANCH  14  23
ENDBRANCH   1  15
BRANCH   9  26
ATOM     26  N   UNL     1      -0.420  12.486  17.785  0.00  0.00    +0.000 N 
ATOM     27  H   UNL     1       0.454  12.861  17.417  0.00  0.00    +0.000 HD
ATOM     28  H   UNL     1      -1.145  13.200  17.716  0.00  0.00    +0.000 HD
ENDBRANCH   9  26
BRANCH  11  29
ATOM     29  C   UNL     1       1.689   5.694  17.762  0.00  0.00    +0.000 C 
BRANCH  29  30
ATOM     30  C   UNL     1       1.790   4.234  18.148  0.00  0.00    +0.000 A 
ATOM     31  C   UNL     1       1.024   3.721  19.202  0.00  0.00    +0.000 A 
ATOM     32  C   UNL     1       1.118   2.373  19.552  0.00  0.00    +0.000 A 
ATOM     33  C   UNL     1       1.976   1.527  18.852  0.00  0.00    +0.000 A 
ATOM     34  C   UNL     1       2.743   2.026  17.802  0.00  0.00    +0.000 A 
ATOM     35  C   UNL     1       2.652   3.373  17.450  0.00  0.00    +0.000 A 
ENDBRANCH  29  30
ENDBRANCH  11  29
TORSDOF 6
ENDMDL
MODEL 9
REMARK VINA RESULT:      -7.7      2.206      4.321
REMARK  Name = 
REMARK  7 active torsions:
REMARK  status: ('A' for Active; 'I' for Inactive)
REMARK    1  A    between atoms: C_1  and  C_2
REMARK    2  A    between atoms: C_2  and  C_3
REMARK    3  A    between atoms: C_8  and  N_9
REMARK    4  A    between atoms: C_10  and  C_12
REMARK    5  A    between atoms: C_20  and  N_21
REMARK    6  A    between atoms: N_23  and  C_24
REMARK    7  A    between atoms: C_24  and  C_25
REMARK                            x       y       z     vdW  Elec       q    Type
REMARK                         _______ _______ _______ _____ _____    ______ ____
ROOT
ATOM      1  C   UNL     1       1.949   8.418  19.082  0.00  0.00    +0.000 A 
ATOM      2  S   UNL     1       1.774   9.800  18.079  0.00  0.00    +0.000 S 
ATOM      3  C   UNL     1       0.859  10.610  19.248  0.00  0.00    +0.000 A 
ATOM      4  N   UNL     1       0.336  11.815  18.963  0.00  0.00    +0.000 NA
ATOM      5  C   UNL     1      -0.413  12.351  19.945  0.00  0.00    +0.000 A 
ATOM      6  C   UNL     1      -0.632  11.747  21.186  0.00  0.00    +0.000 A 
ATOM      7  C   UNL     1      -0.021  10.516  21.454  0.00  0.00    +0.000 A 
ATOM      8  C   UNL     1       0.730   9.897  20.433  0.00  0.00    +0.000 A 
ATOM      9  C   UNL     1       1.415   8.636  20.339  0.00  0.00    +0.000 A 
ATOM     10  C   UNL     1      -1.486  12.417  22.233  0.00  0.00    +0.000 C 
ATOM     11  N   UNL     1      -2.471  13.368  21.690  0.00  0.00    +0.000 NA
ATOM     12  C   UNL     1      -1.769  14.303  20.788  0.00  0.00    +0.000 C 
ATOM     13  C   UNL     1      -1.132  13.622  19.575  0.00  0.00    +0.000 C 
ENDROOT
BRANCH   1  15
ATOM     14  N   UNL     1       2.375   6.078  19.198  0.00  0.00    +0.000 N 
ATOM     15  C   UNL     1       2.576   7.252  18.486  0.00  0.00    +0.000 C 
ATOM     16  O   UNL     1       3.223   7.320  17.443  0.00  0.00    +0.000 OA
ATOM     17  H   UNL     1       1.925   6.180  20.100  0.00  0.00    +0.000 HD
BRANCH  14  23
ATOM     18  C   UNL     1       4.013   4.275  18.959  0.00  0.00    +0.000 A 
ATOM     19  C   UNL     1       4.311   2.961  18.544  0.00  0.00    +0.000 A 
ATOM     20  C   UNL     1       3.339   2.152  17.954  0.00  0.00    +0.000 A 
ATOM     21  C   UNL     1       2.055   2.641  17.773  0.00  0.00    +0.000 A 
ATOM     22  C   UNL     1       1.743   3.935  18.187  0.00  0.00    +0.000 A 
ATOM     23  C   UNL     1       2.707   4.770  18.768  0.00  0.00    +0.000 A 
BRANCH  18  25
ATOM     24  C   UNL     1       6.177   5.376  18.354  0.00  0.00    +0.000 C 
ATOM     25  C   UNL     1       5.161   5.123  19.462  0.00  0.00    +0.000 C 
ENDBRANCH  18  25
ENDBRANCH  14  23
ENDBRANCH   1  15
BRANCH   9  26
ATOM     26  N   UNL     1       1.500   7.751  21.372  0.00  0.00    +0.000 N 
ATOM     27  H   UNL     1       0.633   7.339  21.719  0.00  0.00    +0.000 HD
ATOM     28  H   UNL     1       2.096   7.991  22.165  0.00  0.00    +0.000 HD
ENDBRANCH   9  26
BRANCH  11  29
ATOM     29  C   UNL     1      -3.596  12.698  21.007  0.00  0.00    +0.000 C 
BRANCH  29  30
ATOM     30  C   UNL     1      -4.878  12.684  21.812  0.00  0.00    +0.000 A 
ATOM     31  C   UNL     1      -4.874  13.042  23.166  0.00  0.00    +0.000 A 
ATOM     32  C   UNL     1      -6.058  13.031  23.903  0.00  0.00    +0.000 A 
ATOM     33  C   UNL     1      -7.257  12.663  23.294  0.00  0.00    +0.000 A 
ATOM     34  C   UNL     1      -7.274  12.305  21.948  0.00  0.00    +0.000 A 
ATOM     35  C   UNL     1      -6.090  12.314  21.208  0.00  0.00    +0.000 A 
ENDBRANCH  29  30
ENDBRANCH  11  29
TORSDOF 6
ENDMDL
