MODEL 1
REMARK VINA RESULT:      -7.7      0.000      0.000
REMARK  Name = 
REMARK  5 active torsions:
REMARK  status: ('A' for Active; 'I' for Inactive)
REMARK    1  A    between atoms: N_1  and  C_2
REMARK    2  A    between atoms: C_3  and  C_4
REMARK    3  A    between atoms: C_4  and  C_6
REMARK    4  A    between atoms: C_18  and  C_19
REMARK    5  A    between atoms: C_19  and  O_21
REMARK                            x       y       z     vdW  Elec       q    Type
REMARK                         _______ _______ _______ _____ _____    ______ ____
ROOT
ATOM      1  C   UNL     1       4.054   4.426  16.895  0.00  0.00    +0.000 A 
ATOM      2  C   UNL     1       4.292   5.184  18.037  0.00  0.00    +0.000 A 
ATOM      3  S   UNL     1       5.779   6.077  17.895  0.00  0.00    +0.000 S 
ATOM      4  C   UNL     1       6.065   5.428  16.382  0.00  0.00    +0.000 A 
ATOM      5  N   UNL     1       7.185   5.783  15.674  0.00  0.00    +0.000 N 
ATOM      6  C   UNL     1       7.377   5.244  14.425  0.00  0.00    +0.000 A 
ATOM      7  O   UNL     1       8.356   5.527  13.734  0.00  0.00    +0.000 OA
ATOM      8  C   UNL     1       6.350   4.283  13.898  0.00  0.00    +0.000 A 
ATOM      9  C   UNL     1       5.277   3.981  14.660  0.00  0.00    +0.000 A 
ATOM     10  C   UNL     1       5.104   4.564  15.948  0.00  0.00    +0.000 A 
ATOM     11  H   UNL     1       7.852   6.437  16.059  0.00  0.00    +0.000 HD
ENDROOT
BRANCH   1  12
ATOM     12  N   UNL     1       2.971   3.649  16.671  0.00  0.00    +0.000 N 
ATOM     13  H   UNL     1       2.753   2.810  17.201  0.00  0.00    +0.000 HD
ATOM     14  H   UNL     1       2.195   3.948  16.085  0.00  0.00    +0.000 HD
ENDBRANCH   1  12
BRANCH   2  15
ATOM     15  C   UNL     1       3.541   5.352  19.272  0.00  0.00    +0.000 C 
ATOM     16  O   UNL     1       3.559   4.538  20.197  0.00  0.00    +0.000 OA
BRANCH  15  17
ATOM     17  C   UNL     1       2.652   6.535  19.457  0.00  0.00    +0.000 A 
ATOM     18  C   UNL     1       2.561   7.480  18.424  0.00  0.00    +0.000 A 
ATOM     19  C   UNL     1       1.851   8.667  18.621  0.00  0.00    +0.000 A 
ATOM     20  C   UNL     1       1.208   8.897  19.836  0.00  0.00    +0.000 A 
ATOM     21 CL   UNL     1       0.399  10.389  20.110  0.00  0.00    +0.000 Cl
ATOM     22  C   UNL     1       1.246   7.940  20.848  0.00  0.00    +0.000 A 
ATOM     23  C   UNL     1       1.990   6.773  20.670  0.00  0.00    +0.000 A 
ENDBRANCH  15  17
ENDBRANCH   2  15
BRANCH   8  24
ATOM     24  C   UNL     1       6.454   3.640  12.570  0.00  0.00    +0.000 C 
ATOM     25  O   UNL     1       5.840   2.625  12.271  0.00  0.00    +0.000 OA
BRANCH  24  26
ATOM     26  O   UNL     1       7.281   4.256  11.700  0.00  0.00    +0.000 OA
ATOM     27  H   UNL     1       7.891   3.651  11.211  0.00  0.00    +0.000 HD
ENDBRANCH  24  26
ENDBRANCH   8  24
TORSDOF 5
ENDMDL
MODEL 2
REMARK VINA RESULT:      -7.5      0.174      1.023
REMARK  Name = 
REMARK  5 active torsions:
REMARK  status: ('A' for Active; 'I' for Inactive)
REMARK    1  A    between atoms: N_1  and  C_2
REMARK    2  A    between atoms: C_3  and  C_4
REMARK    3  A    between atoms: C_4  and  C_6
REMARK    4  A    between atoms: C_18  and  C_19
REMARK    5  A    between atoms: C_19  and  O_21
REMARK                            x       y       z     vdW  Elec       q    Type
REMARK                         _______ _______ _______ _____ _____    ______ ____
ROOT
ATOM      1  C   UNL     1       4.005   4.489  16.920  0.00  0.00    +0.000 A 
ATOM      2  C   UNL     1       4.246   5.289  18.033  0.00  0.00    +0.000 A 
ATOM      3  S   UNL     1       5.725   6.187  17.850  0.00  0.00    +0.000 S 
ATOM      4  C   UNL     1       6.006   5.488  16.359  0.00  0.00    +0.000 A 
ATOM      5  N   UNL     1       7.118   5.825  15.631  0.00  0.00    +0.000 N 
ATOM      6  C   UNL     1       7.306   5.244  14.400  0.00  0.00    +0.000 A 
ATOM      7  O   UNL     1       8.278   5.510  13.693  0.00  0.00    +0.000 OA
ATOM      8  C   UNL     1       6.283   4.258  13.915  0.00  0.00    +0.000 A 
ATOM      9  C   UNL     1       5.217   3.975  14.694  0.00  0.00    +0.000 A 
ATOM     10  C   UNL     1       5.048   4.601  15.962  0.00  0.00    +0.000 A 
ATOM     11  H   UNL     1       7.783   6.497  15.988  0.00  0.00    +0.000 HD
ENDROOT
BRANCH   1  12
ATOM     12  N   UNL     1       2.927   3.697  16.731  0.00  0.00    +0.000 N 
ATOM     13  H   UNL     1       2.636   3.338  15.826  0.00  0.00    +0.000 HD
ATOM     14  H   UNL     1       2.439   3.244  17.501  0.00  0.00    +0.000 HD
ENDBRANCH   1  12
BRANCH   2  15
ATOM     15  C   UNL     1       3.501   5.495  19.267  0.00  0.00    +0.000 C 
ATOM     16  O   UNL     1       3.435   4.659  20.170  0.00  0.00    +0.000 OA
BRANCH  15  17
ATOM     17  C   UNL     1       2.724   6.750  19.476  0.00  0.00    +0.000 A 
ATOM     18  C   UNL     1       2.101   6.960  20.716  0.00  0.00    +0.000 A 
ATOM     19  C   UNL     1       1.250   8.054  20.896  0.00  0.00    +0.000 A 
ATOM     20  C   UNL     1       1.046   8.953  19.851  0.00  0.00    +0.000 A 
ATOM     21 CL   UNL     1      -0.059  10.255  20.044  0.00  0.00    +0.000 Cl
ATOM     22  C   UNL     1       1.704   8.784  18.634  0.00  0.00    +0.000 A 
ATOM     23  C   UNL     1       2.520   7.668  18.438  0.00  0.00    +0.000 A 
ENDBRANCH  15  17
ENDBRANCH   2  15
BRANCH   8  24
ATOM     24  C   UNL     1       6.383   3.570  12.609  0.00  0.00    +0.000 C 
ATOM     25  O   UNL     1       5.655   2.640  12.289  0.00  0.00    +0.000 OA
BRANCH  24  26
ATOM     26  O   UNL     1       7.342   4.042  11.786  0.00  0.00    +0.000 OA
ATOM     27  H   UNL     1       7.944   4.710  12.194  0.00  0.00    +0.000 HD
ENDBRANCH  24  26
ENDBRANCH   8  24
TORSDOF 5
ENDMDL
MODEL 3
REMARK VINA RESULT:      -7.4      3.927      5.997
REMARK  Name = 
REMARK  5 active torsions:
REMARK  status: ('A' for Active; 'I' for Inactive)
REMARK    1  A    between atoms: N_1  and  C_2
REMARK    2  A    between atoms: C_3  and  C_4
REMARK    3  A    between atoms: C_4  and  C_6
REMARK    4  A    between atoms: C_18  and  C_19
REMARK    5  A    between atoms: C_19  and  O_21
REMARK                            x       y       z     vdW  Elec       q    Type
REMARK                         _______ _______ _______ _____ _____    ______ ____
ROOT
ATOM      1  C   UNL     1       2.068   8.426  18.651  0.00  0.00    +0.000 A 
ATOM      2  C   UNL     1       1.292   9.057  19.619  0.00  0.00    +0.000 A 
ATOM      3  S   UNL     1       1.046   8.022  20.996  0.00  0.00    +0.000 S 
ATOM      4  C   UNL     1       1.925   6.797  20.275  0.00  0.00    +0.000 A 
ATOM      5  N   UNL     1       2.120   5.605  20.926  0.00  0.00    +0.000 N 
ATOM      6  C   UNL     1       2.865   4.628  20.311  0.00  0.00    +0.000 A 
ATOM      7  O   UNL     1       3.084   3.541  20.844  0.00  0.00    +0.000 OA
ATOM      8  C   UNL     1       3.424   4.912  18.947  0.00  0.00    +0.000 A 
ATOM      9  C   UNL     1       3.183   6.110  18.370  0.00  0.00    +0.000 A 
ATOM     10  C   UNL     1       2.413   7.104  19.039  0.00  0.00    +0.000 A 
ATOM     11  H   UNL     1       1.732   5.452  21.847  0.00  0.00    +0.000 HD
ENDROOT
BRANCH   1  12
ATOM     12  N   UNL     1       2.469   8.968  17.480  0.00  0.00    +0.000 N 
ATOM     13  H   UNL     1       2.926   8.445  16.738  0.00  0.00    +0.000 HD
ATOM     14  H   UNL     1       2.175   9.893  17.175  0.00  0.00    +0.000 HD
ENDBRANCH   1  12
BRANCH   2  15
ATOM     15  C   UNL     1       0.682  10.378  19.674  0.00  0.00    +0.000 C 
ATOM     16  O   UNL     1       1.191  11.340  20.249  0.00  0.00    +0.000 OA
BRANCH  15  17
ATOM     17  C   UNL     1      -0.652  10.617  19.052  0.00  0.00    +0.000 A 
ATOM     18  C   UNL     1      -0.969   9.954  17.857  0.00  0.00    +0.000 A 
ATOM     19  C   UNL     1      -2.149  10.263  17.176  0.00  0.00    +0.000 A 
ATOM     20  C   UNL     1      -3.026  11.210  17.702  0.00  0.00    +0.000 A 
ATOM     21 CL   UNL     1      -4.439  11.650  16.828  0.00  0.00    +0.000 Cl
ATOM     22  C   UNL     1      -2.746  11.834  18.916  0.00  0.00    +0.000 A 
ATOM     23  C   UNL     1      -1.548  11.558  19.576  0.00  0.00    +0.000 A 
ENDBRANCH  15  17
ENDBRANCH   2  15
BRANCH   8  24
ATOM     24  C   UNL     1       4.237   3.936  18.190  0.00  0.00    +0.000 C 
ATOM     25  O   UNL     1       3.952   3.566  17.058  0.00  0.00    +0.000 OA
BRANCH  24  26
ATOM     26  O   UNL     1       5.326   3.474  18.838  0.00  0.00    +0.000 OA
ATOM     27  H   UNL     1       6.189   3.770  18.459  0.00  0.00    +0.000 HD
ENDBRANCH  24  26
ENDBRANCH   8  24
TORSDOF 5
ENDMDL
MODEL 4
REMARK VINA RESULT:      -7.4      2.666      3.201
REMARK  Name = 
REMARK  5 active torsions:
REMARK  status: ('A' for Active; 'I' for Inactive)
REMARK    1  A    between atoms: N_1  and  C_2
REMARK    2  A    between atoms: C_3  and  C_4
REMARK    3  A    between atoms: C_4  and  C_6
REMARK    4  A    between atoms: C_18  and  C_19
REMARK    5  A    between atoms: C_19  and  O_21
REMARK                            x       y       z     vdW  Elec       q    Type
REMARK                         _______ _______ _______ _____ _____    ______ ____
ROOT
ATOM      1  C   UNL     1       5.308   3.884  16.747  0.00  0.00    +0.000 A 
ATOM      2  C   UNL     1       5.843   4.764  17.682  0.00  0.00    +0.000 A 
ATOM      3  S   UNL     1       7.026   5.810  16.951  0.00  0.00    +0.000 S 
ATOM      4  C   UNL     1       6.817   5.067  15.469  0.00  0.00    +0.000 A 
ATOM      5  N   UNL     1       7.530   5.486  14.374  0.00  0.00    +0.000 N 
ATOM      6  C   UNL     1       7.318   4.864  13.168  0.00  0.00    +0.000 A 
ATOM      7  O   UNL     1       7.918   5.198  12.146  0.00  0.00    +0.000 OA
ATOM      8  C   UNL     1       6.318   3.745  13.109  0.00  0.00    +0.000 A 
ATOM      9  C   UNL     1       5.661   3.387  14.233  0.00  0.00    +0.000 A 
ATOM     10  C   UNL     1       5.899   4.059  15.467  0.00  0.00    +0.000 A 
ATOM     11  H   UNL     1       8.191   6.247  14.451  0.00  0.00    +0.000 HD
ENDROOT
BRANCH   1  12
ATOM     12  N   UNL     1       4.344   2.967  16.983  0.00  0.00    +0.000 N 
ATOM     13  H   UNL     1       3.380   3.062  16.675  0.00  0.00    +0.000 HD
ATOM     14  H   UNL     1       4.551   2.028  17.317  0.00  0.00    +0.000 HD
ENDBRANCH   1  12
BRANCH   2  15
ATOM     15  C   UNL     1       5.590   4.952  19.103  0.00  0.00    +0.000 C 
ATOM     16  O   UNL     1       6.328   5.601  19.847  0.00  0.00    +0.000 OA
BRANCH  15  17
ATOM     17  C   UNL     1       4.411   4.307  19.749  0.00  0.00    +0.000 A 
ATOM     18  C   UNL     1       3.281   5.090  20.030  0.00  0.00    +0.000 A 
ATOM     19  C   UNL     1       2.219   4.552  20.760  0.00  0.00    +0.000 A 
ATOM     20  C   UNL     1       2.271   3.225  21.184  0.00  0.00    +0.000 A 
ATOM     21 CL   UNL     1       1.002   2.583  22.149  0.00  0.00    +0.000 Cl
ATOM     22  C   UNL     1       3.364   2.423  20.863  0.00  0.00    +0.000 A 
ATOM     23  C   UNL     1       4.445   2.971  20.171  0.00  0.00    +0.000 A 
ENDBRANCH  15  17
ENDBRANCH   2  15
BRANCH   8  24
ATOM     24  C   UNL     1       6.011   3.003  11.867  0.00  0.00    +0.000 C 
ATOM     25  O   UNL     1       4.925   3.066  11.305  0.00  0.00    +0.000 OA
BRANCH  24  26
ATOM     26  O   UNL     1       7.018   2.243  11.391  0.00  0.00    +0.000 OA
ATOM     27  H   UNL     1       7.851   2.280  11.922  0.00  0.00    +0.000 HD
ENDBRANCH  24  26
ENDBRANCH   8  24
TORSDOF 5
ENDMDL
MODEL 5
REMARK VINA RESULT:      -7.4      4.088      7.953
REMARK  Name = 
REMARK  5 active torsions:
REMARK  status: ('A' for Active; 'I' for Inactive)
REMARK    1  A    between atoms: N_1  and  C_2
REMARK    2  A    between atoms: C_3  and  C_4
REMARK    3  A    between atoms: C_4  and  C_6
REMARK    4  A    between atoms: C_18  and  C_19
REMARK    5  A    between atoms: C_19  and  O_21
REMARK                            x       y       z     vdW  Elec       q    Type
REMARK                         _______ _______ _______ _____ _____    ______ ____
ROOT
ATOM      1  C   UNL     1       2.673   5.734  20.119  0.00  0.00    +0.000 A 
ATOM      2  C   UNL     1       3.336   5.453  18.928  0.00  0.00    +0.000 A 
ATOM      3  S   UNL     1       3.234   6.795  17.825  0.00  0.00    +0.000 S 
ATOM      4  C   UNL     1       2.319   7.668  18.916  0.00  0.00    +0.000 A 
ATOM      5  N   UNL     1       1.891   8.935  18.609  0.00  0.00    +0.000 N 
ATOM      6  C   UNL     1       1.156   9.629  19.539  0.00  0.00    +0.000 A 
ATOM      7  O   UNL     1       0.750  10.772  19.329  0.00  0.00    +0.000 OA
ATOM      8  C   UNL     1       0.850   8.962  20.848  0.00  0.00    +0.000 A 
ATOM      9  C   UNL     1       1.304   7.710  21.073  0.00  0.00    +0.000 A 
ATOM     10  C   UNL     1       2.070   7.019  20.090  0.00  0.00    +0.000 A 
ATOM     11  H   UNL     1       2.121   9.354  17.719  0.00  0.00    +0.000 HD
ENDROOT
BRANCH   1  12
ATOM     12  N   UNL     1       2.594   4.918  21.194  0.00  0.00    +0.000 N 
ATOM     13  H   UNL     1       3.398   4.490  21.644  0.00  0.00    +0.000 HD
ATOM     14  H   UNL     1       1.746   4.825  21.749  0.00  0.00    +0.000 HD
ENDBRANCH   1  12
BRANCH   2  15
ATOM     15  C   UNL     1       4.070   4.282  18.472  0.00  0.00    +0.000 C 
ATOM     16  O   UNL     1       4.006   3.181  19.020  0.00  0.00    +0.000 OA
BRANCH  15  17
ATOM     17  C   UNL     1       4.997   4.381  17.308  0.00  0.00    +0.000 A 
ATOM     18  C   UNL     1       6.270   4.938  17.503  0.00  0.00    +0.000 A 
ATOM     19  C   UNL     1       7.107   5.176  16.410  0.00  0.00    +0.000 A 
ATOM     20  C   UNL     1       6.686   4.831  15.127  0.00  0.00    +0.000 A 
ATOM     21 CL   UNL     1       7.679   5.192  13.772  0.00  0.00    +0.000 Cl
ATOM     22  C   UNL     1       5.446   4.226  14.929  0.00  0.00    +0.000 A 
ATOM     23  C   UNL     1       4.591   4.028  16.014  0.00  0.00    +0.000 A 
ENDBRANCH  15  17
ENDBRANCH   2  15
BRANCH   8  24
ATOM     24  C   UNL     1       0.068   9.613  21.922  0.00  0.00    +0.000 C 
ATOM     25  O   UNL     1      -0.761   9.016  22.597  0.00  0.00    +0.000 OA
BRANCH  24  26
ATOM     26  O   UNL     1       0.330  10.922  22.107  0.00  0.00    +0.000 OA
ATOM     27  H   UNL     1       1.020  11.295  21.505  0.00  0.00    +0.000 HD
ENDBRANCH  24  26
ENDBRANCH   8  24
TORSDOF 5
ENDMDL
MODEL 6
REMARK VINA RESULT:      -7.3      2.622      3.194
REMARK  Name = 
REMARK  5 active torsions:
REMARK  status: ('A' for Active; 'I' for Inactive)
REMARK    1  A    between atoms: N_1  and  C_2
REMARK    2  A    between atoms: C_3  and  C_4
REMARK    3  A    between atoms: C_4  and  C_6
REMARK    4  A    between atoms: C_18  and  C_19
REMARK    5  A    between atoms: C_19  and  O_21
REMARK                            x       y       z     vdW  Elec       q    Type
REMARK                         _______ _______ _______ _____ _____    ______ ____
ROOT
ATOM      1  C   UNL     1       5.481   3.868  16.796  0.00  0.00    +0.000 A 
ATOM      2  C   UNL     1       6.053   4.766  17.693  0.00  0.00    +0.000 A 
ATOM      3  S   UNL     1       7.179   5.822  16.889  0.00  0.00    +0.000 S 
ATOM      4  C   UNL     1       6.901   5.062  15.427  0.00  0.00    +0.000 A 
ATOM      5  N   UNL     1       7.546   5.481  14.292  0.00  0.00    +0.000 N 
ATOM      6  C   UNL     1       7.279   4.845  13.104  0.00  0.00    +0.000 A 
ATOM      7  O   UNL     1       7.817   5.178  12.048  0.00  0.00    +0.000 OA
ATOM      8  C   UNL     1       6.295   3.711  13.110  0.00  0.00    +0.000 A 
ATOM      9  C   UNL     1       5.705   3.354  14.271  0.00  0.00    +0.000 A 
ATOM     10  C   UNL     1       5.999   4.041  15.485  0.00  0.00    +0.000 A 
ATOM     11  H   UNL     1       8.199   6.252  14.326  0.00  0.00    +0.000 HD
ENDROOT
BRANCH   1  12
ATOM     12  N   UNL     1       4.545   2.940  17.091  0.00  0.00    +0.000 N 
ATOM     13  H   UNL     1       4.042   2.396  16.395  0.00  0.00    +0.000 HD
ATOM     14  H   UNL     1       4.410   2.579  18.033  0.00  0.00    +0.000 HD
ENDBRANCH   1  12
BRANCH   2  15
ATOM     15  C   UNL     1       5.875   4.963  19.124  0.00  0.00    +0.000 C 
ATOM     16  O   UNL     1       6.720   5.488  19.851  0.00  0.00    +0.000 OA
BRANCH  15  17
ATOM     17  C   UNL     1       4.637   4.480  19.802  0.00  0.00    +0.000 A 
ATOM     18  C   UNL     1       4.592   3.156  20.263  0.00  0.00    +0.000 A 
ATOM     19  C   UNL     1       3.402   2.631  20.772  0.00  0.00    +0.000 A 
ATOM     20  C   UNL     1       2.266   3.435  20.849  0.00  0.00    +0.000 A 
ATOM     21 CL   UNL     1       0.780   2.771  21.402  0.00  0.00    +0.000 Cl
ATOM     22  C   UNL     1       2.316   4.768  20.445  0.00  0.00    +0.000 A 
ATOM     23  C   UNL     1       3.492   5.282  19.895  0.00  0.00    +0.000 A 
ENDBRANCH  15  17
ENDBRANCH   2  15
BRANCH   8  24
ATOM     24  C   UNL     1       5.932   2.953  11.893  0.00  0.00    +0.000 C 
ATOM     25  O   UNL     1       4.824   3.013  11.376  0.00  0.00    +0.000 OA
BRANCH  24  26
ATOM     26  O   UNL     1       6.914   2.181  11.386  0.00  0.00    +0.000 OA
ATOM     27  H   UNL     1       6.601   1.379  10.900  0.00  0.00    +0.000 HD
ENDBRANCH  24  26
ENDBRANCH   8  24
TORSDOF 5
ENDMDL
MODEL 7
REMARK VINA RESULT:      -7.3      3.989      5.938
REMARK  Name = 
REMARK  5 active torsions:
REMARK  status: ('A' for Active; 'I' for Inactive)
REMARK    1  A    between atoms: N_1  and  C_2
REMARK    2  A    between atoms: C_3  and  C_4
REMARK    3  A    between atoms: C_4  and  C_6
REMARK    4  A    between atoms: C_18  and  C_19
REMARK    5  A    between atoms: C_19  and  O_21
REMARK                            x       y       z     vdW  Elec       q    Type
REMARK                         _______ _______ _______ _____ _____    ______ ____
ROOT
ATOM      1  C   UNL     1       1.696   9.375  18.556  0.00  0.00    +0.000 A 
ATOM      2  C   UNL     1       0.935   9.525  19.712  0.00  0.00    +0.000 A 
ATOM      3  S   UNL     1       1.168   8.182  20.793  0.00  0.00    +0.000 S 
ATOM      4  C   UNL     1       2.218   7.453  19.716  0.00  0.00    +0.000 A 
ATOM      5  N   UNL     1       2.807   6.253  20.023  0.00  0.00    +0.000 N 
ATOM      6  C   UNL     1       3.679   5.693  19.121  0.00  0.00    +0.000 A 
ATOM      7  O   UNL     1       4.248   4.623  19.339  0.00  0.00    +0.000 OA
ATOM      8  C   UNL     1       3.940   6.423  17.835  0.00  0.00    +0.000 A 
ATOM      9  C   UNL     1       3.316   7.598  17.605  0.00  0.00    +0.000 A 
ATOM     10  C   UNL     1       2.423   8.155  18.565  0.00  0.00    +0.000 A 
ATOM     11  H   UNL     1       2.611   5.794  20.902  0.00  0.00    +0.000 HD
ENDROOT
BRANCH   1  12
ATOM     12  N   UNL     1       1.768  10.257  17.534  0.00  0.00    +0.000 N 
ATOM     13  H   UNL     1       2.401  11.052  17.511  0.00  0.00    +0.000 HD
ATOM     14  H   UNL     1       1.334  10.084  16.630  0.00  0.00    +0.000 HD
ENDBRANCH   1  12
BRANCH   2  15
ATOM     15  C   UNL     1       0.020  10.569  20.150  0.00  0.00    +0.000 C 
ATOM     16  O   UNL     1       0.185  11.234  21.174  0.00  0.00    +0.000 OA
BRANCH  15  17
ATOM     17  C   UNL     1      -1.221  10.856  19.375  0.00  0.00    +0.000 A 
ATOM     18  C   UNL     1      -2.016  11.950  19.752  0.00  0.00    +0.000 A 
ATOM     19  C   UNL     1      -3.253  12.161  19.140  0.00  0.00    +0.000 A 
ATOM     20  C   UNL     1      -3.685  11.299  18.132  0.00  0.00    +0.000 A 
ATOM     21 CL   UNL     1      -5.240  11.510  17.431  0.00  0.00    +0.000 Cl
ATOM     22  C   UNL     1      -2.878  10.244  17.712  0.00  0.00    +0.000 A 
ATOM     23  C   UNL     1      -1.661  10.005  18.352  0.00  0.00    +0.000 A 
ENDBRANCH  15  17
ENDBRANCH   2  15
BRANCH   8  24
ATOM     24  C   UNL     1       4.857   5.915  16.792  0.00  0.00    +0.000 C 
ATOM     25  O   UNL     1       5.646   6.632  16.192  0.00  0.00    +0.000 OA
BRANCH  24  26
ATOM     26  O   UNL     1       4.763   4.593  16.542  0.00  0.00    +0.000 OA
ATOM     27  H   UNL     1       3.841   4.238  16.537  0.00  0.00    +0.000 HD
ENDBRANCH  24  26
ENDBRANCH   8  24
TORSDOF 5
ENDMDL
MODEL 8
REMARK VINA RESULT:      -7.3      3.555      5.656
REMARK  Name = 
REMARK  5 active torsions:
REMARK  status: ('A' for Active; 'I' for Inactive)
REMARK    1  A    between atoms: N_1  and  C_2
REMARK    2  A    between atoms: C_3  and  C_4
REMARK    3  A    between atoms: C_4  and  C_6
REMARK    4  A    between atoms: C_18  and  C_19
REMARK    5  A    between atoms: C_19  and  O_21
REMARK                            x       y       z     vdW  Elec       q    Type
REMARK                         _______ _______ _______ _____ _____    ______ ____
ROOT
ATOM      1  C   UNL     1       1.710   7.913  20.116  0.00  0.00    +0.000 A 
ATOM      2  C   UNL     1       1.456   9.061  19.370  0.00  0.00    +0.000 A 
ATOM      3  S   UNL     1       2.222   8.976  17.811  0.00  0.00    +0.000 S 
ATOM      4  C   UNL     1       2.869   7.478  18.172  0.00  0.00    +0.000 A 
ATOM      5  N   UNL     1       3.640   6.813  17.252  0.00  0.00    +0.000 N 
ATOM      6  C   UNL     1       4.139   5.575  17.577  0.00  0.00    +0.000 A 
ATOM      7  O   UNL     1       4.830   4.923  16.795  0.00  0.00    +0.000 OA
ATOM      8  C   UNL     1       3.820   5.012  18.932  0.00  0.00    +0.000 A 
ATOM      9  C   UNL     1       3.057   5.731  19.783  0.00  0.00    +0.000 A 
ATOM     10  C   UNL     1       2.549   7.009  19.412  0.00  0.00    +0.000 A 
ATOM     11  H   UNL     1       3.829   7.222  16.348  0.00  0.00    +0.000 HD
ENDROOT
BRANCH   1  12
ATOM     12  N   UNL     1       1.233   7.649  21.352  0.00  0.00    +0.000 N 
ATOM     13  H   UNL     1       1.557   8.110  22.198  0.00  0.00    +0.000 HD
ATOM     14  H   UNL     1       0.383   7.111  21.508  0.00  0.00    +0.000 HD
ENDBRANCH   1  12
BRANCH   2  15
ATOM     15  C   UNL     1       0.691  10.265  19.661  0.00  0.00    +0.000 C 
ATOM     16  O   UNL     1       1.051  11.123  20.468  0.00  0.00    +0.000 OA
BRANCH  15  17
ATOM     17  C   UNL     1      -0.628  10.494  19.005  0.00  0.00    +0.000 A 
ATOM     18  C   UNL     1      -0.927   9.795  17.825  0.00  0.00    +0.000 A 
ATOM     19  C   UNL     1      -2.090  10.092  17.110  0.00  0.00    +0.000 A 
ATOM     20  C   UNL     1      -2.969  11.063  17.587  0.00  0.00    +0.000 A 
ATOM     21 CL   UNL     1      -4.360  11.485  16.671  0.00  0.00    +0.000 Cl
ATOM     22  C   UNL     1      -2.709  11.723  18.786  0.00  0.00    +0.000 A 
ATOM     23  C   UNL     1      -1.526  11.460  19.480  0.00  0.00    +0.000 A 
ENDBRANCH  15  17
ENDBRANCH   2  15
BRANCH   8  24
ATOM     24  C   UNL     1       4.303   3.691  19.390  0.00  0.00    +0.000 C 
ATOM     25  O   UNL     1       3.596   2.895  19.994  0.00  0.00    +0.000 OA
BRANCH  24  26
ATOM     26  O   UNL     1       5.591   3.420  19.095  0.00  0.00    +0.000 OA
ATOM     27  H   UNL     1       5.729   2.607  18.552  0.00  0.00    +0.000 HD
ENDBRANCH  24  26
ENDBRANCH   8  24
TORSDOF 5
ENDMDL
MODEL 9
REMARK VINA RESULT:      -7.3      3.847      6.038
REMARK  Name = 
REMARK  5 active torsions:
REMARK  status: ('A' for Active; 'I' for Inactive)
REMARK    1  A    between atoms: N_1  and  C_2
REMARK    2  A    between atoms: C_3  and  C_4
REMARK    3  A    between atoms: C_4  and  C_6
REMARK    4  A    between atoms: C_18  and  C_19
REMARK    5  A    between atoms: C_19  and  O_21
REMARK                            x       y       z     vdW  Elec       q    Type
REMARK                         _______ _______ _______ _____ _____    ______ ____
ROOT
ATOM      1  C   UNL     1       1.990   8.562  18.701  0.00  0.00    +0.000 A 
ATOM      2  C   UNL     1       1.258   9.154  19.726  0.00  0.00    +0.000 A 
ATOM      3  S   UNL     1       1.071   8.066  21.071  0.00  0.00    +0.000 S 
ATOM      4  C   UNL     1       1.917   6.871  20.266  0.00  0.00    +0.000 A 
ATOM      5  N   UNL     1       2.140   5.655  20.861  0.00  0.00    +0.000 N 
ATOM      6  C   UNL     1       2.856   4.703  20.176  0.00  0.00    +0.000 A 
ATOM      7  O   UNL     1       3.098   3.596  20.656  0.00  0.00    +0.000 OA
ATOM      8  C   UNL     1       3.355   5.041  18.801  0.00  0.00    +0.000 A 
ATOM      9  C   UNL     1       3.090   6.259  18.282  0.00  0.00    +0.000 A 
ATOM     10  C   UNL     1       2.351   7.226  19.022  0.00  0.00    +0.000 A 
ATOM     11  H   UNL     1       1.793   5.466  21.791  0.00  0.00    +0.000 HD
ENDROOT
BRANCH   1  12
ATOM     12  N   UNL     1       2.340   9.149  17.536  0.00  0.00    +0.000 N 
ATOM     13  H   UNL     1       2.434  10.153  17.409  0.00  0.00    +0.000 HD
ATOM     14  H   UNL     1       2.722   8.624  16.752  0.00  0.00    +0.000 HD
ENDBRANCH   1  12
BRANCH   2  15
ATOM     15  C   UNL     1       0.652  10.471  19.858  0.00  0.00    +0.000 C 
ATOM     16  O   UNL     1       1.107  11.362  20.577  0.00  0.00    +0.000 OA
BRANCH  15  17
ATOM     17  C   UNL     1      -0.614  10.793  19.139  0.00  0.00    +0.000 A 
ATOM     18  C   UNL     1      -1.470  11.764  19.679  0.00  0.00    +0.000 A 
ATOM     19  C   UNL     1      -2.726  11.987  19.109  0.00  0.00    +0.000 A 
ATOM     20  C   UNL     1      -3.115  11.261  17.984  0.00  0.00    +0.000 A 
ATOM     21 CL   UNL     1      -4.689  11.476  17.327  0.00  0.00    +0.000 Cl
ATOM     22  C   UNL     1      -2.250  10.334  17.407  0.00  0.00    +0.000 A 
ATOM     23  C   UNL     1      -1.013  10.079  18.000  0.00  0.00    +0.000 A 
ENDBRANCH  15  17
ENDBRANCH   2  15
BRANCH   8  24
ATOM     24  C   UNL     1       4.134   4.095  17.972  0.00  0.00    +0.000 C 
ATOM     25  O   UNL     1       3.901   3.900  16.786  0.00  0.00    +0.000 OA
BRANCH  24  26
ATOM     26  O   UNL     1       5.129   3.453  18.618  0.00  0.00    +0.000 OA
ATOM     27  H   UNL     1       5.224   2.498  18.385  0.00  0.00    +0.000 HD
ENDBRANCH  24  26
ENDBRANCH   8  24
TORSDOF 5
ENDMDL
