MODEL 1
REMARK VINA RESULT:      -8.2      0.000      0.000
REMARK  Name = 
REMARK  4 active torsions:
REMARK  status: ('A' for Active; 'I' for Inactive)
REMARK    1  A    between atoms: C_1  and  N_2
REMARK    2  A    between atoms: C_3  and  C_5
REMARK    3  A    between atoms: C_8  and  C_9
REMARK    4  A    between atoms: C_9  and  N_10
REMARK                            x       y       z     vdW  Elec       q    Type
REMARK                         _______ _______ _______ _____ _____    ______ ____
ROOT
ATOM      1  C   UNL     1       6.747   4.453  17.740  0.00  0.00    +0.000 C 
ENDROOT
BRANCH   1   2
ATOM      2  N   UNL     1       5.425   4.708  18.303  0.00  0.00    +0.000 N 
ATOM      3  N   UNL     1       4.832   5.907  17.965  0.00  0.00    +0.000 NA
ATOM      4  C   UNL     1       3.653   6.162  18.437  0.00  0.00    +0.000 A 
ATOM      5  C   UNL     1       2.901   5.256  19.293  0.00  0.00    +0.000 A 
ATOM      6  C   UNL     1       1.617   5.581  19.732  0.00  0.00    +0.000 A 
ATOM      7  C   UNL     1       0.919   4.668  20.524  0.00  0.00    +0.000 A 
ATOM      8  C   UNL     1       1.508   3.451  20.879  0.00  0.00    +0.000 A 
ATOM      9  C   UNL     1       2.798   3.141  20.442  0.00  0.00    +0.000 A 
ATOM     10  C   UNL     1       3.494   4.050  19.641  0.00  0.00    +0.000 A 
ATOM     11  C   UNL     1       4.845   3.750  19.134  0.00  0.00    +0.000 A 
ATOM     12  O   UNL     1       5.386   2.692  19.440  0.00  0.00    +0.000 OA
ENDBRANCH   1   2
BRANCH   1  16
ATOM     13  C   UNL     1       6.592   4.331  14.169  0.00  0.00    +0.000 A 
ATOM     14  N   UNL     1       7.431   5.368  14.325  0.00  0.00    +0.000 NA
ATOM     15  O   UNL     1       7.518   5.519  15.705  0.00  0.00    +0.000 OA
ATOM     16  C   UNL     1       6.722   4.559  16.260  0.00  0.00    +0.000 A 
ATOM     17  N   UNL     1       6.119   3.804  15.363  0.00  0.00    +0.000 NA
BRANCH  13  20
ATOM     18  C   UNL     1       4.350   3.077  11.446  0.00  0.00    +0.000 C 
ATOM     19  N   UNL     1       4.879   3.682  12.636  0.00  0.00    +0.000 N 
ATOM     20  C   UNL     1       6.241   3.769  12.856  0.00  0.00    +0.000 C 
ATOM     21  O   UNL     1       7.069   3.391  12.029  0.00  0.00    +0.000 OA
ATOM     22  H   UNL     1       4.265   3.959  13.398  0.00  0.00    +0.000 HD
ENDBRANCH  13  20
ENDBRANCH   1  16
TORSDOF 3
ENDMDL
MODEL 2
REMARK VINA RESULT:      -8.1      1.351      1.574
REMARK  Name = 
REMARK  4 active torsions:
REMARK  status: ('A' for Active; 'I' for Inactive)
REMARK    1  A    between atoms: C_1  and  N_2
REMARK    2  A    between atoms: C_3  and  C_5
REMARK    3  A    between atoms: C_8  and  C_9
REMARK    4  A    between atoms: C_9  and  N_10
REMARK                            x       y       z     vdW  Elec       q    Type
REMARK                         _______ _______ _______ _____ _____    ______ ____
ROOT
ATOM      1  C   UNL     1       6.562   4.553  17.507  0.00  0.00    +0.000 C 
ENDROOT
BRANCH   1   2
ATOM      2  N   UNL     1       5.189   4.213  17.863  0.00  0.00    +0.000 N 
ATOM      3  N   UNL     1       4.519   3.372  16.998  0.00  0.00    +0.000 NA
ATOM      4  C   UNL     1       3.301   3.038  17.288  0.00  0.00    +0.000 A 
ATOM      5  C   UNL     1       2.594   3.481  18.481  0.00  0.00    +0.000 A 
ATOM      6  C   UNL     1       1.295   3.048  18.749  0.00  0.00    +0.000 A 
ATOM      7  C   UNL     1       0.666   3.472  19.921  0.00  0.00    +0.000 A 
ATOM      8  C   UNL     1       1.330   4.327  20.805  0.00  0.00    +0.000 A 
ATOM      9  C   UNL     1       2.626   4.763  20.521  0.00  0.00    +0.000 A 
ATOM     10  C   UNL     1       3.261   4.331  19.352  0.00  0.00    +0.000 A 
ATOM     11  C   UNL     1       4.638   4.742  19.030  0.00  0.00    +0.000 A 
ATOM     12  O   UNL     1       5.238   5.501  19.786  0.00  0.00    +0.000 OA
ENDBRANCH   1   2
BRANCH   1  16
ATOM     13  C   UNL     1       6.873   4.404  13.948  0.00  0.00    +0.000 A 
ATOM     14  N   UNL     1       7.624   5.490  14.197  0.00  0.00    +0.000 NA
ATOM     15  O   UNL     1       7.524   5.653  15.574  0.00  0.00    +0.000 OA
ATOM     16  C   UNL     1       6.721   4.650  16.035  0.00  0.00    +0.000 A 
ATOM     17  N   UNL     1       6.282   3.857  15.079  0.00  0.00    +0.000 NA
BRANCH  13  20
ATOM     18  C   UNL     1       5.712   1.949  11.371  0.00  0.00    +0.000 C 
ATOM     19  N   UNL     1       5.901   2.707  12.577  0.00  0.00    +0.000 N 
ATOM     20  C   UNL     1       6.726   3.816  12.608  0.00  0.00    +0.000 C 
ATOM     21  O   UNL     1       7.293   4.246  11.605  0.00  0.00    +0.000 OA
ATOM     22  H   UNL     1       5.523   2.382  13.462  0.00  0.00    +0.000 HD
ENDBRANCH  13  20
ENDBRANCH   1  16
TORSDOF 3
ENDMDL
MODEL 3
REMARK VINA RESULT:      -8.0      0.961      1.096
REMARK  Name = 
REMARK  4 active torsions:
REMARK  status: ('A' for Active; 'I' for Inactive)
REMARK    1  A    between atoms: C_1  and  N_2
REMARK    2  A    between atoms: C_3  and  C_5
REMARK    3  A    between atoms: C_8  and  C_9
REMARK    4  A    between atoms: C_9  and  N_10
REMARK                            x       y       z     vdW  Elec       q    Type
REMARK                         _______ _______ _______ _____ _____    ______ ____
ROOT
ATOM      1  C   UNL     1       7.101   4.834  17.041  0.00  0.00    +0.000 C 
ENDROOT
BRANCH   1   2
ATOM      2  N   UNL     1       5.882   5.333  17.669  0.00  0.00    +0.000 N 
ATOM      3  N   UNL     1       5.365   6.509  17.163  0.00  0.00    +0.000 NA
ATOM      4  C   UNL     1       4.276   6.975  17.688  0.00  0.00    +0.000 A 
ATOM      5  C   UNL     1       3.550   6.331  18.773  0.00  0.00    +0.000 A 
ATOM      6  C   UNL     1       2.360   6.871  19.262  0.00  0.00    +0.000 A 
ATOM      7  C   UNL     1       1.679   6.203  20.281  0.00  0.00    +0.000 A 
ATOM      8  C   UNL     1       2.193   5.014  20.807  0.00  0.00    +0.000 A 
ATOM      9  C   UNL     1       3.390   4.488  20.316  0.00  0.00    +0.000 A 
ATOM     10  C   UNL     1       4.068   5.152  19.289  0.00  0.00    +0.000 A 
ATOM     11  C   UNL     1       5.318   4.615  18.723  0.00  0.00    +0.000 A 
ATOM     12  O   UNL     1       5.793   3.578  19.175  0.00  0.00    +0.000 OA
ENDBRANCH   1   2
BRANCH   1  16
ATOM     13  C   UNL     1       6.583   4.166  13.566  0.00  0.00    +0.000 A 
ATOM     14  N   UNL     1       7.454   5.185  13.475  0.00  0.00    +0.000 NA
ATOM     15  O   UNL     1       7.682   5.545  14.799  0.00  0.00    +0.000 OA
ATOM     16  C   UNL     1       6.928   4.711  15.572  0.00  0.00    +0.000 A 
ATOM     17  N   UNL     1       6.223   3.848  14.868  0.00  0.00    +0.000 NA
BRANCH  13  20
ATOM     18  C   UNL     1       4.075   2.921  11.081  0.00  0.00    +0.000 C 
ATOM     19  N   UNL     1       4.751   3.634  12.129  0.00  0.00    +0.000 N 
ATOM     20  C   UNL     1       6.090   3.421  12.398  0.00  0.00    +0.000 C 
ATOM     21  O   UNL     1       6.786   2.662  11.726  0.00  0.00    +0.000 OA
ATOM     22  H   UNL     1       4.235   4.228  12.772  0.00  0.00    +0.000 HD
ENDBRANCH  13  20
ENDBRANCH   1  16
TORSDOF 3
ENDMDL
MODEL 4
REMARK VINA RESULT:      -7.9      1.321      1.407
REMARK  Name = 
REMARK  4 active torsions:
REMARK  status: ('A' for Active; 'I' for Inactive)
REMARK    1  A    between atoms: C_1  and  N_2
REMARK    2  A    between atoms: C_3  and  C_5
REMARK    3  A    between atoms: C_8  and  C_9
REMARK    4  A    between atoms: C_9  and  N_10
REMARK                            x       y       z     vdW  Elec       q    Type
REMARK                         _______ _______ _______ _____ _____    ______ ____
ROOT
ATOM      1  C   UNL     1       5.947   6.386  17.562  0.00  0.00    +0.000 C 
ENDROOT
BRANCH   1   2
ATOM      2  N   UNL     1       4.741   5.823  18.160  0.00  0.00    +0.000 N 
ATOM      3  N   UNL     1       3.551   6.452  17.854  0.00  0.00    +0.000 NA
ATOM      4  C   UNL     1       2.457   5.973  18.356  0.00  0.00    +0.000 A 
ATOM      5  C   UNL     1       2.398   4.799  19.215  0.00  0.00    +0.000 A 
ATOM      6  C   UNL     1       1.178   4.315  19.688  0.00  0.00    +0.000 A 
ATOM      7  C   UNL     1       1.164   3.167  20.482  0.00  0.00    +0.000 A 
ATOM      8  C   UNL     1       2.361   2.522  20.804  0.00  0.00    +0.000 A 
ATOM      9  C   UNL     1       3.578   3.021  20.334  0.00  0.00    +0.000 A 
ATOM     10  C   UNL     1       3.592   4.165  19.530  0.00  0.00    +0.000 A 
ATOM     11  C   UNL     1       4.850   4.707  18.989  0.00  0.00    +0.000 A 
ATOM     12  O   UNL     1       5.914   4.163  19.266  0.00  0.00    +0.000 OA
ENDBRANCH   1   2
BRANCH   1  16
ATOM     13  C   UNL     1       6.277   4.706  14.423  0.00  0.00    +0.000 A 
ATOM     14  N   UNL     1       7.538   5.142  14.581  0.00  0.00    +0.000 NA
ATOM     15  O   UNL     1       7.494   5.854  15.774  0.00  0.00    +0.000 OA
ATOM     16  C   UNL     1       6.209   5.786  16.230  0.00  0.00    +0.000 A 
ATOM     17  N   UNL     1       5.413   5.101  15.435  0.00  0.00    +0.000 NA
BRANCH  13  20
ATOM     18  C   UNL     1       6.693   2.380  11.519  0.00  0.00    +0.000 C 
ATOM     19  N   UNL     1       6.904   3.192  12.686  0.00  0.00    +0.000 N 
ATOM     20  C   UNL     1       5.856   3.848  13.305  0.00  0.00    +0.000 C 
ATOM     21  O   UNL     1       4.690   3.729  12.932  0.00  0.00    +0.000 OA
ATOM     22  H   UNL     1       7.843   3.395  13.017  0.00  0.00    +0.000 HD
ENDBRANCH  13  20
ENDBRANCH   1  16
TORSDOF 3
ENDMDL
MODEL 5
REMARK VINA RESULT:      -7.9      1.544      2.178
REMARK  Name = 
REMARK  4 active torsions:
REMARK  status: ('A' for Active; 'I' for Inactive)
REMARK    1  A    between atoms: C_1  and  N_2
REMARK    2  A    between atoms: C_3  and  C_5
REMARK    3  A    between atoms: C_8  and  C_9
REMARK    4  A    between atoms: C_9  and  N_10
REMARK                            x       y       z     vdW  Elec       q    Type
REMARK                         _______ _______ _______ _____ _____    ______ ____
ROOT
ATOM      1  C   UNL     1       7.191   4.715  17.251  0.00  0.00    +0.000 C 
ENDROOT
BRANCH   1   2
ATOM      2  N   UNL     1       5.964   4.705  18.040  0.00  0.00    +0.000 N 
ATOM      3  N   UNL     1       5.688   3.546  18.736  0.00  0.00    +0.000 NA
ATOM      4  C   UNL     1       4.614   3.506  19.458  0.00  0.00    +0.000 A 
ATOM      5  C   UNL     1       3.679   4.614  19.596  0.00  0.00    +0.000 A 
ATOM      6  C   UNL     1       2.561   4.512  20.424  0.00  0.00    +0.000 A 
ATOM      7  C   UNL     1       1.708   5.610  20.552  0.00  0.00    +0.000 A 
ATOM      8  C   UNL     1       1.972   6.789  19.849  0.00  0.00    +0.000 A 
ATOM      9  C   UNL     1       3.088   6.876  19.015  0.00  0.00    +0.000 A 
ATOM     10  C   UNL     1       3.948   5.780  18.894  0.00  0.00    +0.000 A 
ATOM     11  C   UNL     1       5.153   5.840  18.048  0.00  0.00    +0.000 A 
ATOM     12  O   UNL     1       5.400   6.861  17.414  0.00  0.00    +0.000 OA
ENDBRANCH   1   2
BRANCH   1  16
ATOM     13  C   UNL     1       6.372   4.116  13.822  0.00  0.00    +0.000 A 
ATOM     14  N   UNL     1       7.228   5.141  13.675  0.00  0.00    +0.000 NA
ATOM     15  O   UNL     1       7.572   5.474  14.981  0.00  0.00    +0.000 OA
ATOM     16  C   UNL     1       6.891   4.621  15.800  0.00  0.00    +0.000 A 
ATOM     17  N   UNL     1       6.128   3.770  15.144  0.00  0.00    +0.000 NA
BRANCH  13  20
ATOM     18  C   UNL     1       6.227   1.657  11.002  0.00  0.00    +0.000 C 
ATOM     19  N   UNL     1       6.601   2.407  12.170  0.00  0.00    +0.000 N 
ATOM     20  C   UNL     1       5.780   3.393  12.686  0.00  0.00    +0.000 C 
ATOM     21  O   UNL     1       4.672   3.642  12.216  0.00  0.00    +0.000 OA
ATOM     22  H   UNL     1       7.526   2.309  12.578  0.00  0.00    +0.000 HD
ENDBRANCH  13  20
ENDBRANCH   1  16
TORSDOF 3
ENDMDL
MODEL 6
REMARK VINA RESULT:      -7.9      1.525      2.127
REMARK  Name = 
REMARK  4 active torsions:
REMARK  status: ('A' for Active; 'I' for Inactive)
REMARK    1  A    between atoms: C_1  and  N_2
REMARK    2  A    between atoms: C_3  and  C_5
REMARK    3  A    between atoms: C_8  and  C_9
REMARK    4  A    between atoms: C_9  and  N_10
REMARK                            x       y       z     vdW  Elec       q    Type
REMARK                         _______ _______ _______ _____ _____    ______ ____
ROOT
ATOM      1  C   UNL     1       5.132   6.681  17.114  0.00  0.00    +0.000 C 
ENDROOT
BRANCH   1   2
ATOM      2  N   UNL     1       4.587   5.643  17.982  0.00  0.00    +0.000 N 
ATOM      3  N   UNL     1       5.428   4.593  18.291  0.00  0.00    +0.000 NA
ATOM      4  C   UNL     1       4.982   3.659  19.070  0.00  0.00    +0.000 A 
ATOM      5  C   UNL     1       3.649   3.650  19.656  0.00  0.00    +0.000 A 
ATOM      6  C   UNL     1       3.251   2.629  20.519  0.00  0.00    +0.000 A 
ATOM      7  C   UNL     1       1.975   2.676  21.084  0.00  0.00    +0.000 A 
ATOM      8  C   UNL     1       1.110   3.730  20.776  0.00  0.00    +0.000 A 
ATOM      9  C   UNL     1       1.516   4.741  19.902  0.00  0.00    +0.000 A 
ATOM     10  C   UNL     1       2.797   4.699  19.344  0.00  0.00    +0.000 A 
ATOM     11  C   UNL     1       3.275   5.761  18.442  0.00  0.00    +0.000 A 
ATOM     12  O   UNL     1       2.530   6.691  18.150  0.00  0.00    +0.000 OA
ENDBRANCH   1   2
BRANCH   1  16
ATOM     13  C   UNL     1       6.707   5.075  14.334  0.00  0.00    +0.000 A 
ATOM     14  N   UNL     1       7.775   5.254  15.129  0.00  0.00    +0.000 NA
ATOM     15  O   UNL     1       7.258   5.922  16.233  0.00  0.00    +0.000 OA
ATOM     16  C   UNL     1       5.922   6.087  16.007  0.00  0.00    +0.000 A 
ATOM     17  N   UNL     1       5.528   5.595  14.850  0.00  0.00    +0.000 NA
BRANCH  13  20
ATOM     18  C   UNL     1       5.888   2.397  11.850  0.00  0.00    +0.000 C 
ATOM     19  N   UNL     1       5.903   3.274  12.988  0.00  0.00    +0.000 N 
ATOM     20  C   UNL     1       6.767   4.351  13.056  0.00  0.00    +0.000 C 
ATOM     21  O   UNL     1       7.522   4.650  12.133  0.00  0.00    +0.000 OA
ATOM     22  H   UNL     1       5.358   3.059  13.819  0.00  0.00    +0.000 HD
ENDBRANCH  13  20
ENDBRANCH   1  16
TORSDOF 3
ENDMDL
MODEL 7
REMARK VINA RESULT:      -7.8      1.795      2.485
REMARK  Name = 
REMARK  4 active torsions:
REMARK  status: ('A' for Active; 'I' for Inactive)
REMARK    1  A    between atoms: C_1  and  N_2
REMARK    2  A    between atoms: C_3  and  C_5
REMARK    3  A    between atoms: C_8  and  C_9
REMARK    4  A    between atoms: C_9  and  N_10
REMARK                            x       y       z     vdW  Elec       q    Type
REMARK                         _______ _______ _______ _____ _____    ______ ____
ROOT
ATOM      1  C   UNL     1       7.383   4.789  16.665  0.00  0.00    +0.000 C 
ENDROOT
BRANCH   1   2
ATOM      2  N   UNL     1       6.184   5.052  17.453  0.00  0.00    +0.000 N 
ATOM      3  N   UNL     1       5.897   4.151  18.458  0.00  0.00    +0.000 NA
ATOM      4  C   UNL     1       4.847   4.360  19.188  0.00  0.00    +0.000 A 
ATOM      5  C   UNL     1       3.952   5.497  19.025  0.00  0.00    +0.000 A 
ATOM      6  C   UNL     1       2.860   5.680  19.875  0.00  0.00    +0.000 A 
ATOM      7  C   UNL     1       2.047   6.801  19.704  0.00  0.00    +0.000 A 
ATOM      8  C   UNL     1       2.322   7.720  18.688  0.00  0.00    +0.000 A 
ATOM      9  C   UNL     1       3.411   7.522  17.837  0.00  0.00    +0.000 A 
ATOM     10  C   UNL     1       4.232   6.404  18.013  0.00  0.00    +0.000 A 
ATOM     11  C   UNL     1       5.409   6.173  17.157  0.00  0.00    +0.000 A 
ATOM     12  O   UNL     1       5.665   6.961  16.251  0.00  0.00    +0.000 OA
ENDBRANCH   1   2
BRANCH   1  16
ATOM     13  C   UNL     1       6.468   4.009  13.297  0.00  0.00    +0.000 A 
ATOM     14  N   UNL     1       7.356   4.991  13.070  0.00  0.00    +0.000 NA
ATOM     15  O   UNL     1       7.739   5.392  14.345  0.00  0.00    +0.000 OA
ATOM     16  C   UNL     1       7.047   4.616  15.230  0.00  0.00    +0.000 A 
ATOM     17  N   UNL     1       6.242   3.754  14.643  0.00  0.00    +0.000 NA
BRANCH  13  20
ATOM     18  C   UNL     1       3.747   3.001  10.931  0.00  0.00    +0.000 C 
ATOM     19  N   UNL     1       4.560   3.687  11.897  0.00  0.00    +0.000 N 
ATOM     20  C   UNL     1       5.827   3.238  12.221  0.00  0.00    +0.000 C 
ATOM     21  O   UNL     1       6.347   2.272  11.666  0.00  0.00    +0.000 OA
ATOM     22  H   UNL     1       4.181   4.452  12.448  0.00  0.00    +0.000 HD
ENDBRANCH  13  20
ENDBRANCH   1  16
TORSDOF 3
ENDMDL
MODEL 8
REMARK VINA RESULT:      -7.6      1.454      1.837
REMARK  Name = 
REMARK  4 active torsions:
REMARK  status: ('A' for Active; 'I' for Inactive)
REMARK    1  A    between atoms: C_1  and  N_2
REMARK    2  A    between atoms: C_3  and  C_5
REMARK    3  A    between atoms: C_8  and  C_9
REMARK    4  A    between atoms: C_9  and  N_10
REMARK                            x       y       z     vdW  Elec       q    Type
REMARK                         _______ _______ _______ _____ _____    ______ ____
ROOT
ATOM      1  C   UNL     1       6.190   5.653  19.265  0.00  0.00    +0.000 C 
ENDROOT
BRANCH   1   2
ATOM      2  N   UNL     1       4.800   5.229  19.399  0.00  0.00    +0.000 N 
ATOM      3  N   UNL     1       3.851   6.230  19.437  0.00  0.00    +0.000 NA
ATOM      4  C   UNL     1       2.605   5.891  19.542  0.00  0.00    +0.000 A 
ATOM      5  C   UNL     1       2.136   4.514  19.609  0.00  0.00    +0.000 A 
ATOM      6  C   UNL     1       0.774   4.222  19.682  0.00  0.00    +0.000 A 
ATOM      7  C   UNL     1       0.366   2.887  19.711  0.00  0.00    +0.000 A 
ATOM      8  C   UNL     1       1.316   1.862  19.678  0.00  0.00    +0.000 A 
ATOM      9  C   UNL     1       2.677   2.166  19.616  0.00  0.00    +0.000 A 
ATOM     10  C   UNL     1       3.086   3.503  19.577  0.00  0.00    +0.000 A 
ATOM     11  C   UNL     1       4.510   3.867  19.480  0.00  0.00    +0.000 A 
ATOM     12  O   UNL     1       5.363   2.984  19.460  0.00  0.00    +0.000 OA
ENDBRANCH   1   2
BRANCH   1  16
ATOM     13  C   UNL     1       7.136   4.825  15.918  0.00  0.00    +0.000 A 
ATOM     14  N   UNL     1       8.079   4.149  16.594  0.00  0.00    +0.000 NA
ATOM     15  O   UNL     1       7.813   4.453  17.925  0.00  0.00    +0.000 OA
ATOM     16  C   UNL     1       6.731   5.285  17.933  0.00  0.00    +0.000 A 
ATOM     17  N   UNL     1       6.278   5.557  16.726  0.00  0.00    +0.000 NA
BRANCH  13  20
ATOM     18  C   UNL     1       6.051   3.413  12.624  0.00  0.00    +0.000 C 
ATOM     19  N   UNL     1       6.227   3.690  14.023  0.00  0.00    +0.000 N 
ATOM     20  C   UNL     1       6.991   4.758  14.456  0.00  0.00    +0.000 C 
ATOM     21  O   UNL     1       7.509   5.557  13.678  0.00  0.00    +0.000 OA
ATOM     22  H   UNL     1       5.889   3.042  14.729  0.00  0.00    +0.000 HD
ENDBRANCH  13  20
ENDBRANCH   1  16
TORSDOF 3
ENDMDL
MODEL 9
REMARK VINA RESULT:      -7.6      1.117      1.775
REMARK  Name = 
REMARK  4 active torsions:
REMARK  status: ('A' for Active; 'I' for Inactive)
REMARK    1  A    between atoms: C_1  and  N_2
REMARK    2  A    between atoms: C_3  and  C_5
REMARK    3  A    between atoms: C_8  and  C_9
REMARK    4  A    between atoms: C_9  and  N_10
REMARK                            x       y       z     vdW  Elec       q    Type
REMARK                         _______ _______ _______ _____ _____    ______ ____
ROOT
ATOM      1  C   UNL     1       7.017   4.616  17.842  0.00  0.00    +0.000 C 
ENDROOT
BRANCH   1   2
ATOM      2  N   UNL     1       5.722   4.336  18.452  0.00  0.00    +0.000 N 
ATOM      3  N   UNL     1       5.471   3.022  18.790  0.00  0.00    +0.000 NA
ATOM      4  C   UNL     1       4.336   2.738  19.346  0.00  0.00    +0.000 A 
ATOM      5  C   UNL     1       3.307   3.722  19.653  0.00  0.00    +0.000 A 
ATOM      6  C   UNL     1       2.123   3.348  20.289  0.00  0.00    +0.000 A 
ATOM      7  C   UNL     1       1.177   4.329  20.594  0.00  0.00    +0.000 A 
ATOM      8  C   UNL     1       1.415   5.664  20.253  0.00  0.00    +0.000 A 
ATOM      9  C   UNL     1       2.599   6.024  19.606  0.00  0.00    +0.000 A 
ATOM     10  C   UNL     1       3.551   5.044  19.310  0.00  0.00    +0.000 A 
ATOM     11  C   UNL     1       4.826   5.385  18.656  0.00  0.00    +0.000 A 
ATOM     12  O   UNL     1       5.053   6.549  18.338  0.00  0.00    +0.000 OA
ENDBRANCH   1   2
BRANCH   1  16
ATOM     13  C   UNL     1       6.655   4.366  14.293  0.00  0.00    +0.000 A 
ATOM     14  N   UNL     1       7.506   5.403  14.362  0.00  0.00    +0.000 NA
ATOM     15  O   UNL     1       7.673   5.603  15.728  0.00  0.00    +0.000 OA
ATOM     16  C   UNL     1       6.907   4.669  16.363  0.00  0.00    +0.000 A 
ATOM     17  N   UNL     1       6.250   3.886  15.530  0.00  0.00    +0.000 NA
BRANCH  13  20
ATOM     18  C   UNL     1       4.254   3.219  11.660  0.00  0.00    +0.000 C 
ATOM     19  N   UNL     1       4.864   3.837  12.804  0.00  0.00    +0.000 N 
ATOM     20  C   UNL     1       6.227   3.760  13.023  0.00  0.00    +0.000 C 
ATOM     21  O   UNL     1       6.993   3.216  12.230  0.00  0.00    +0.000 OA
ATOM     22  H   UNL     1       4.296   4.248  13.540  0.00  0.00    +0.000 HD
ENDBRANCH  13  20
ENDBRANCH   1  16
TORSDOF 3
ENDMDL
