MODEL 1
REMARK VINA RESULT:      -7.5      0.000      0.000
REMARK  Name = 
REMARK  7 active torsions:
REMARK  status: ('A' for Active; 'I' for Inactive)
REMARK    1  A    between atoms: C_1  and  O_2
REMARK    2  A    between atoms: O_2  and  C_3
REMARK    3  A    between atoms: C_8  and  S_9
REMARK    4  A    between atoms: S_9  and  C_10
REMARK    5  A    between atoms: C_10  and  C_11
REMARK    6  A    between atoms: N_13  and  C_14
REMARK    7  A    between atoms: C_14  and  C_15
REMARK                            x       y       z     vdW  Elec       q    Type
REMARK                         _______ _______ _______ _____ _____    ______ ____
ROOT
ATOM      1  C   UNL     1       7.479   7.181  17.880  0.00  0.00    +0.000 C 
ATOM      2  C   UNL     1       7.320   5.921  18.761  0.00  0.00    +0.000 C 
ATOM      3  N   UNL     1       6.274   4.990  18.274  0.00  0.00    +0.000 NA
ATOM      4  C   UNL     1       6.591   4.671  16.859  0.00  0.00    +0.000 C 
ATOM      5  C   UNL     1       6.870   5.906  15.976  0.00  0.00    +0.000 C 
ATOM      6  O   UNL     1       7.862   6.767  16.553  0.00  0.00    +0.000 OA
ENDROOT
BRANCH   1   7
ATOM      7  C   UNL     1       8.548   8.105  18.490  0.00  0.00    +0.000 C 
BRANCH   7   8
ATOM      8  S   UNL     1       8.215   9.849  18.052  0.00  0.00    +0.000 S 
BRANCH   8  14
ATOM      9  C   UNL     1       9.827  11.186  20.067  0.00  0.00    +0.000 A 
ATOM     10  C   UNL     1      10.943  11.991  20.362  0.00  0.00    +0.000 A 
ATOM     11  C   UNL     1      11.847  12.367  19.368  0.00  0.00    +0.000 A 
ATOM     12  C   UNL     1      11.640  11.958  18.060  0.00  0.00    +0.000 A 
ATOM     13  C   UNL     1      10.516  11.192  17.748  0.00  0.00    +0.000 A 
ATOM     14  C   UNL     1       9.585  10.801  18.733  0.00  0.00    +0.000 A 
BRANCH   9  16
ATOM     15  C   UNL     1       8.619  11.766  22.031  0.00  0.00    +0.000 C 
ATOM     16  O   UNL     1       8.950  10.793  21.044  0.00  0.00    +0.000 OA
ENDBRANCH   9  16
ENDBRANCH   8  14
ENDBRANCH   7   8
ENDBRANCH   1   7
BRANCH   3  17
ATOM     17  C   UNL     1       4.907   5.532  18.384  0.00  0.00    +0.000 C 
BRANCH  17  18
ATOM     18  C   UNL     1       3.993   4.761  19.315  0.00  0.00    +0.000 A 
ATOM     19  C   UNL     1       2.918   5.409  19.946  0.00  0.00    +0.000 A 
ATOM     20  C   UNL     1       2.051   4.698  20.779  0.00  0.00    +0.000 A 
ATOM     21  C   UNL     1       2.256   3.336  20.988  0.00  0.00    +0.000 A 
ATOM     22 CL   UNL     1       1.174   2.457  21.997  0.00  0.00    +0.000 Cl
ATOM     23  C   UNL     1       3.327   2.682  20.382  0.00  0.00    +0.000 A 
ATOM     24  C   UNL     1       4.193   3.392  19.548  0.00  0.00    +0.000 A 
ENDBRANCH  17  18
ENDBRANCH   3  17
TORSDOF 6
ENDMDL
MODEL 2
REMARK VINA RESULT:      -7.2      5.161      7.665
REMARK  Name = 
REMARK  7 active torsions:
REMARK  status: ('A' for Active; 'I' for Inactive)
REMARK    1  A    between atoms: C_1  and  O_2
REMARK    2  A    between atoms: O_2  and  C_3
REMARK    3  A    between atoms: C_8  and  S_9
REMARK    4  A    between atoms: S_9  and  C_10
REMARK    5  A    between atoms: C_10  and  C_11
REMARK    6  A    between atoms: N_13  and  C_14
REMARK    7  A    between atoms: C_14  and  C_15
REMARK                            x       y       z     vdW  Elec       q    Type
REMARK                         _______ _______ _______ _____ _____    ______ ____
ROOT
ATOM      1  C   UNL     1       2.195   4.489  19.948  0.00  0.00    +0.000 C 
ATOM      2  C   UNL     1       2.157   4.735  18.423  0.00  0.00    +0.000 C 
ATOM      3  N   UNL     1       2.609   3.570  17.626  0.00  0.00    +0.000 NA
ATOM      4  C   UNL     1       1.791   2.404  18.044  0.00  0.00    +0.000 C 
ATOM      5  C   UNL     1       1.713   2.198  19.573  0.00  0.00    +0.000 C 
ATOM      6  O   UNL     1       1.311   3.393  20.257  0.00  0.00    +0.000 OA
ENDROOT
BRANCH   1   7
ATOM      7  C   UNL     1       1.756   5.766  20.688  0.00  0.00    +0.000 C 
BRANCH   7   8
ATOM      8  S   UNL     1       2.212   7.253  19.728  0.00  0.00    +0.000 S 
BRANCH   8  14
ATOM      9  C   UNL     1       0.672   9.717  19.777  0.00  0.00    +0.000 A 
ATOM     10  C   UNL     1       0.008  10.694  20.540  0.00  0.00    +0.000 A 
ATOM     11  C   UNL     1      -0.141  10.557  21.920  0.00  0.00    +0.000 A 
ATOM     12  C   UNL     1       0.387   9.448  22.561  0.00  0.00    +0.000 A 
ATOM     13  C   UNL     1       1.082   8.491  21.821  0.00  0.00    +0.000 A 
ATOM     14  C   UNL     1       1.249   8.607  20.425  0.00  0.00    +0.000 A 
BRANCH   9  16
ATOM     15  C   UNL     1       2.007  10.420  17.939  0.00  0.00    +0.000 C 
ATOM     16  O   UNL     1       0.799   9.834  18.417  0.00  0.00    +0.000 OA
ENDBRANCH   9  16
ENDBRANCH   8  14
ENDBRANCH   7   8
ENDBRANCH   1   7
BRANCH   3  17
ATOM     17  C   UNL     1       4.045   3.272  17.784  0.00  0.00    +0.000 C 
BRANCH  17  18
ATOM     18  C   UNL     1       4.956   4.482  17.710  0.00  0.00    +0.000 A 
ATOM     19  C   UNL     1       5.831   4.773  18.769  0.00  0.00    +0.000 A 
ATOM     20  C   UNL     1       6.697   5.867  18.693  0.00  0.00    +0.000 A 
ATOM     21  C   UNL     1       6.691   6.676  17.558  0.00  0.00    +0.000 A 
ATOM     22 CL   UNL     1       7.773   8.009  17.457  0.00  0.00    +0.000 Cl
ATOM     23  C   UNL     1       5.817   6.409  16.506  0.00  0.00    +0.000 A 
ATOM     24  C   UNL     1       4.952   5.315  16.581  0.00  0.00    +0.000 A 
ENDBRANCH  17  18
ENDBRANCH   3  17
TORSDOF 6
ENDMDL
MODEL 3
REMARK VINA RESULT:      -7.2      5.206      7.819
REMARK  Name = 
REMARK  7 active torsions:
REMARK  status: ('A' for Active; 'I' for Inactive)
REMARK    1  A    between atoms: C_1  and  O_2
REMARK    2  A    between atoms: O_2  and  C_3
REMARK    3  A    between atoms: C_8  and  S_9
REMARK    4  A    between atoms: S_9  and  C_10
REMARK    5  A    between atoms: C_10  and  C_11
REMARK    6  A    between atoms: N_13  and  C_14
REMARK    7  A    between atoms: C_14  and  C_15
REMARK                            x       y       z     vdW  Elec       q    Type
REMARK                         _______ _______ _______ _____ _____    ______ ____
ROOT
ATOM      1  C   UNL     1       2.174   4.593  20.046  0.00  0.00    +0.000 C 
ATOM      2  C   UNL     1       2.163   4.860  18.523  0.00  0.00    +0.000 C 
ATOM      3  N   UNL     1       2.555   3.681  17.716  0.00  0.00    +0.000 NA
ATOM      4  C   UNL     1       1.668   2.559  18.112  0.00  0.00    +0.000 C 
ATOM      5  C   UNL     1       1.566   2.338  19.637  0.00  0.00    +0.000 C 
ATOM      6  O   UNL     1       1.226   3.545  20.333  0.00  0.00    +0.000 OA
ENDROOT
BRANCH   1   7
ATOM      7  C   UNL     1       1.802   5.883  20.799  0.00  0.00    +0.000 C 
BRANCH   7   8
ATOM      8  S   UNL     1       2.081   7.347  19.740  0.00  0.00    +0.000 S 
BRANCH   8  14
ATOM      9  C   UNL     1       0.484   9.772  19.868  0.00  0.00    +0.000 A 
ATOM     10  C   UNL     1      -0.151  10.743  20.665  0.00  0.00    +0.000 A 
ATOM     11  C   UNL     1      -0.199  10.621  22.054  0.00  0.00    +0.000 A 
ATOM     12  C   UNL     1       0.401   9.533  22.669  0.00  0.00    +0.000 A 
ATOM     13  C   UNL     1       1.068   8.584  21.893  0.00  0.00    +0.000 A 
ATOM     14  C   UNL     1       1.134   8.686  20.487  0.00  0.00    +0.000 A 
BRANCH   9  16
ATOM     15  C   UNL     1      -0.738  10.097  17.854  0.00  0.00    +0.000 C 
ATOM     16  O   UNL     1       0.513   9.875  18.502  0.00  0.00    +0.000 OA
ENDBRANCH   9  16
ENDBRANCH   8  14
ENDBRANCH   7   8
ENDBRANCH   1   7
BRANCH   3  17
ATOM     17  C   UNL     1       3.970   3.300  17.881  0.00  0.00    +0.000 C 
BRANCH  17  18
ATOM     18  C   UNL     1       4.954   4.447  17.766  0.00  0.00    +0.000 A 
ATOM     19  C   UNL     1       5.011   5.214  16.590  0.00  0.00    +0.000 A 
ATOM     20  C   UNL     1       5.891   6.294  16.489  0.00  0.00    +0.000 A 
ATOM     21  C   UNL     1       6.721   6.612  17.563  0.00  0.00    +0.000 A 
ATOM     22 CL   UNL     1       7.788   7.955  17.445  0.00  0.00    +0.000 Cl
ATOM     23  C   UNL     1       6.688   5.851  18.730  0.00  0.00    +0.000 A 
ATOM     24  C   UNL     1       5.807   4.772  18.832  0.00  0.00    +0.000 A 
ENDBRANCH  17  18
ENDBRANCH   3  17
TORSDOF 6
ENDMDL
MODEL 4
REMARK VINA RESULT:      -7.1      5.226      7.605
REMARK  Name = 
REMARK  7 active torsions:
REMARK  status: ('A' for Active; 'I' for Inactive)
REMARK    1  A    between atoms: C_1  and  O_2
REMARK    2  A    between atoms: O_2  and  C_3
REMARK    3  A    between atoms: C_8  and  S_9
REMARK    4  A    between atoms: S_9  and  C_10
REMARK    5  A    between atoms: C_10  and  C_11
REMARK    6  A    between atoms: N_13  and  C_14
REMARK    7  A    between atoms: C_14  and  C_15
REMARK                            x       y       z     vdW  Elec       q    Type
REMARK                         _______ _______ _______ _____ _____    ______ ____
ROOT
ATOM      1  C   UNL     1       2.032   4.688  20.004  0.00  0.00    +0.000 C 
ATOM      2  C   UNL     1       2.050   4.765  18.461  0.00  0.00    +0.000 C 
ATOM      3  N   UNL     1       2.437   3.490  17.811  0.00  0.00    +0.000 NA
ATOM      4  C   UNL     1       1.527   2.437  18.326  0.00  0.00    +0.000 C 
ATOM      5  C   UNL     1       1.396   2.407  19.865  0.00  0.00    +0.000 C 
ATOM      6  O   UNL     1       1.063   3.695  20.401  0.00  0.00    +0.000 OA
ENDROOT
BRANCH   1   7
ATOM      7  C   UNL     1       1.668   6.065  20.586  0.00  0.00    +0.000 C 
BRANCH   7   8
ATOM      8  S   UNL     1       2.408   7.402  19.582  0.00  0.00    +0.000 S 
BRANCH   8  14
ATOM      9  C   UNL     1       0.685   9.412  20.780  0.00  0.00    +0.000 A 
ATOM     10  C   UNL     1      -0.261  10.438  20.595  0.00  0.00    +0.000 A 
ATOM     11  C   UNL     1      -0.610  10.878  19.319  0.00  0.00    +0.000 A 
ATOM     12  C   UNL     1      -0.032  10.288  18.206  0.00  0.00    +0.000 A 
ATOM     13  C   UNL     1       0.877   9.243  18.375  0.00  0.00    +0.000 A 
ATOM     14  C   UNL     1       1.246   8.777  19.654  0.00  0.00    +0.000 A 
BRANCH   9  16
ATOM     15  C   UNL     1       0.234   9.434  23.115  0.00  0.00    +0.000 C 
ATOM     16  O   UNL     1       1.051   8.993  22.033  0.00  0.00    +0.000 OA
ENDBRANCH   9  16
ENDBRANCH   8  14
ENDBRANCH   7   8
ENDBRANCH   1   7
BRANCH   3  17
ATOM     17  C   UNL     1       3.843   3.113  18.047  0.00  0.00    +0.000 C 
BRANCH  17  18
ATOM     18  C   UNL     1       4.838   4.246  17.890  0.00  0.00    +0.000 A 
ATOM     19  C   UNL     1       4.941   4.932  16.668  0.00  0.00    +0.000 A 
ATOM     20  C   UNL     1       5.831   5.999  16.526  0.00  0.00    +0.000 A 
ATOM     21  C   UNL     1       6.626   6.383  17.604  0.00  0.00    +0.000 A 
ATOM     22 CL   UNL     1       7.707   7.711  17.434  0.00  0.00    +0.000 Cl
ATOM     23  C   UNL     1       6.548   5.703  18.817  0.00  0.00    +0.000 A 
ATOM     24  C   UNL     1       5.656   4.637  18.961  0.00  0.00    +0.000 A 
ENDBRANCH  17  18
ENDBRANCH   3  17
TORSDOF 6
ENDMDL
MODEL 5
REMARK VINA RESULT:      -7.1      1.127      1.466
REMARK  Name = 
REMARK  7 active torsions:
REMARK  status: ('A' for Active; 'I' for Inactive)
REMARK    1  A    between atoms: C_1  and  O_2
REMARK    2  A    between atoms: O_2  and  C_3
REMARK    3  A    between atoms: C_8  and  S_9
REMARK    4  A    between atoms: S_9  and  C_10
REMARK    5  A    between atoms: C_10  and  C_11
REMARK    6  A    between atoms: N_13  and  C_14
REMARK    7  A    between atoms: C_14  and  C_15
REMARK                            x       y       z     vdW  Elec       q    Type
REMARK                         _______ _______ _______ _____ _____    ______ ____
ROOT
ATOM      1  C   UNL     1       7.413   7.382  18.132  0.00  0.00    +0.000 C 
ATOM      2  C   UNL     1       7.684   5.931  18.588  0.00  0.00    +0.000 C 
ATOM      3  N   UNL     1       6.515   5.034  18.429  0.00  0.00    +0.000 NA
ATOM      4  C   UNL     1       6.080   5.122  17.012  0.00  0.00    +0.000 C 
ATOM      5  C   UNL     1       5.910   6.565  16.488  0.00  0.00    +0.000 C 
ATOM      6  O   UNL     1       7.076   7.365  16.729  0.00  0.00    +0.000 OA
ENDROOT
BRANCH   1   7
ATOM      7  C   UNL     1       8.663   8.244  18.380  0.00  0.00    +0.000 C 
BRANCH   7   8
ATOM      8  S   UNL     1       8.317  10.000  18.008  0.00  0.00    +0.000 S 
BRANCH   8  14
ATOM      9  C   UNL     1       9.959  11.242  20.058  0.00  0.00    +0.000 A 
ATOM     10  C   UNL     1      11.068  12.049  20.374  0.00  0.00    +0.000 A 
ATOM     11  C   UNL     1      11.938  12.503  19.382  0.00  0.00    +0.000 A 
ATOM     12  C   UNL     1      11.703  12.170  18.057  0.00  0.00    +0.000 A 
ATOM     13  C   UNL     1      10.584  11.404  17.728  0.00  0.00    +0.000 A 
ATOM     14  C   UNL     1       9.688  10.935  18.711  0.00  0.00    +0.000 A 
BRANCH   9  16
ATOM     15  C   UNL     1       8.622  11.733  21.963  0.00  0.00    +0.000 C 
ATOM     16  O   UNL     1       9.116  10.773  21.032  0.00  0.00    +0.000 OA
ENDBRANCH   9  16
ENDBRANCH   8  14
ENDBRANCH   7   8
ENDBRANCH   1   7
BRANCH   3  17
ATOM     17  C   UNL     1       5.395   5.362  19.331  0.00  0.00    +0.000 C 
BRANCH  17  18
ATOM     18  C   UNL     1       4.146   4.530  19.119  0.00  0.00    +0.000 A 
ATOM     19  C   UNL     1       4.142   3.165  19.452  0.00  0.00    +0.000 A 
ATOM     20  C   UNL     1       2.984   2.399  19.292  0.00  0.00    +0.000 A 
ATOM     21  C   UNL     1       1.826   2.993  18.796  0.00  0.00    +0.000 A 
ATOM     22 CL   UNL     1       0.396   2.054  18.620  0.00  0.00    +0.000 Cl
ATOM     23  C   UNL     1       1.818   4.342  18.446  0.00  0.00    +0.000 A 
ATOM     24  C   UNL     1       2.975   5.109  18.608  0.00  0.00    +0.000 A 
ENDBRANCH  17  18
ENDBRANCH   3  17
TORSDOF 6
ENDMDL
MODEL 6
REMARK VINA RESULT:      -6.9      5.916      8.166
REMARK  Name = 
REMARK  7 active torsions:
REMARK  status: ('A' for Active; 'I' for Inactive)
REMARK    1  A    between atoms: C_1  and  O_2
REMARK    2  A    between atoms: O_2  and  C_3
REMARK    3  A    between atoms: C_8  and  S_9
REMARK    4  A    between atoms: S_9  and  C_10
REMARK    5  A    between atoms: C_10  and  C_11
REMARK    6  A    between atoms: N_13  and  C_14
REMARK    7  A    between atoms: C_14  and  C_15
REMARK                            x       y       z     vdW  Elec       q    Type
REMARK                         _______ _______ _______ _____ _____    ______ ____
ROOT
ATOM      1  C   UNL     1       2.243   4.924  20.370  0.00  0.00    +0.000 C 
ATOM      2  C   UNL     1       2.236   4.978  18.826  0.00  0.00    +0.000 C 
ATOM      3  N   UNL     1       3.019   3.891  18.194  0.00  0.00    +0.000 NA
ATOM      4  C   UNL     1       2.504   2.605  18.729  0.00  0.00    +0.000 C 
ATOM      5  C   UNL     1       2.389   2.558  20.268  0.00  0.00    +0.000 C 
ATOM      6  O   UNL     1       1.653   3.675  20.787  0.00  0.00    +0.000 OA
ENDROOT
BRANCH   1   7
ATOM      7  C   UNL     1       1.448   6.115  20.933  0.00  0.00    +0.000 C 
BRANCH   7   8
ATOM      8  S   UNL     1       1.897   7.657  20.060  0.00  0.00    +0.000 S 
BRANCH   8  14
ATOM      9  C   UNL     1       0.109   9.947  20.076  0.00  0.00    +0.000 A 
ATOM     10  C   UNL     1      -0.614  10.892  20.827  0.00  0.00    +0.000 A 
ATOM     11  C   UNL     1      -0.674  10.818  22.219  0.00  0.00    +0.000 A 
ATOM     12  C   UNL     1       0.002   9.806  22.882  0.00  0.00    +0.000 A 
ATOM     13  C   UNL     1       0.755   8.886  22.152  0.00  0.00    +0.000 A 
ATOM     14  C   UNL     1       0.834   8.941  20.744  0.00  0.00    +0.000 A 
BRANCH   9  16
ATOM     15  C   UNL     1      -1.068  10.333  18.047  0.00  0.00    +0.000 C 
ATOM     16  O   UNL     1       0.150  10.001  18.707  0.00  0.00    +0.000 OA
ENDBRANCH   9  16
ENDBRANCH   8  14
ENDBRANCH   7   8
ENDBRANCH   1   7
BRANCH   3  17
ATOM     17  C   UNL     1       4.471   3.999  18.429  0.00  0.00    +0.000 C 
BRANCH  17  18
ATOM     18  C   UNL     1       5.297   4.259  17.185  0.00  0.00    +0.000 A 
ATOM     19  C   UNL     1       4.713   4.148  15.912  0.00  0.00    +0.000 A 
ATOM     20  C   UNL     1       5.458   4.420  14.763  0.00  0.00    +0.000 A 
ATOM     21  C   UNL     1       6.793   4.801  14.880  0.00  0.00    +0.000 A 
ATOM     22 CL   UNL     1       7.704   5.156  13.464  0.00  0.00    +0.000 Cl
ATOM     23  C   UNL     1       7.392   4.901  16.134  0.00  0.00    +0.000 A 
ATOM     24  C   UNL     1       6.646   4.631  17.284  0.00  0.00    +0.000 A 
ENDBRANCH  17  18
ENDBRANCH   3  17
TORSDOF 6
ENDMDL
MODEL 7
REMARK VINA RESULT:      -6.9      6.499      9.763
REMARK  Name = 
REMARK  7 active torsions:
REMARK  status: ('A' for Active; 'I' for Inactive)
REMARK    1  A    between atoms: C_1  and  O_2
REMARK    2  A    between atoms: O_2  and  C_3
REMARK    3  A    between atoms: C_8  and  S_9
REMARK    4  A    between atoms: S_9  and  C_10
REMARK    5  A    between atoms: C_10  and  C_11
REMARK    6  A    between atoms: N_13  and  C_14
REMARK    7  A    between atoms: C_14  and  C_15
REMARK                            x       y       z     vdW  Elec       q    Type
REMARK                         _______ _______ _______ _____ _____    ______ ____
ROOT
ATOM      1  C   UNL     1       0.523   9.444  20.908  0.00  0.00    +0.000 C 
ATOM      2  C   UNL     1       0.658   9.827  19.417  0.00  0.00    +0.000 C 
ATOM      3  N   UNL     1      -0.113  11.037  19.047  0.00  0.00    +0.000 NA
ATOM      4  C   UNL     1       0.307  12.127  19.964  0.00  0.00    +0.000 C 
ATOM      5  C   UNL     1       0.294  11.739  21.459  0.00  0.00    +0.000 C 
ATOM      6  O   UNL     1       1.029  10.533  21.708  0.00  0.00    +0.000 OA
ENDROOT
BRANCH   1   7
ATOM      7  C   UNL     1       1.316   8.154  21.184  0.00  0.00    +0.000 C 
BRANCH   7   8
ATOM      8  S   UNL     1       2.119   7.555  19.655  0.00  0.00    +0.000 S 
BRANCH   8  14
ATOM      9  C   UNL     1       3.562   5.033  19.586  0.00  0.00    +0.000 A 
ATOM     10  C   UNL     1       3.554   3.646  19.825  0.00  0.00    +0.000 A 
ATOM     11  C   UNL     1       2.463   3.022  20.430  0.00  0.00    +0.000 A 
ATOM     12  C   UNL     1       1.356   3.773  20.791  0.00  0.00    +0.000 A 
ATOM     13  C   UNL     1       1.335   5.142  20.524  0.00  0.00    +0.000 A 
ATOM     14  C   UNL     1       2.424   5.798  19.911  0.00  0.00    +0.000 A 
BRANCH   9  16
ATOM     15  C   UNL     1       5.894   4.984  19.125  0.00  0.00    +0.000 C 
ATOM     16  O   UNL     1       4.641   5.655  19.015  0.00  0.00    +0.000 OA
ENDBRANCH   9  16
ENDBRANCH   8  14
ENDBRANCH   7   8
ENDBRANCH   1   7
BRANCH   3  17
ATOM     17  C   UNL     1      -1.574  10.846  19.114  0.00  0.00    +0.000 C 
BRANCH  17  18
ATOM     18  C   UNL     1      -2.252  10.670  17.769  0.00  0.00    +0.000 A 
ATOM     19  C   UNL     1      -1.760   9.731  16.847  0.00  0.00    +0.000 A 
ATOM     20  C   UNL     1      -2.399   9.539  15.620  0.00  0.00    +0.000 A 
ATOM     21  C   UNL     1      -3.533  10.287  15.307  0.00  0.00    +0.000 A 
ATOM     22 CL   UNL     1      -4.331  10.034  13.805  0.00  0.00    +0.000 Cl
ATOM     23  C   UNL     1      -4.024  11.233  16.204  0.00  0.00    +0.000 A 
ATOM     24  C   UNL     1      -3.386  11.425  17.432  0.00  0.00    +0.000 A 
ENDBRANCH  17  18
ENDBRANCH   3  17
TORSDOF 6
ENDMDL
MODEL 8
REMARK VINA RESULT:      -6.9      5.891      8.201
REMARK  Name = 
REMARK  7 active torsions:
REMARK  status: ('A' for Active; 'I' for Inactive)
REMARK    1  A    between atoms: C_1  and  O_2
REMARK    2  A    between atoms: O_2  and  C_3
REMARK    3  A    between atoms: C_8  and  S_9
REMARK    4  A    between atoms: S_9  and  C_10
REMARK    5  A    between atoms: C_10  and  C_11
REMARK    6  A    between atoms: N_13  and  C_14
REMARK    7  A    between atoms: C_14  and  C_15
REMARK                            x       y       z     vdW  Elec       q    Type
REMARK                         _______ _______ _______ _____ _____    ______ ____
ROOT
ATOM      1  C   UNL     1       2.077   5.090  20.562  0.00  0.00    +0.000 C 
ATOM      2  C   UNL     1       2.147   4.589  19.102  0.00  0.00    +0.000 C 
ATOM      3  N   UNL     1       3.154   3.522  18.892  0.00  0.00    +0.000 NA
ATOM      4  C   UNL     1       2.858   2.438  19.862  0.00  0.00    +0.000 C 
ATOM      5  C   UNL     1       2.667   2.920  21.316  0.00  0.00    +0.000 C 
ATOM      6  O   UNL     1       1.707   3.983  21.409  0.00  0.00    +0.000 OA
ENDROOT
BRANCH   1   7
ATOM      7  C   UNL     1       1.043   6.225  20.670  0.00  0.00    +0.000 C 
BRANCH   7   8
ATOM      8  S   UNL     1       1.831   7.845  20.360  0.00  0.00    +0.000 S 
BRANCH   8  14
ATOM      9  C   UNL     1       0.007  10.106  20.391  0.00  0.00    +0.000 A 
ATOM     10  C   UNL     1      -0.768  11.004  21.148  0.00  0.00    +0.000 A 
ATOM     11  C   UNL     1      -0.897  10.863  22.530  0.00  0.00    +0.000 A 
ATOM     12  C   UNL     1      -0.239   9.830  23.179  0.00  0.00    +0.000 A 
ATOM     13  C   UNL     1       0.565   8.957  22.445  0.00  0.00    +0.000 A 
ATOM     14  C   UNL     1       0.714   9.079  21.047  0.00  0.00    +0.000 A 
BRANCH   9  16
ATOM     15  C   UNL     1      -0.987  10.823  18.354  0.00  0.00    +0.000 C 
ATOM     16  O   UNL     1       0.116  10.226  19.030  0.00  0.00    +0.000 OA
ENDBRANCH   9  16
ENDBRANCH   8  14
ENDBRANCH   7   8
ENDBRANCH   1   7
BRANCH   3  17
ATOM     17  C   UNL     1       4.544   3.987  19.052  0.00  0.00    +0.000 C 
BRANCH  17  18
ATOM     18  C   UNL     1       5.267   4.282  17.752  0.00  0.00    +0.000 A 
ATOM     19  C   UNL     1       6.655   4.498  17.749  0.00  0.00    +0.000 A 
ATOM     20  C   UNL     1       7.334   4.736  16.552  0.00  0.00    +0.000 A 
ATOM     21  C   UNL     1       6.627   4.761  15.351  0.00  0.00    +0.000 A 
ATOM     22 CL   UNL     1       7.467   5.033  13.875  0.00  0.00    +0.000 Cl
ATOM     23  C   UNL     1       5.248   4.565  15.339  0.00  0.00    +0.000 A 
ATOM     24  C   UNL     1       4.569   4.325  16.536  0.00  0.00    +0.000 A 
ENDBRANCH  17  18
ENDBRANCH   3  17
TORSDOF 6
ENDMDL
MODEL 9
REMARK VINA RESULT:      -6.8      5.666      8.139
REMARK  Name = 
REMARK  7 active torsions:
REMARK  status: ('A' for Active; 'I' for Inactive)
REMARK    1  A    between atoms: C_1  and  O_2
REMARK    2  A    between atoms: O_2  and  C_3
REMARK    3  A    between atoms: C_8  and  S_9
REMARK    4  A    between atoms: S_9  and  C_10
REMARK    5  A    between atoms: C_10  and  C_11
REMARK    6  A    between atoms: N_13  and  C_14
REMARK    7  A    between atoms: C_14  and  C_15
REMARK                            x       y       z     vdW  Elec       q    Type
REMARK                         _______ _______ _______ _____ _____    ______ ____
ROOT
ATOM      1  C   UNL     1       2.496   6.609  19.680  0.00  0.00    +0.000 C 
ATOM      2  C   UNL     1       2.350   5.756  18.399  0.00  0.00    +0.000 C 
ATOM      3  N   UNL     1       2.854   4.371  18.552  0.00  0.00    +0.000 NA
ATOM      4  C   UNL     1       2.164   3.776  19.724  0.00  0.00    +0.000 C 
ATOM      5  C   UNL     1       2.191   4.657  20.992  0.00  0.00    +0.000 C 
ATOM      6  O   UNL     1       1.727   5.989  20.732  0.00  0.00    +0.000 OA
ENDROOT
BRANCH   1   7
ATOM      7  C   UNL     1       1.992   8.038  19.409  0.00  0.00    +0.000 C 
BRANCH   7   8
ATOM      8  S   UNL     1       1.116   8.698  20.871  0.00  0.00    +0.000 S 
BRANCH   8  14
ATOM      9  C   UNL     1      -0.537  11.086  20.960  0.00  0.00    +0.000 A 
ATOM     10  C   UNL     1      -1.394  11.970  20.280  0.00  0.00    +0.000 A 
ATOM     11  C   UNL     1      -1.629  11.841  18.911  0.00  0.00    +0.000 A 
ATOM     12  C   UNL     1      -1.022  10.815  18.203  0.00  0.00    +0.000 A 
ATOM     13  C   UNL     1      -0.201   9.908  18.874  0.00  0.00    +0.000 A 
ATOM     14  C   UNL     1       0.051  10.015  20.258  0.00  0.00    +0.000 A 
BRANCH   9  16
ATOM     15  C   UNL     1      -1.188  12.041  23.038  0.00  0.00    +0.000 C 
ATOM     16  O   UNL     1      -0.283  11.224  22.300  0.00  0.00    +0.000 OA
ENDBRANCH   9  16
ENDBRANCH   8  14
ENDBRANCH   7   8
ENDBRANCH   1   7
BRANCH   3  17
ATOM     17  C   UNL     1       4.316   4.294  18.725  0.00  0.00    +0.000 C 
BRANCH  17  18
ATOM     18  C   UNL     1       5.118   4.548  17.463  0.00  0.00    +0.000 A 
ATOM     19  C   UNL     1       6.230   5.406  17.494  0.00  0.00    +0.000 A 
ATOM     20  C   UNL     1       6.994   5.619  16.344  0.00  0.00    +0.000 A 
ATOM     21  C   UNL     1       6.648   4.976  15.156  0.00  0.00    +0.000 A 
ATOM     22 CL   UNL     1       7.602   5.222  13.746  0.00  0.00    +0.000 Cl
ATOM     23  C   UNL     1       5.538   4.135  15.106  0.00  0.00    +0.000 A 
ATOM     24  C   UNL     1       4.775   3.920  16.256  0.00  0.00    +0.000 A 
ENDBRANCH  17  18
ENDBRANCH   3  17
TORSDOF 6
ENDMDL
