MODEL 1
REMARK VINA RESULT:      -8.3      0.000      0.000
REMARK  Name = 
REMARK  7 active torsions:
REMARK  status: ('A' for Active; 'I' for Inactive)
REMARK    1  A    between atoms: C_1  and  N_2
REMARK    2  A    between atoms: N_2  and  C_3
REMARK    3  A    between atoms: C_7  and  C_8
REMARK    4  A    between atoms: C_11  and  C_12
REMARK    5  A    between atoms: C_12  and  O_13
REMARK    6  A    between atoms: C_12  and  C_14
REMARK    7  A    between atoms: C_12  and  C_20
REMARK                            x       y       z     vdW  Elec       q    Type
REMARK                         _______ _______ _______ _____ _____    ______ ____
ROOT
ATOM      1  C   UNL     1       3.244   5.796  18.755  0.00  0.00    +0.000 C 
ENDROOT
BRANCH   1   2
ATOM      2  C   UNL     1       4.761   5.929  18.472  0.00  0.00    +0.000 A 
ATOM      3  C   UNL     1       5.732   5.377  19.332  0.00  0.00    +0.000 A 
ATOM      4  C   UNL     1       7.099   5.538  19.083  0.00  0.00    +0.000 A 
ATOM      5  C   UNL     1       7.529   6.234  17.958  0.00  0.00    +0.000 A 
ATOM      6  C   UNL     1       6.594   6.742  17.064  0.00  0.00    +0.000 A 
ATOM      7  C   UNL     1       5.226   6.576  17.309  0.00  0.00    +0.000 A 
ENDBRANCH   1   2
BRANCH   1   8
ATOM      8  C   UNL     1       2.498   4.765  17.808  0.00  0.00    +0.000 C 
ATOM      9  C   UNL     1       3.393   3.644  17.223  0.00  0.00    +0.000 C 
ATOM     10  C   UNL     1       3.748   2.532  18.206  0.00  0.00    +0.000 C 
ATOM     11  C   UNL     1       2.520   1.940  18.888  0.00  0.00    +0.000 C 
ATOM     12  C   UNL     1       1.573   2.996  19.449  0.00  0.00    +0.000 C 
ATOM     13  C   UNL     1       1.253   4.077  18.422  0.00  0.00    +0.000 C 
ENDBRANCH   1   8
BRANCH   1  17
ATOM     14  C   UNL     1       1.657   8.989  19.511  0.00  0.00    +0.000 A 
ATOM     15  C   UNL     1       1.625   9.136  18.139  0.00  0.00    +0.000 A 
ATOM     16  C   UNL     1       2.203   7.965  17.593  0.00  0.00    +0.000 A 
ATOM     17  C   UNL     1       2.573   7.162  18.656  0.00  0.00    +0.000 A 
ATOM     18  O   UNL     1       2.204   7.780  19.827  0.00  0.00    +0.000 OA
BRANCH  14  25
ATOM     19  C   UNL     1      -0.535  11.634  21.153  0.00  0.00    +0.000 C 
ATOM     20  N   UNL     1      -0.321  10.204  20.664  0.00  0.00    +0.000 N 
ATOM     21  C   UNL     1      -1.002  10.063  19.313  0.00  0.00    +0.000 C 
ATOM     22  C   UNL     1      -0.892   9.192  21.653  0.00  0.00    +0.000 C 
ATOM     23  C   UNL     1       0.152   9.113  22.743  0.00  0.00    +0.000 C 
ATOM     24  C   UNL     1       1.486   9.252  22.027  0.00  0.00    +0.000 C 
ATOM     25  C   UNL     1       1.205   9.865  20.641  0.00  0.00    +0.000 C 
ENDBRANCH  14  25
ENDBRANCH   1  17
BRANCH   1  26
ATOM     26  O   UNL     1       3.068   5.381  20.115  0.00  0.00    +0.000 OA
ATOM     27  H   UNL     1       3.455   4.494  20.198  0.00  0.00    +0.000 HD
ENDBRANCH   1  26
TORSDOF 5
ENDMDL
MODEL 2
REMARK VINA RESULT:      -8.2      0.553      1.079
REMARK  Name = 
REMARK  7 active torsions:
REMARK  status: ('A' for Active; 'I' for Inactive)
REMARK    1  A    between atoms: C_1  and  N_2
REMARK    2  A    between atoms: N_2  and  C_3
REMARK    3  A    between atoms: C_7  and  C_8
REMARK    4  A    between atoms: C_11  and  C_12
REMARK    5  A    between atoms: C_12  and  O_13
REMARK    6  A    between atoms: C_12  and  C_14
REMARK    7  A    between atoms: C_12  and  C_20
REMARK                            x       y       z     vdW  Elec       q    Type
REMARK                         _______ _______ _______ _____ _____    ______ ____
ROOT
ATOM      1  C   UNL     1       3.103   5.765  18.798  0.00  0.00    +0.000 C 
ENDROOT
BRANCH   1   2
ATOM      2  C   UNL     1       4.502   5.702  18.137  0.00  0.00    +0.000 A 
ATOM      3  C   UNL     1       4.705   6.048  16.786  0.00  0.00    +0.000 A 
ATOM      4  C   UNL     1       5.968   5.951  16.193  0.00  0.00    +0.000 A 
ATOM      5  C   UNL     1       7.062   5.527  16.939  0.00  0.00    +0.000 A 
ATOM      6  C   UNL     1       6.901   5.232  18.288  0.00  0.00    +0.000 A 
ATOM      7  C   UNL     1       5.640   5.336  18.884  0.00  0.00    +0.000 A 
ENDBRANCH   1   2
BRANCH   1   8
ATOM      8  C   UNL     1       2.060   4.727  18.205  0.00  0.00    +0.000 C 
ATOM      9  C   UNL     1       2.664   3.650  17.271  0.00  0.00    +0.000 C 
ATOM     10  C   UNL     1       3.416   2.532  17.988  0.00  0.00    +0.000 C 
ATOM     11  C   UNL     1       2.588   1.885  19.092  0.00  0.00    +0.000 C 
ATOM     12  C   UNL     1       1.927   2.896  20.023  0.00  0.00    +0.000 C 
ATOM     13  C   UNL     1       1.190   3.985  19.251  0.00  0.00    +0.000 C 
ENDBRANCH   1   8
BRANCH   1  17
ATOM     14  C   UNL     1       1.678   9.038  19.532  0.00  0.00    +0.000 A 
ATOM     15  C   UNL     1       1.777   9.230  18.168  0.00  0.00    +0.000 A 
ATOM     16  C   UNL     1       2.319   8.038  17.632  0.00  0.00    +0.000 A 
ATOM     17  C   UNL     1       2.538   7.178  18.693  0.00  0.00    +0.000 A 
ATOM     18  O   UNL     1       2.111   7.785  19.849  0.00  0.00    +0.000 OA
BRANCH  14  25
ATOM     19  C   UNL     1      -0.584  11.659  21.119  0.00  0.00    +0.000 C 
ATOM     20  N   UNL     1      -0.341  10.231  20.636  0.00  0.00    +0.000 N 
ATOM     21  C   UNL     1      -0.988  10.081  19.270  0.00  0.00    +0.000 C 
ATOM     22  C   UNL     1      -0.923   9.213  21.612  0.00  0.00    +0.000 C 
ATOM     23  C   UNL     1       0.095   9.146  22.727  0.00  0.00    +0.000 C 
ATOM     24  C   UNL     1       1.444   9.301  22.043  0.00  0.00    +0.000 C 
ATOM     25  C   UNL     1       1.188   9.910  20.650  0.00  0.00    +0.000 C 
ENDBRANCH  14  25
ENDBRANCH   1  17
BRANCH   1  26
ATOM     26  O   UNL     1       3.250   5.516  20.202  0.00  0.00    +0.000 OA
ATOM     27  H   UNL     1       3.564   4.603  20.301  0.00  0.00    +0.000 HD
ENDBRANCH   1  26
TORSDOF 5
ENDMDL
MODEL 3
REMARK VINA RESULT:      -8.1      0.597      1.523
REMARK  Name = 
REMARK  7 active torsions:
REMARK  status: ('A' for Active; 'I' for Inactive)
REMARK    1  A    between atoms: C_1  and  N_2
REMARK    2  A    between atoms: N_2  and  C_3
REMARK    3  A    between atoms: C_7  and  C_8
REMARK    4  A    between atoms: C_11  and  C_12
REMARK    5  A    between atoms: C_12  and  O_13
REMARK    6  A    between atoms: C_12  and  C_14
REMARK    7  A    between atoms: C_12  and  C_20
REMARK                            x       y       z     vdW  Elec       q    Type
REMARK                         _______ _______ _______ _____ _____    ______ ____
ROOT
ATOM      1  C   UNL     1       3.440   5.799  18.709  0.00  0.00    +0.000 C 
ENDROOT
BRANCH   1   2
ATOM      2  C   UNL     1       4.960   5.990  18.480  0.00  0.00    +0.000 A 
ATOM      3  C   UNL     1       5.921   5.452  19.359  0.00  0.00    +0.000 A 
ATOM      4  C   UNL     1       7.289   5.664  19.158  0.00  0.00    +0.000 A 
ATOM      5  C   UNL     1       7.731   6.400  18.063  0.00  0.00    +0.000 A 
ATOM      6  C   UNL     1       6.808   6.895  17.150  0.00  0.00    +0.000 A 
ATOM      7  C   UNL     1       5.440   6.678  17.346  0.00  0.00    +0.000 A 
ENDBRANCH   1   2
BRANCH   1   8
ATOM      8  C   UNL     1       2.758   4.777  17.707  0.00  0.00    +0.000 C 
ATOM      9  C   UNL     1       3.603   3.522  17.373  0.00  0.00    +0.000 C 
ATOM     10  C   UNL     1       3.639   2.466  18.475  0.00  0.00    +0.000 C 
ATOM     11  C   UNL     1       2.247   2.068  18.951  0.00  0.00    +0.000 C 
ATOM     12  C   UNL     1       1.348   3.262  19.254  0.00  0.00    +0.000 C 
ATOM     13  C   UNL     1       1.349   4.280  18.119  0.00  0.00    +0.000 C 
ENDBRANCH   1   8
BRANCH   1  17
ATOM     14  C   UNL     1       1.235   8.642  19.296  0.00  0.00    +0.000 A 
ATOM     15  C   UNL     1       1.916   9.208  18.237  0.00  0.00    +0.000 A 
ATOM     16  C   UNL     1       2.865   8.249  17.809  0.00  0.00    +0.000 A 
ATOM     17  C   UNL     1       2.728   7.146  18.632  0.00  0.00    +0.000 A 
ATOM     18  O   UNL     1       1.704   7.381  19.519  0.00  0.00    +0.000 OA
BRANCH  14  25
ATOM     19  C   UNL     1      -0.470   9.336  22.629  0.00  0.00    +0.000 C 
ATOM     20  N   UNL     1       0.563   9.699  21.565  0.00  0.00    +0.000 N 
ATOM     21  C   UNL     1       1.916   9.194  22.034  0.00  0.00    +0.000 C 
ATOM     22  C   UNL     1       0.611  11.206  21.335  0.00  0.00    +0.000 C 
ATOM     23  C   UNL     1      -0.585  11.483  20.453  0.00  0.00    +0.000 C 
ATOM     24  C   UNL     1      -0.688  10.277  19.532  0.00  0.00    +0.000 C 
ATOM     25  C   UNL     1       0.124   9.136  20.175  0.00  0.00    +0.000 C 
ENDBRANCH  14  25
ENDBRANCH   1  17
BRANCH   1  26
ATOM     26  O   UNL     1       3.236   5.335  20.049  0.00  0.00    +0.000 OA
ATOM     27  H   UNL     1       2.322   5.555  20.294  0.00  0.00    +0.000 HD
ENDBRANCH   1  26
TORSDOF 5
ENDMDL
MODEL 4
REMARK VINA RESULT:      -8.0      1.174      1.918
REMARK  Name = 
REMARK  7 active torsions:
REMARK  status: ('A' for Active; 'I' for Inactive)
REMARK    1  A    between atoms: C_1  and  N_2
REMARK    2  A    between atoms: N_2  and  C_3
REMARK    3  A    between atoms: C_7  and  C_8
REMARK    4  A    between atoms: C_11  and  C_12
REMARK    5  A    between atoms: C_12  and  O_13
REMARK    6  A    between atoms: C_12  and  C_14
REMARK    7  A    between atoms: C_12  and  C_20
REMARK                            x       y       z     vdW  Elec       q    Type
REMARK                         _______ _______ _______ _____ _____    ______ ____
ROOT
ATOM      1  C   UNL     1       2.962   5.984  19.001  0.00  0.00    +0.000 C 
ENDROOT
BRANCH   1   2
ATOM      2  C   UNL     1       4.417   5.910  18.476  0.00  0.00    +0.000 A 
ATOM      3  C   UNL     1       4.781   6.412  17.210  0.00  0.00    +0.000 A 
ATOM      4  C   UNL     1       6.092   6.304  16.735  0.00  0.00    +0.000 A 
ATOM      5  C   UNL     1       7.076   5.714  17.520  0.00  0.00    +0.000 A 
ATOM      6  C   UNL     1       6.758   5.260  18.795  0.00  0.00    +0.000 A 
ATOM      7  C   UNL     1       5.449   5.373  19.275  0.00  0.00    +0.000 A 
ENDBRANCH   1   2
BRANCH   1   8
ATOM      8  C   UNL     1       2.027   4.814  18.480  0.00  0.00    +0.000 C 
ATOM      9  C   UNL     1       2.637   3.934  17.361  0.00  0.00    +0.000 C 
ATOM     10  C   UNL     1       3.682   2.928  17.839  0.00  0.00    +0.000 C 
ATOM     11  C   UNL     1       3.180   2.065  18.990  0.00  0.00    +0.000 C 
ATOM     12  C   UNL     1       2.525   2.870  20.108  0.00  0.00    +0.000 C 
ATOM     13  C   UNL     1       1.491   3.854  19.572  0.00  0.00    +0.000 C 
ENDBRANCH   1   8
BRANCH   1  17
ATOM     14  C   UNL     1       1.432   9.289  19.135  0.00  0.00    +0.000 A 
ATOM     15  C   UNL     1       1.504   9.222  17.758  0.00  0.00    +0.000 A 
ATOM     16  C   UNL     1       2.080   7.969  17.444  0.00  0.00    +0.000 A 
ATOM     17  C   UNL     1       2.346   7.332  18.643  0.00  0.00    +0.000 A 
ATOM     18  O   UNL     1       1.914   8.133  19.673  0.00  0.00    +0.000 OA
BRANCH  14  25
ATOM     19  C   UNL     1       1.404  12.735  20.756  0.00  0.00    +0.000 C 
ATOM     20  N   UNL     1       1.068  11.816  19.584  0.00  0.00    +0.000 N 
ATOM     21  C   UNL     1       2.131  12.009  18.517  0.00  0.00    +0.000 C 
ATOM     22  C   UNL     1      -0.314  12.129  19.018  0.00  0.00    +0.000 C 
ATOM     23  C   UNL     1      -1.268  11.462  19.982  0.00  0.00    +0.000 C 
ATOM     24  C   UNL     1      -0.568  10.182  20.412  0.00  0.00    +0.000 C 
ATOM     25  C   UNL     1       0.928  10.340  20.079  0.00  0.00    +0.000 C 
ENDBRANCH  14  25
ENDBRANCH   1  17
BRANCH   1  26
ATOM     26  O   UNL     1       2.992   5.946  20.434  0.00  0.00    +0.000 OA
ATOM     27  H   UNL     1       3.649   6.598  20.726  0.00  0.00    +0.000 HD
ENDBRANCH   1  26
TORSDOF 5
ENDMDL
MODEL 5
REMARK VINA RESULT:      -8.0      1.162      2.017
REMARK  Name = 
REMARK  7 active torsions:
REMARK  status: ('A' for Active; 'I' for Inactive)
REMARK    1  A    between atoms: C_1  and  N_2
REMARK    2  A    between atoms: N_2  and  C_3
REMARK    3  A    between atoms: C_7  and  C_8
REMARK    4  A    between atoms: C_11  and  C_12
REMARK    5  A    between atoms: C_12  and  O_13
REMARK    6  A    between atoms: C_12  and  C_14
REMARK    7  A    between atoms: C_12  and  C_20
REMARK                            x       y       z     vdW  Elec       q    Type
REMARK                         _______ _______ _______ _____ _____    ______ ____
ROOT
ATOM      1  C   UNL     1       3.566   5.342  18.890  0.00  0.00    +0.000 C 
ENDROOT
BRANCH   1   2
ATOM      2  C   UNL     1       5.005   5.812  18.560  0.00  0.00    +0.000 A 
ATOM      3  C   UNL     1       6.122   5.371  19.297  0.00  0.00    +0.000 A 
ATOM      4  C   UNL     1       7.410   5.833  19.011  0.00  0.00    +0.000 A 
ATOM      5  C   UNL     1       7.618   6.730  17.968  0.00  0.00    +0.000 A 
ATOM      6  C   UNL     1       6.541   7.140  17.189  0.00  0.00    +0.000 A 
ATOM      7  C   UNL     1       5.253   6.672  17.470  0.00  0.00    +0.000 A 
ENDBRANCH   1   2
BRANCH   1   8
ATOM      8  C   UNL     1       2.812   4.664  17.670  0.00  0.00    +0.000 C 
ATOM      9  C   UNL     1       3.534   3.443  17.047  0.00  0.00    +0.000 C 
ATOM     10  C   UNL     1       3.432   2.158  17.864  0.00  0.00    +0.000 C 
ATOM     11  C   UNL     1       1.993   1.807  18.227  0.00  0.00    +0.000 C 
ATOM     12  C   UNL     1       1.213   2.983  18.805  0.00  0.00    +0.000 C 
ATOM     13  C   UNL     1       1.349   4.235  17.946  0.00  0.00    +0.000 C 
ENDBRANCH   1   8
BRANCH   1  17
ATOM     14  C   UNL     1       1.646   8.424  19.198  0.00  0.00    +0.000 A 
ATOM     15  C   UNL     1       1.543   8.060  20.526  0.00  0.00    +0.000 A 
ATOM     16  C   UNL     1       2.251   6.843  20.666  0.00  0.00    +0.000 A 
ATOM     17  C   UNL     1       2.743   6.512  19.417  0.00  0.00    +0.000 A 
ATOM     18  O   UNL     1       2.398   7.504  18.530  0.00  0.00    +0.000 OA
BRANCH  14  25
ATOM     19  C   UNL     1      -0.935  11.062  18.262  0.00  0.00    +0.000 C 
ATOM     20  N   UNL     1       0.157  10.546  19.195  0.00  0.00    +0.000 N 
ATOM     21  C   UNL     1      -0.517   9.895  20.390  0.00  0.00    +0.000 C 
ATOM     22  C   UNL     1       1.071  11.678  19.654  0.00  0.00    +0.000 C 
ATOM     23  C   UNL     1       1.998  11.902  18.482  0.00  0.00    +0.000 C 
ATOM     24  C   UNL     1       2.242  10.519  17.898  0.00  0.00    +0.000 C 
ATOM     25  C   UNL     1       1.124   9.595  18.418  0.00  0.00    +0.000 C 
ENDBRANCH  14  25
ENDBRANCH   1  17
BRANCH   1  26
ATOM     26  O   UNL     1       3.630   4.402  19.970  0.00  0.00    +0.000 OA
ATOM     27  H   UNL     1       3.565   3.514  19.582  0.00  0.00    +0.000 HD
ENDBRANCH   1  26
TORSDOF 5
ENDMDL
MODEL 6
REMARK VINA RESULT:      -7.8      1.346      1.603
REMARK  Name = 
REMARK  7 active torsions:
REMARK  status: ('A' for Active; 'I' for Inactive)
REMARK    1  A    between atoms: C_1  and  N_2
REMARK    2  A    between atoms: N_2  and  C_3
REMARK    3  A    between atoms: C_7  and  C_8
REMARK    4  A    between atoms: C_11  and  C_12
REMARK    5  A    between atoms: C_12  and  O_13
REMARK    6  A    between atoms: C_12  and  C_14
REMARK    7  A    between atoms: C_12  and  C_20
REMARK                            x       y       z     vdW  Elec       q    Type
REMARK                         _______ _______ _______ _____ _____    ______ ____
ROOT
ATOM      1  C   UNL     1       3.737   5.158  18.734  0.00  0.00    +0.000 C 
ENDROOT
BRANCH   1   2
ATOM      2  C   UNL     1       4.913   5.099  17.727  0.00  0.00    +0.000 A 
ATOM      3  C   UNL     1       6.132   5.764  17.963  0.00  0.00    +0.000 A 
ATOM      4  C   UNL     1       7.171   5.732  17.028  0.00  0.00    +0.000 A 
ATOM      5  C   UNL     1       7.026   5.016  15.844  0.00  0.00    +0.000 A 
ATOM      6  C   UNL     1       5.855   4.305  15.609  0.00  0.00    +0.000 A 
ATOM      7  C   UNL     1       4.818   4.331  16.548  0.00  0.00    +0.000 A 
ENDBRANCH   1   2
BRANCH   1   8
ATOM      8  C   UNL     1       2.725   3.943  18.617  0.00  0.00    +0.000 C 
ATOM      9  C   UNL     1       3.203   2.623  19.272  0.00  0.00    +0.000 C 
ATOM     10  C   UNL     1       3.108   2.597  20.795  0.00  0.00    +0.000 C 
ATOM     11  C   UNL     1       1.722   2.978  21.302  0.00  0.00    +0.000 C 
ATOM     12  C   UNL     1       1.174   4.248  20.661  0.00  0.00    +0.000 C 
ATOM     13  C   UNL     1       1.292   4.217  19.141  0.00  0.00    +0.000 C 
ENDBRANCH   1   8
BRANCH   1  17
ATOM     14  C   UNL     1       2.017   8.312  19.348  0.00  0.00    +0.000 A 
ATOM     15  C   UNL     1       1.886   8.345  17.975  0.00  0.00    +0.000 A 
ATOM     16  C   UNL     1       2.494   7.166  17.483  0.00  0.00    +0.000 A 
ATOM     17  C   UNL     1       2.981   6.473  18.576  0.00  0.00    +0.000 A 
ATOM     18  O   UNL     1       2.655   7.165  19.718  0.00  0.00    +0.000 OA
BRANCH  14  25
ATOM     19  C   UNL     1       0.632  11.580  20.728  0.00  0.00    +0.000 C 
ATOM     20  N   UNL     1       0.417  10.219  20.070  0.00  0.00    +0.000 N 
ATOM     21  C   UNL     1       0.246  10.442  18.577  0.00  0.00    +0.000 C 
ATOM     22  C   UNL     1      -0.810   9.517  20.645  0.00  0.00    +0.000 C 
ATOM     23  C   UNL     1      -0.328   8.950  21.960  0.00  0.00    +0.000 C 
ATOM     24  C   UNL     1       1.110   8.524  21.707  0.00  0.00    +0.000 C 
ATOM     25  C   UNL     1       1.590   9.253  20.436  0.00  0.00    +0.000 C 
ENDBRANCH  14  25
ENDBRANCH   1  17
BRANCH   1  26
ATOM     26  O   UNL     1       4.274   5.182  20.062  0.00  0.00    +0.000 OA
ATOM     27  H   UNL     1       3.654   5.687  20.614  0.00  0.00    +0.000 HD
ENDBRANCH   1  26
TORSDOF 5
ENDMDL
MODEL 7
REMARK VINA RESULT:      -7.7      1.298      2.226
REMARK  Name = 
REMARK  7 active torsions:
REMARK  status: ('A' for Active; 'I' for Inactive)
REMARK    1  A    between atoms: C_1  and  N_2
REMARK    2  A    between atoms: N_2  and  C_3
REMARK    3  A    between atoms: C_7  and  C_8
REMARK    4  A    between atoms: C_11  and  C_12
REMARK    5  A    between atoms: C_12  and  O_13
REMARK    6  A    between atoms: C_12  and  C_14
REMARK    7  A    between atoms: C_12  and  C_20
REMARK                            x       y       z     vdW  Elec       q    Type
REMARK                         _______ _______ _______ _____ _____    ______ ____
ROOT
ATOM      1  C   UNL     1       2.844   6.160  18.987  0.00  0.00    +0.000 C 
ENDROOT
BRANCH   1   2
ATOM      2  C   UNL     1       4.224   5.891  18.337  0.00  0.00    +0.000 A 
ATOM      3  C   UNL     1       4.481   6.182  16.982  0.00  0.00    +0.000 A 
ATOM      4  C   UNL     1       5.720   5.899  16.400  0.00  0.00    +0.000 A 
ATOM      5  C   UNL     1       6.741   5.339  17.161  0.00  0.00    +0.000 A 
ATOM      6  C   UNL     1       6.533   5.092  18.513  0.00  0.00    +0.000 A 
ATOM      7  C   UNL     1       5.296   5.381  19.098  0.00  0.00    +0.000 A 
ENDBRANCH   1   2
BRANCH   1   8
ATOM      8  C   UNL     1       1.739   5.082  18.626  0.00  0.00    +0.000 C 
ATOM      9  C   UNL     1       2.145   4.065  17.531  0.00  0.00    +0.000 C 
ATOM     10  C   UNL     1       3.103   2.972  17.999  0.00  0.00    +0.000 C 
ATOM     11  C   UNL     1       2.604   2.251  19.245  0.00  0.00    +0.000 C 
ATOM     12  C   UNL     1       2.146   3.199  20.348  0.00  0.00    +0.000 C 
ATOM     13  C   UNL     1       1.190   4.265  19.824  0.00  0.00    +0.000 C 
ENDBRANCH   1   8
BRANCH   1  17
ATOM     14  C   UNL     1       0.960   9.270  18.743  0.00  0.00    +0.000 A 
ATOM     15  C   UNL     1       1.920   9.614  17.813  0.00  0.00    +0.000 A 
ATOM     16  C   UNL     1       2.803   8.512  17.719  0.00  0.00    +0.000 A 
ATOM     17  C   UNL     1       2.349   7.551  18.604  0.00  0.00    +0.000 A 
ATOM     18  O   UNL     1       1.200   8.009  19.202  0.00  0.00    +0.000 OA
BRANCH  14  25
ATOM     19  C   UNL     1      -0.881  11.527  21.196  0.00  0.00    +0.000 C 
ATOM     20  N   UNL     1       0.060  11.347  20.008  0.00  0.00    +0.000 N 
ATOM     21  C   UNL     1       1.486  11.472  20.516  0.00  0.00    +0.000 C 
ATOM     22  C   UNL     1      -0.211  12.388  18.927  0.00  0.00    +0.000 C 
ATOM     23  C   UNL     1      -1.431  11.863  18.206  0.00  0.00    +0.000 C 
ATOM     24  C   UNL     1      -1.268  10.351  18.198  0.00  0.00    +0.000 C 
ATOM     25  C   UNL     1      -0.238   9.992  19.286  0.00  0.00    +0.000 C 
ENDBRANCH  14  25
ENDBRANCH   1  17
BRANCH   1  26
ATOM     26  O   UNL     1       3.009   6.191  20.410  0.00  0.00    +0.000 OA
ATOM     27  H   UNL     1       2.558   6.988  20.734  0.00  0.00    +0.000 HD
ENDBRANCH   1  26
TORSDOF 5
ENDMDL
MODEL 8
REMARK VINA RESULT:      -7.5      1.241      1.931
REMARK  Name = 
REMARK  7 active torsions:
REMARK  status: ('A' for Active; 'I' for Inactive)
REMARK    1  A    between atoms: C_1  and  N_2
REMARK    2  A    between atoms: N_2  and  C_3
REMARK    3  A    between atoms: C_7  and  C_8
REMARK    4  A    between atoms: C_11  and  C_12
REMARK    5  A    between atoms: C_12  and  O_13
REMARK    6  A    between atoms: C_12  and  C_14
REMARK    7  A    between atoms: C_12  and  C_20
REMARK                            x       y       z     vdW  Elec       q    Type
REMARK                         _______ _______ _______ _____ _____    ______ ____
ROOT
ATOM      1  C   UNL     1       3.511   5.683  19.010  0.00  0.00    +0.000 C 
ENDROOT
BRANCH   1   2
ATOM      2  C   UNL     1       4.742   5.468  18.094  0.00  0.00    +0.000 A 
ATOM      3  C   UNL     1       6.057   5.460  18.600  0.00  0.00    +0.000 A 
ATOM      4  C   UNL     1       7.160   5.302  17.755  0.00  0.00    +0.000 A 
ATOM      5  C   UNL     1       6.976   5.125  16.388  0.00  0.00    +0.000 A 
ATOM      6  C   UNL     1       5.688   5.073  15.869  0.00  0.00    +0.000 A 
ATOM      7  C   UNL     1       4.583   5.225  16.714  0.00  0.00    +0.000 A 
ENDBRANCH   1   2
BRANCH   1   8
ATOM      8  C   UNL     1       2.409   4.549  18.889  0.00  0.00    +0.000 C 
ATOM      9  C   UNL     1       2.960   3.120  18.658  0.00  0.00    +0.000 C 
ATOM     10  C   UNL     1       3.551   2.456  19.899  0.00  0.00    +0.000 C 
ATOM     11  C   UNL     1       2.596   2.481  21.087  0.00  0.00    +0.000 C 
ATOM     12  C   UNL     1       1.984   3.854  21.340  0.00  0.00    +0.000 C 
ATOM     13  C   UNL     1       1.407   4.465  20.068  0.00  0.00    +0.000 C 
ENDBRANCH   1   8
BRANCH   1  17
ATOM     14  C   UNL     1       1.447   8.685  19.116  0.00  0.00    +0.000 A 
ATOM     15  C   UNL     1       2.209   9.076  18.033  0.00  0.00    +0.000 A 
ATOM     16  C   UNL     1       3.120   8.024  17.780  0.00  0.00    +0.000 A 
ATOM     17  C   UNL     1       2.882   7.043  18.726  0.00  0.00    +0.000 A 
ATOM     18  O   UNL     1       1.832   7.441  19.519  0.00  0.00    +0.000 OA
BRANCH  14  25
ATOM     19  C   UNL     1      -0.485   9.692  22.239  0.00  0.00    +0.000 C 
ATOM     20  N   UNL     1       0.689   9.888  21.284  0.00  0.00    +0.000 N 
ATOM     21  C   UNL     1       1.911   9.229  21.901  0.00  0.00    +0.000 C 
ATOM     22  C   UNL     1       0.956  11.369  21.034  0.00  0.00    +0.000 C 
ATOM     23  C   UNL     1      -0.097  11.770  20.027  0.00  0.00    +0.000 C 
ATOM     24  C   UNL     1      -0.261  10.560  19.121  0.00  0.00    +0.000 C 
ATOM     25  C   UNL     1       0.326   9.344  19.864  0.00  0.00    +0.000 C 
ENDBRANCH  14  25
ENDBRANCH   1  17
BRANCH   1  26
ATOM     26  O   UNL     1       3.959   5.745  20.369  0.00  0.00    +0.000 OA
ATOM     27  H   UNL     1       3.617   4.957  20.822  0.00  0.00    +0.000 HD
ENDBRANCH   1  26
TORSDOF 5
ENDMDL
MODEL 9
REMARK VINA RESULT:      -7.5      1.372      2.432
REMARK  Name = 
REMARK  7 active torsions:
REMARK  status: ('A' for Active; 'I' for Inactive)
REMARK    1  A    between atoms: C_1  and  N_2
REMARK    2  A    between atoms: N_2  and  C_3
REMARK    3  A    between atoms: C_7  and  C_8
REMARK    4  A    between atoms: C_11  and  C_12
REMARK    5  A    between atoms: C_12  and  O_13
REMARK    6  A    between atoms: C_12  and  C_14
REMARK    7  A    between atoms: C_12  and  C_20
REMARK                            x       y       z     vdW  Elec       q    Type
REMARK                         _______ _______ _______ _____ _____    ______ ____
ROOT
ATOM      1  C   UNL     1       2.629   5.678  19.617  0.00  0.00    +0.000 C 
ENDROOT
BRANCH   1   2
ATOM      2  C   UNL     1       3.906   5.884  18.767  0.00  0.00    +0.000 A 
ATOM      3  C   UNL     1       3.895   6.631  17.572  0.00  0.00    +0.000 A 
ATOM      4  C   UNL     1       5.049   6.778  16.795  0.00  0.00    +0.000 A 
ATOM      5  C   UNL     1       6.247   6.201  17.204  0.00  0.00    +0.000 A 
ATOM      6  C   UNL     1       6.300   5.505  18.406  0.00  0.00    +0.000 A 
ATOM      7  C   UNL     1       5.148   5.364  19.187  0.00  0.00    +0.000 A 
ENDBRANCH   1   2
BRANCH   1   8
ATOM      8  C   UNL     1       1.522   4.786  18.915  0.00  0.00    +0.000 C 
ATOM      9  C   UNL     1       1.993   4.031  17.647  0.00  0.00    +0.000 C 
ATOM     10  C   UNL     1       2.855   2.801  17.920  0.00  0.00    +0.000 C 
ATOM     11  C   UNL     1       2.206   1.840  18.909  0.00  0.00    +0.000 C 
ATOM     12  C   UNL     1       1.679   2.529  20.163  0.00  0.00    +0.000 C 
ATOM     13  C   UNL     1       0.824   3.746  19.829  0.00  0.00    +0.000 C 
ENDBRANCH   1   8
BRANCH   1  17
ATOM     14  C   UNL     1       1.264   9.056  19.554  0.00  0.00    +0.000 A 
ATOM     15  C   UNL     1       1.153   8.885  20.919  0.00  0.00    +0.000 A 
ATOM     16  C   UNL     1       1.652   7.592  21.205  0.00  0.00    +0.000 A 
ATOM     17  C   UNL     1       2.033   7.028  20.001  0.00  0.00    +0.000 A 
ATOM     18  O   UNL     1       1.824   7.944  18.998  0.00  0.00    +0.000 OA
BRANCH  14  25
ATOM     19  C   UNL     1      -0.923  11.896  18.268  0.00  0.00    +0.000 C 
ATOM     20  N   UNL     1       0.079  11.345  19.280  0.00  0.00    +0.000 N 
ATOM     21  C   UNL     1      -0.689  10.930  20.523  0.00  0.00    +0.000 C 
ATOM     22  C   UNL     1       1.135  12.388  19.634  0.00  0.00    +0.000 C 
ATOM     23  C   UNL     1       2.095  12.351  18.467  0.00  0.00    +0.000 C 
ATOM     24  C   UNL     1       2.153  10.891  18.046  0.00  0.00    +0.000 C 
ATOM     25  C   UNL     1       0.914  10.191  18.637  0.00  0.00    +0.000 C 
ENDBRANCH  14  25
ENDBRANCH   1  17
BRANCH   1  26
ATOM     26  O   UNL     1       3.000   5.058  20.855  0.00  0.00    +0.000 OA
ATOM     27  H   UNL     1       2.200   5.006  21.403  0.00  0.00    +0.000 HD
ENDBRANCH   1  26
TORSDOF 5
ENDMDL
