MODEL 1
REMARK VINA RESULT:      -7.6      0.000      0.000
REMARK  Name = 
REMARK  2 active torsions:
REMARK  status: ('A' for Active; 'I' for Inactive)
REMARK    1  A    between atoms: C_2  and  C_3
REMARK    2  A    between atoms: N_15  and  C_16
REMARK                            x       y       z     vdW  Elec       q    Type
REMARK                         _______ _______ _______ _____ _____    ______ ____
ROOT
ATOM      1  O   UNL     1       1.834   5.608  20.762  0.00  0.00    +0.000 OA
ATOM      2  C   UNL     1       2.358   6.219  19.831  0.00  0.00    +0.000 C 
ATOM      3  N   UNL     1       2.156   7.585  19.627  0.00  0.00    +0.000 N 
ATOM      4  C   UNL     1       2.568   8.373  18.450  0.00  0.00    +0.000 C 
ATOM      5  C   UNL     1       1.413   9.184  17.860  0.00  0.00    +0.000 C 
ATOM      6  N   UNL     1       0.790   9.997  18.904  0.00  0.00    +0.000 N 
ATOM      7  C   UNL     1       0.305   9.235  20.067  0.00  0.00    +0.000 C 
ATOM      8  C   UNL     1       1.447   8.370  20.653  0.00  0.00    +0.000 C 
ENDROOT
BRANCH   2   9
ATOM      9  C   UNL     1       3.207   5.435  18.887  0.00  0.00    +0.000 A 
ATOM     10  C   UNL     1       2.592   4.521  18.024  0.00  0.00    +0.000 A 
ATOM     11  C   UNL     1       3.332   3.810  17.066  0.00  0.00    +0.000 A 
ATOM     12  C   UNL     1       4.702   4.093  16.974  0.00  0.00    +0.000 A 
ATOM     13  N   UNL     1       5.664   3.611  16.113  0.00  0.00    +0.000 N 
ATOM     14  C   UNL     1       6.865   4.223  16.353  0.00  0.00    +0.000 A 
ATOM     15  C   UNL     1       6.699   5.071  17.422  0.00  0.00    +0.000 A 
ATOM     16  C   UNL     1       5.344   4.976  17.838  0.00  0.00    +0.000 A 
ATOM     17  C   UNL     1       4.601   5.585  18.862  0.00  0.00    +0.000 A 
ATOM     18  H   UNL     1       5.491   2.930  15.388  0.00  0.00    +0.000 HD
ENDBRANCH   2   9
BRANCH   6  19
ATOM     19  C   UNL     1       0.735  11.371  18.815  0.00  0.00    +0.000 A 
ATOM     20  C   UNL     1       1.887  12.137  18.599  0.00  0.00    +0.000 A 
ATOM     21  C   UNL     1       1.844  13.535  18.555  0.00  0.00    +0.000 A 
ATOM     22  C   UNL     1       0.636  14.205  18.711  0.00  0.00    +0.000 A 
ATOM     23  C   UNL     1      -0.526  13.471  18.911  0.00  0.00    +0.000 A 
ATOM     24  C   UNL     1      -0.472  12.076  18.959  0.00  0.00    +0.000 A 
ENDBRANCH   6  19
TORSDOF 2
ENDMDL
MODEL 2
REMARK VINA RESULT:      -7.4      2.193      3.813
REMARK  Name = 
REMARK  2 active torsions:
REMARK  status: ('A' for Active; 'I' for Inactive)
REMARK    1  A    between atoms: C_2  and  C_3
REMARK    2  A    between atoms: N_15  and  C_16
REMARK                            x       y       z     vdW  Elec       q    Type
REMARK                         _______ _______ _______ _____ _____    ______ ____
ROOT
ATOM      1  O   UNL     1       4.702   3.301  18.519  0.00  0.00    +0.000 OA
ATOM      2  C   UNL     1       4.736   4.425  18.016  0.00  0.00    +0.000 C 
ATOM      3  N   UNL     1       4.099   5.522  18.597  0.00  0.00    +0.000 N 
ATOM      4  C   UNL     1       3.910   6.855  17.993  0.00  0.00    +0.000 C 
ATOM      5  C   UNL     1       2.451   7.313  18.044  0.00  0.00    +0.000 C 
ATOM      6  N   UNL     1       1.949   7.229  19.415  0.00  0.00    +0.000 N 
ATOM      7  C   UNL     1       2.060   5.894  20.028  0.00  0.00    +0.000 C 
ATOM      8  C   UNL     1       3.521   5.390  19.946  0.00  0.00    +0.000 C 
ENDROOT
BRANCH   2   9
ATOM      9  C   UNL     1       5.465   4.575  16.723  0.00  0.00    +0.000 A 
ATOM     10  C   UNL     1       6.745   5.141  16.729  0.00  0.00    +0.000 A 
ATOM     11  C   UNL     1       7.505   5.240  15.554  0.00  0.00    +0.000 A 
ATOM     12  C   UNL     1       6.952   4.701  14.384  0.00  0.00    +0.000 A 
ATOM     13  N   UNL     1       7.467   4.596  13.110  0.00  0.00    +0.000 N 
ATOM     14  C   UNL     1       6.588   3.933  12.296  0.00  0.00    +0.000 A 
ATOM     15  C   UNL     1       5.461   3.655  13.032  0.00  0.00    +0.000 A 
ATOM     16  C   UNL     1       5.670   4.158  14.343  0.00  0.00    +0.000 A 
ATOM     17  C   UNL     1       4.887   4.178  15.509  0.00  0.00    +0.000 A 
ATOM     18  H   UNL     1       8.379   4.932  12.834  0.00  0.00    +0.000 HD
ENDBRANCH   2   9
BRANCH   6  19
ATOM     19  C   UNL     1       1.478   8.338  20.083  0.00  0.00    +0.000 A 
ATOM     20  C   UNL     1       1.311   8.340  21.473  0.00  0.00    +0.000 A 
ATOM     21  C   UNL     1       0.788   9.448  22.150  0.00  0.00    +0.000 A 
ATOM     22  C   UNL     1       0.432  10.594  21.449  0.00  0.00    +0.000 A 
ATOM     23  C   UNL     1       0.601  10.627  20.071  0.00  0.00    +0.000 A 
ATOM     24  C   UNL     1       1.119   9.515  19.404  0.00  0.00    +0.000 A 
ENDBRANCH   6  19
TORSDOF 2
ENDMDL
MODEL 3
REMARK VINA RESULT:      -7.4      2.179      3.831
REMARK  Name = 
REMARK  2 active torsions:
REMARK  status: ('A' for Active; 'I' for Inactive)
REMARK    1  A    between atoms: C_2  and  C_3
REMARK    2  A    between atoms: N_15  and  C_16
REMARK                            x       y       z     vdW  Elec       q    Type
REMARK                         _______ _______ _______ _____ _____    ______ ____
ROOT
ATOM      1  O   UNL     1       4.641   3.264  18.386  0.00  0.00    +0.000 OA
ATOM      2  C   UNL     1       4.700   4.397  17.907  0.00  0.00    +0.000 C 
ATOM      3  N   UNL     1       4.072   5.492  18.502  0.00  0.00    +0.000 N 
ATOM      4  C   UNL     1       3.913   6.840  17.924  0.00  0.00    +0.000 C 
ATOM      5  C   UNL     1       2.461   7.320  17.962  0.00  0.00    +0.000 C 
ATOM      6  N   UNL     1       1.937   7.216  19.324  0.00  0.00    +0.000 N 
ATOM      7  C   UNL     1       2.018   5.868  19.911  0.00  0.00    +0.000 C 
ATOM      8  C   UNL     1       3.472   5.341  19.840  0.00  0.00    +0.000 C 
ENDROOT
BRANCH   2   9
ATOM      9  C   UNL     1       5.450   4.562  16.628  0.00  0.00    +0.000 A 
ATOM     10  C   UNL     1       6.724   5.142  16.661  0.00  0.00    +0.000 A 
ATOM     11  C   UNL     1       7.504   5.255  15.500  0.00  0.00    +0.000 A 
ATOM     12  C   UNL     1       6.977   4.717  14.318  0.00  0.00    +0.000 A 
ATOM     13  N   UNL     1       7.517   4.625  13.053  0.00  0.00    +0.000 N 
ATOM     14  C   UNL     1       6.660   3.957  12.219  0.00  0.00    +0.000 A 
ATOM     15  C   UNL     1       5.523   3.662  12.933  0.00  0.00    +0.000 A 
ATOM     16  C   UNL     1       5.702   4.161  14.251  0.00  0.00    +0.000 A 
ATOM     17  C   UNL     1       4.899   4.166  15.402  0.00  0.00    +0.000 A 
ATOM     18  H   UNL     1       8.429   4.972  12.795  0.00  0.00    +0.000 HD
ENDBRANCH   2   9
BRANCH   6  19
ATOM     19  C   UNL     1       1.473   8.319  20.008  0.00  0.00    +0.000 A 
ATOM     20  C   UNL     1       1.145   9.507  19.343  0.00  0.00    +0.000 A 
ATOM     21  C   UNL     1       0.718  10.645  20.038  0.00  0.00    +0.000 A 
ATOM     22  C   UNL     1       0.595  10.616  21.422  0.00  0.00    +0.000 A 
ATOM     23  C   UNL     1       0.898   9.447  22.107  0.00  0.00    +0.000 A 
ATOM     24  C   UNL     1       1.328   8.318  21.405  0.00  0.00    +0.000 A 
ENDBRANCH   6  19
TORSDOF 2
ENDMDL
MODEL 4
REMARK VINA RESULT:      -7.1      2.155      3.356
REMARK  Name = 
REMARK  2 active torsions:
REMARK  status: ('A' for Active; 'I' for Inactive)
REMARK    1  A    between atoms: C_2  and  C_3
REMARK    2  A    between atoms: N_15  and  C_16
REMARK                            x       y       z     vdW  Elec       q    Type
REMARK                         _______ _______ _______ _____ _____    ______ ____
ROOT
ATOM      1  O   UNL     1       3.737   3.315  19.477  0.00  0.00    +0.000 OA
ATOM      2  C   UNL     1       3.999   4.461  19.109  0.00  0.00    +0.000 C 
ATOM      3  N   UNL     1       3.381   5.582  19.666  0.00  0.00    +0.000 N 
ATOM      4  C   UNL     1       3.469   6.971  19.178  0.00  0.00    +0.000 C 
ATOM      5  C   UNL     1       2.091   7.609  18.990  0.00  0.00    +0.000 C 
ATOM      6  N   UNL     1       1.311   7.483  20.221  0.00  0.00    +0.000 N 
ATOM      7  C   UNL     1       1.145   6.100  20.702  0.00  0.00    +0.000 C 
ATOM      8  C   UNL     1       2.526   5.419  20.855  0.00  0.00    +0.000 C 
ENDROOT
BRANCH   2   9
ATOM      9  C   UNL     1       4.991   4.618  18.006  0.00  0.00    +0.000 A 
ATOM     10  C   UNL     1       6.337   4.821  18.331  0.00  0.00    +0.000 A 
ATOM     11  C   UNL     1       7.323   4.902  17.336  0.00  0.00    +0.000 A 
ATOM     12  C   UNL     1       6.913   4.718  16.009  0.00  0.00    +0.000 A 
ATOM     13  N   UNL     1       7.640   4.684  14.838  0.00  0.00    +0.000 N 
ATOM     14  C   UNL     1       6.818   4.412  13.777  0.00  0.00    +0.000 A 
ATOM     15  C   UNL     1       5.532   4.325  14.252  0.00  0.00    +0.000 A 
ATOM     16  C   UNL     1       5.577   4.543  15.655  0.00  0.00    +0.000 A 
ATOM     17  C   UNL     1       4.598   4.583  16.661  0.00  0.00    +0.000 A 
ATOM     18  H   UNL     1       8.640   4.809  14.784  0.00  0.00    +0.000 HD
ENDBRANCH   2   9
BRANCH   6  19
ATOM     19  C   UNL     1       0.838   8.587  20.894  0.00  0.00    +0.000 A 
ATOM     20  C   UNL     1       0.533   8.536  22.260  0.00  0.00    +0.000 A 
ATOM     21  C   UNL     1       0.008   9.642  22.939  0.00  0.00    +0.000 A 
ATOM     22  C   UNL     1      -0.213  10.838  22.266  0.00  0.00    +0.000 A 
ATOM     23  C   UNL     1       0.094  10.923  20.914  0.00  0.00    +0.000 A 
ATOM     24  C   UNL     1       0.614   9.812  20.244  0.00  0.00    +0.000 A 
ENDBRANCH   6  19
TORSDOF 2
ENDMDL
MODEL 5
REMARK VINA RESULT:      -7.1      2.293      7.986
REMARK  Name = 
REMARK  2 active torsions:
REMARK  status: ('A' for Active; 'I' for Inactive)
REMARK    1  A    between atoms: C_2  and  C_3
REMARK    2  A    between atoms: N_15  and  C_16
REMARK                            x       y       z     vdW  Elec       q    Type
REMARK                         _______ _______ _______ _____ _____    ______ ____
ROOT
ATOM      1  O   UNL     1       2.745   4.650  19.656  0.00  0.00    +0.000 OA
ATOM      2  C   UNL     1       2.907   5.552  18.833  0.00  0.00    +0.000 C 
ATOM      3  N   UNL     1       3.583   5.352  17.629  0.00  0.00    +0.000 N 
ATOM      4  C   UNL     1       4.002   6.390  16.669  0.00  0.00    +0.000 C 
ATOM      5  C   UNL     1       5.484   6.282  16.306  0.00  0.00    +0.000 C 
ATOM      6  N   UNL     1       5.789   4.926  15.852  0.00  0.00    +0.000 N 
ATOM      7  C   UNL     1       5.446   3.865  16.815  0.00  0.00    +0.000 C 
ATOM      8  C   UNL     1       3.960   3.984  17.232  0.00  0.00    +0.000 C 
ENDROOT
BRANCH   2   9
ATOM      9  C   UNL     1       2.375   6.902  19.183  0.00  0.00    +0.000 A 
ATOM     10  C   UNL     1       2.269   7.869  18.177  0.00  0.00    +0.000 A 
ATOM     11  C   UNL     1       1.710   9.130  18.434  0.00  0.00    +0.000 A 
ATOM     12  C   UNL     1       1.213   9.361  19.724  0.00  0.00    +0.000 A 
ATOM     13  N   UNL     1       0.568  10.457  20.256  0.00  0.00    +0.000 N 
ATOM     14  C   UNL     1       0.204  10.209  21.553  0.00  0.00    +0.000 A 
ATOM     15  C   UNL     1       0.670   8.961  21.889  0.00  0.00    +0.000 A 
ATOM     16  C   UNL     1       1.331   8.428  20.751  0.00  0.00    +0.000 A 
ATOM     17  C   UNL     1       2.000   7.220  20.496  0.00  0.00    +0.000 A 
ATOM     18  H   UNL     1       0.365  11.304  19.745  0.00  0.00    +0.000 HD
ENDBRANCH   2   9
BRANCH   6  19
ATOM     19  C   UNL     1       6.293   4.680  14.594  0.00  0.00    +0.000 A 
ATOM     20  C   UNL     1       7.417   5.361  14.110  0.00  0.00    +0.000 A 
ATOM     21  C   UNL     1       7.905   5.149  12.815  0.00  0.00    +0.000 A 
ATOM     22  C   UNL     1       7.284   4.234  11.973  0.00  0.00    +0.000 A 
ATOM     23  C   UNL     1       6.176   3.532  12.431  0.00  0.00    +0.000 A 
ATOM     24  C   UNL     1       5.694   3.754  13.723  0.00  0.00    +0.000 A 
ENDBRANCH   6  19
TORSDOF 2
ENDMDL
MODEL 6
REMARK VINA RESULT:      -7.0      2.507      3.708
REMARK  Name = 
REMARK  2 active torsions:
REMARK  status: ('A' for Active; 'I' for Inactive)
REMARK    1  A    between atoms: C_2  and  C_3
REMARK    2  A    between atoms: N_15  and  C_16
REMARK                            x       y       z     vdW  Elec       q    Type
REMARK                         _______ _______ _______ _____ _____    ______ ____
ROOT
ATOM      1  O   UNL     1       2.910   8.500  17.096  0.00  0.00    +0.000 OA
ATOM      2  C   UNL     1       2.347   8.016  18.078  0.00  0.00    +0.000 C 
ATOM      3  N   UNL     1       1.467   8.752  18.873  0.00  0.00    +0.000 N 
ATOM      4  C   UNL     1       0.894   8.341  20.169  0.00  0.00    +0.000 C 
ATOM      5  C   UNL     1       1.099   9.398  21.256  0.00  0.00    +0.000 C 
ATOM      6  N   UNL     1       0.601  10.693  20.793  0.00  0.00    +0.000 N 
ATOM      7  C   UNL     1       1.202  11.167  19.535  0.00  0.00    +0.000 C 
ATOM      8  C   UNL     1       1.047  10.093  18.431  0.00  0.00    +0.000 C 
ENDROOT
BRANCH   2   9
ATOM      9  C   UNL     1       2.665   6.598  18.421  0.00  0.00    +0.000 A 
ATOM     10  C   UNL     1       3.816   6.325  19.169  0.00  0.00    +0.000 A 
ATOM     11  C   UNL     1       4.125   5.019  19.581  0.00  0.00    +0.000 A 
ATOM     12  C   UNL     1       3.207   4.011  19.259  0.00  0.00    +0.000 A 
ATOM     13  N   UNL     1       3.201   2.667  19.568  0.00  0.00    +0.000 N 
ATOM     14  C   UNL     1       2.060   2.076  19.094  0.00  0.00    +0.000 A 
ATOM     15  C   UNL     1       1.342   3.032  18.417  0.00  0.00    +0.000 A 
ATOM     16  C   UNL     1       2.069   4.250  18.493  0.00  0.00    +0.000 A 
ATOM     17  C   UNL     1       1.846   5.544  17.995  0.00  0.00    +0.000 A 
ATOM     18  H   UNL     1       3.923   2.201  20.099  0.00  0.00    +0.000 HD
ENDBRANCH   2   9
BRANCH   6  19
ATOM     19  C   UNL     1      -0.400  11.364  21.462  0.00  0.00    +0.000 A 
ATOM     20  C   UNL     1      -0.895  10.906  22.688  0.00  0.00    +0.000 A 
ATOM     21  C   UNL     1      -1.944  11.557  23.349  0.00  0.00    +0.000 A 
ATOM     22  C   UNL     1      -2.515  12.699  22.800  0.00  0.00    +0.000 A 
ATOM     23  C   UNL     1      -2.034  13.186  21.592  0.00  0.00    +0.000 A 
ATOM     24  C   UNL     1      -0.990  12.527  20.938  0.00  0.00    +0.000 A 
ENDBRANCH   6  19
TORSDOF 2
ENDMDL
MODEL 7
REMARK VINA RESULT:      -7.0      2.105      7.901
REMARK  Name = 
REMARK  2 active torsions:
REMARK  status: ('A' for Active; 'I' for Inactive)
REMARK    1  A    between atoms: C_2  and  C_3
REMARK    2  A    between atoms: N_15  and  C_16
REMARK                            x       y       z     vdW  Elec       q    Type
REMARK                         _______ _______ _______ _____ _____    ______ ____
ROOT
ATOM      1  O   UNL     1       3.444   4.636  20.076  0.00  0.00    +0.000 OA
ATOM      2  C   UNL     1       3.301   5.436  19.151  0.00  0.00    +0.000 C 
ATOM      3  N   UNL     1       3.872   5.234  17.894  0.00  0.00    +0.000 N 
ATOM      4  C   UNL     1       3.931   6.204  16.785  0.00  0.00    +0.000 C 
ATOM      5  C   UNL     1       5.350   6.377  16.240  0.00  0.00    +0.000 C 
ATOM      6  N   UNL     1       5.914   5.073  15.891  0.00  0.00    +0.000 N 
ATOM      7  C   UNL     1       5.933   4.099  16.995  0.00  0.00    +0.000 C 
ATOM      8  C   UNL     1       4.514   3.942  17.594  0.00  0.00    +0.000 C 
ENDROOT
BRANCH   2   9
ATOM      9  C   UNL     1       2.509   6.670  19.429  0.00  0.00    +0.000 A 
ATOM     10  C   UNL     1       1.906   6.820  20.683  0.00  0.00    +0.000 A 
ATOM     11  C   UNL     1       1.213   7.991  21.024  0.00  0.00    +0.000 A 
ATOM     12  C   UNL     1       1.193   9.024  20.077  0.00  0.00    +0.000 A 
ATOM     13  N   UNL     1       0.654  10.292  20.138  0.00  0.00    +0.000 N 
ATOM     14  C   UNL     1       0.935  10.983  18.990  0.00  0.00    +0.000 A 
ATOM     15  C   UNL     1       1.615  10.138  18.146  0.00  0.00    +0.000 A 
ATOM     16  C   UNL     1       1.760   8.892  18.811  0.00  0.00    +0.000 A 
ATOM     17  C   UNL     1       2.346   7.666  18.456  0.00  0.00    +0.000 A 
ATOM     18  H   UNL     1       0.154  10.661  20.934  0.00  0.00    +0.000 HD
ENDBRANCH   2   9
BRANCH   6  19
ATOM     19  C   UNL     1       6.323   4.782  14.608  0.00  0.00    +0.000 A 
ATOM     20  C   UNL     1       5.652   3.837  13.823  0.00  0.00    +0.000 A 
ATOM     21  C   UNL     1       6.091   3.503  12.536  0.00  0.00    +0.000 A 
ATOM     22  C   UNL     1       7.213   4.122  11.996  0.00  0.00    +0.000 A 
ATOM     23  C   UNL     1       7.890   5.074  12.746  0.00  0.00    +0.000 A 
ATOM     24  C   UNL     1       7.446   5.397  14.031  0.00  0.00    +0.000 A 
ENDBRANCH   6  19
TORSDOF 2
ENDMDL
MODEL 8
REMARK VINA RESULT:      -7.0      2.445      3.630
REMARK  Name = 
REMARK  2 active torsions:
REMARK  status: ('A' for Active; 'I' for Inactive)
REMARK    1  A    between atoms: C_2  and  C_3
REMARK    2  A    between atoms: N_15  and  C_16
REMARK                            x       y       z     vdW  Elec       q    Type
REMARK                         _______ _______ _______ _____ _____    ______ ____
ROOT
ATOM      1  O   UNL     1       3.080   8.372  17.085  0.00  0.00    +0.000 OA
ATOM      2  C   UNL     1       2.489   7.880  18.046  0.00  0.00    +0.000 C 
ATOM      3  N   UNL     1       1.582   8.608  18.818  0.00  0.00    +0.000 N 
ATOM      4  C   UNL     1       0.970   8.187  20.092  0.00  0.00    +0.000 C 
ATOM      5  C   UNL     1       1.137   9.238  21.191  0.00  0.00    +0.000 C 
ATOM      6  N   UNL     1       0.647  10.534  20.721  0.00  0.00    +0.000 N 
ATOM      7  C   UNL     1       1.284  11.018  19.484  0.00  0.00    +0.000 C 
ATOM      8  C   UNL     1       1.169   9.950  18.370  0.00  0.00    +0.000 C 
ENDROOT
BRANCH   2   9
ATOM      9  C   UNL     1       2.803   6.462  18.391  0.00  0.00    +0.000 A 
ATOM     10  C   UNL     1       3.962   6.184  19.124  0.00  0.00    +0.000 A 
ATOM     11  C   UNL     1       4.268   4.879  19.537  0.00  0.00    +0.000 A 
ATOM     12  C   UNL     1       3.339   3.875  19.233  0.00  0.00    +0.000 A 
ATOM     13  N   UNL     1       3.329   2.532  19.548  0.00  0.00    +0.000 N 
ATOM     14  C   UNL     1       2.178   1.947  19.092  0.00  0.00    +0.000 A 
ATOM     15  C   UNL     1       1.457   2.905  18.421  0.00  0.00    +0.000 A 
ATOM     16  C   UNL     1       2.192   4.118  18.481  0.00  0.00    +0.000 A 
ATOM     17  C   UNL     1       1.971   5.411  17.981  0.00  0.00    +0.000 A 
ATOM     18  H   UNL     1       4.055   2.064  20.070  0.00  0.00    +0.000 HD
ENDBRANCH   2   9
BRANCH   6  19
ATOM     19  C   UNL     1      -0.377  11.196  21.361  0.00  0.00    +0.000 A 
ATOM     20  C   UNL     1      -1.008  12.304  20.781  0.00  0.00    +0.000 A 
ATOM     21  C   UNL     1      -2.017  13.009  21.447  0.00  0.00    +0.000 A 
ATOM     22  C   UNL     1      -2.432  12.611  22.713  0.00  0.00    +0.000 A 
ATOM     23  C   UNL     1      -1.835  11.507  23.307  0.00  0.00    +0.000 A 
ATOM     24  C   UNL     1      -0.826  10.812  22.636  0.00  0.00    +0.000 A 
ENDBRANCH   6  19
TORSDOF 2
ENDMDL
MODEL 9
REMARK VINA RESULT:      -7.0      2.253      8.020
REMARK  Name = 
REMARK  2 active torsions:
REMARK  status: ('A' for Active; 'I' for Inactive)
REMARK    1  A    between atoms: C_2  and  C_3
REMARK    2  A    between atoms: N_15  and  C_16
REMARK                            x       y       z     vdW  Elec       q    Type
REMARK                         _______ _______ _______ _____ _____    ______ ____
ROOT
ATOM      1  O   UNL     1       2.744   4.762  19.752  0.00  0.00    +0.000 OA
ATOM      2  C   UNL     1       2.878   5.652  18.912  0.00  0.00    +0.000 C 
ATOM      3  N   UNL     1       3.536   5.441  17.699  0.00  0.00    +0.000 N 
ATOM      4  C   UNL     1       3.923   6.469  16.714  0.00  0.00    +0.000 C 
ATOM      5  C   UNL     1       5.401   6.376  16.328  0.00  0.00    +0.000 C 
ATOM      6  N   UNL     1       5.718   5.016  15.891  0.00  0.00    +0.000 N 
ATOM      7  C   UNL     1       5.407   3.968  16.878  0.00  0.00    +0.000 C 
ATOM      8  C   UNL     1       3.927   4.072  17.319  0.00  0.00    +0.000 C 
ENDROOT
BRANCH   2   9
ATOM      9  C   UNL     1       2.333   7.000  19.248  0.00  0.00    +0.000 A 
ATOM     10  C   UNL     1       2.244   7.965  18.238  0.00  0.00    +0.000 A 
ATOM     11  C   UNL     1       1.673   9.224  18.480  0.00  0.00    +0.000 A 
ATOM     12  C   UNL     1       1.148   9.455  19.758  0.00  0.00    +0.000 A 
ATOM     13  N   UNL     1       0.486  10.549  20.275  0.00  0.00    +0.000 N 
ATOM     14  C   UNL     1       0.096  10.301  21.564  0.00  0.00    +0.000 A 
ATOM     15  C   UNL     1       0.560   9.055  21.912  0.00  0.00    +0.000 A 
ATOM     16  C   UNL     1       1.248   8.524  20.789  0.00  0.00    +0.000 A 
ATOM     17  C   UNL     1       1.928   7.319  20.551  0.00  0.00    +0.000 A 
ATOM     18  H   UNL     1       0.290  11.394  19.758  0.00  0.00    +0.000 HD
ENDBRANCH   2   9
BRANCH   6  19
ATOM     19  C   UNL     1       6.203   4.756  14.629  0.00  0.00    +0.000 A 
ATOM     20  C   UNL     1       5.575   3.840  13.777  0.00  0.00    +0.000 A 
ATOM     21  C   UNL     1       6.090   3.537  12.512  0.00  0.00    +0.000 A 
ATOM     22  C   UNL     1       7.248   4.160  12.059  0.00  0.00    +0.000 A 
ATOM     23  C   UNL     1       7.885   5.085  12.875  0.00  0.00    +0.000 A 
ATOM     24  C   UNL     1       7.365   5.377  14.139  0.00  0.00    +0.000 A 
ENDBRANCH   6  19
TORSDOF 2
ENDMDL
