MODEL 1
REMARK VINA RESULT:      -7.7      0.000      0.000
REMARK  Name = 
REMARK  7 active torsions:
REMARK  status: ('A' for Active; 'I' for Inactive)
REMARK    1  A    between atoms: C_2  and  C_3
REMARK    2  A    between atoms: C_3  and  O_4
REMARK    3  A    between atoms: O_4  and  C_5
REMARK    4  A    between atoms: C_5  and  C_7
REMARK    5  A    between atoms: N_14  and  C_15
REMARK    6  A    between atoms: C_15  and  C_16
REMARK    7  A    between atoms: C_16  and  C_17
REMARK                            x       y       z     vdW  Elec       q    Type
REMARK                         _______ _______ _______ _____ _____    ______ ____
ROOT
ATOM      1  O   UNL     1       7.477   6.233  18.795  0.00  0.00    +0.000 OA
ATOM      2  C   UNL     1       7.372   6.745  17.677  0.00  0.00    +0.000 C 
ATOM      3  N   UNL     1       7.824   8.018  17.386  0.00  0.00    +0.000 N 
ATOM      4  H   UNL     1       7.819   8.305  16.408  0.00  0.00    +0.000 HD
ENDROOT
BRANCH   2   5
ATOM      5  C   UNL     1       6.730   5.988  16.506  0.00  0.00    +0.000 C 
BRANCH   5   6
ATOM      6  O   UNL     1       5.306   5.934  16.600  0.00  0.00    +0.000 OA
BRANCH   6   7
ATOM      7  C   UNL     1       4.787   4.698  16.422  0.00  0.00    +0.000 C 
ATOM      8  O   UNL     1       4.907   4.009  15.417  0.00  0.00    +0.000 OA
BRANCH   7   9
ATOM      9  C   UNL     1       3.986   4.294  17.601  0.00  0.00    +0.000 A 
ATOM     10  C   UNL     1       2.619   4.582  17.691  0.00  0.00    +0.000 A 
ATOM     11  C   UNL     1       1.889   4.163  18.806  0.00  0.00    +0.000 A 
ATOM     12  C   UNL     1       2.528   3.466  19.832  0.00  0.00    +0.000 A 
ATOM     13 BR   UNL     1       1.529   2.869  21.323  0.00  0.00    +0.000 Br
ATOM     14  C   UNL     1       3.894   3.196  19.761  0.00  0.00    +0.000 A 
ATOM     15  C   UNL     1       4.626   3.611  18.646  0.00  0.00    +0.000 A 
ENDBRANCH   7   9
ENDBRANCH   6   7
ENDBRANCH   5   6
ENDBRANCH   2   5
BRANCH   3  16
ATOM     16  C   UNL     1       8.497   8.843  18.388  0.00  0.00    +0.000 C 
BRANCH  16  17
ATOM     17  C   UNL     1       8.529  10.341  18.041  0.00  0.00    +0.000 C 
BRANCH  17  18
ATOM     18  C   UNL     1       9.716  11.073  18.639  0.00  0.00    +0.000 A 
ATOM     19  C   UNL     1      10.753  11.525  17.809  0.00  0.00    +0.000 A 
ATOM     20  C   UNL     1      11.875  12.165  18.346  0.00  0.00    +0.000 A 
ATOM     21  C   UNL     1      11.977  12.368  19.720  0.00  0.00    +0.000 A 
ATOM     22  C   UNL     1      10.948  11.942  20.556  0.00  0.00    +0.000 A 
ATOM     23  C   UNL     1       9.824  11.301  20.020  0.00  0.00    +0.000 A 
ENDBRANCH  17  18
ENDBRANCH  16  17
ENDBRANCH   3  16
TORSDOF 7
ENDMDL
MODEL 2
REMARK VINA RESULT:      -7.6      4.995      7.045
REMARK  Name = 
REMARK  7 active torsions:
REMARK  status: ('A' for Active; 'I' for Inactive)
REMARK    1  A    between atoms: C_2  and  C_3
REMARK    2  A    between atoms: C_3  and  O_4
REMARK    3  A    between atoms: O_4  and  C_5
REMARK    4  A    between atoms: C_5  and  C_7
REMARK    5  A    between atoms: N_14  and  C_15
REMARK    6  A    between atoms: C_15  and  C_16
REMARK    7  A    between atoms: C_16  and  C_17
REMARK                            x       y       z     vdW  Elec       q    Type
REMARK                         _______ _______ _______ _____ _____    ______ ____
ROOT
ATOM      1  O   UNL     1       2.946   2.576  21.177  0.00  0.00    +0.000 OA
ATOM      2  C   UNL     1       2.514   2.702  20.028  0.00  0.00    +0.000 C 
ATOM      3  N   UNL     1       1.676   3.732  19.646  0.00  0.00    +0.000 N 
ATOM      4  H   UNL     1       1.481   3.833  18.651  0.00  0.00    +0.000 HD
ENDROOT
BRANCH   2   5
ATOM      5  C   UNL     1       2.890   1.710  18.918  0.00  0.00    +0.000 C 
BRANCH   5   6
ATOM      6  O   UNL     1       3.907   2.213  18.052  0.00  0.00    +0.000 OA
BRANCH   6   7
ATOM      7  C   UNL     1       3.523   3.275  17.306  0.00  0.00    +0.000 C 
ATOM      8  O   UNL     1       2.503   3.347  16.634  0.00  0.00    +0.000 OA
BRANCH   7   9
ATOM      9  C   UNL     1       4.545   4.347  17.361  0.00  0.00    +0.000 A 
ATOM     10  C   UNL     1       4.776   5.193  16.270  0.00  0.00    +0.000 A 
ATOM     11  C   UNL     1       5.729   6.211  16.365  0.00  0.00    +0.000 A 
ATOM     12  C   UNL     1       6.454   6.374  17.546  0.00  0.00    +0.000 A 
ATOM     13 BR   UNL     1       7.717   7.774  17.684  0.00  0.00    +0.000 Br
ATOM     14  C   UNL     1       6.246   5.520  18.629  0.00  0.00    +0.000 A 
ATOM     15  C   UNL     1       5.291   4.504  18.538  0.00  0.00    +0.000 A 
ENDBRANCH   7   9
ENDBRANCH   6   7
ENDBRANCH   5   6
ENDBRANCH   2   5
BRANCH   3  16
ATOM     16  C   UNL     1       1.267   4.778  20.583  0.00  0.00    +0.000 C 
BRANCH  16  17
ATOM     17  C   UNL     1       2.325   5.873  20.794  0.00  0.00    +0.000 C 
BRANCH  17  18
ATOM     18  C   UNL     1       2.134   7.078  19.892  0.00  0.00    +0.000 A 
ATOM     19  C   UNL     1       1.415   8.192  20.350  0.00  0.00    +0.000 A 
ATOM     20  C   UNL     1       1.191   9.294  19.519  0.00  0.00    +0.000 A 
ATOM     21  C   UNL     1       1.688   9.305  18.218  0.00  0.00    +0.000 A 
ATOM     22  C   UNL     1       2.421   8.216  17.753  0.00  0.00    +0.000 A 
ATOM     23  C   UNL     1       2.645   7.110  18.584  0.00  0.00    +0.000 A 
ENDBRANCH  17  18
ENDBRANCH  16  17
ENDBRANCH   3  16
TORSDOF 7
ENDMDL
MODEL 3
REMARK VINA RESULT:      -7.4      2.564      2.941
REMARK  Name = 
REMARK  7 active torsions:
REMARK  status: ('A' for Active; 'I' for Inactive)
REMARK    1  A    between atoms: C_2  and  C_3
REMARK    2  A    between atoms: C_3  and  O_4
REMARK    3  A    between atoms: O_4  and  C_5
REMARK    4  A    between atoms: C_5  and  C_7
REMARK    5  A    between atoms: N_14  and  C_15
REMARK    6  A    between atoms: C_15  and  C_16
REMARK    7  A    between atoms: C_16  and  C_17
REMARK                            x       y       z     vdW  Elec       q    Type
REMARK                         _______ _______ _______ _____ _____    ______ ____
ROOT
ATOM      1  O   UNL     1       7.704   5.781  18.165  0.00  0.00    +0.000 OA
ATOM      2  C   UNL     1       7.059   6.487  17.386  0.00  0.00    +0.000 C 
ATOM      3  N   UNL     1       7.217   7.858  17.305  0.00  0.00    +0.000 N 
ATOM      4  H   UNL     1       6.743   8.339  16.542  0.00  0.00    +0.000 HD
ENDROOT
BRANCH   2   5
ATOM      5  C   UNL     1       6.023   5.884  16.428  0.00  0.00    +0.000 C 
BRANCH   5   6
ATOM      6  O   UNL     1       4.716   6.425  16.619  0.00  0.00    +0.000 OA
BRANCH   6   7
ATOM      7  C   UNL     1       4.015   5.839  17.617  0.00  0.00    +0.000 C 
ATOM      8  O   UNL     1       4.065   4.657  17.929  0.00  0.00    +0.000 OA
BRANCH   7   9
ATOM      9  C   UNL     1       3.114   6.820  18.267  0.00  0.00    +0.000 A 
ATOM     10  C   UNL     1       2.652   6.635  19.575  0.00  0.00    +0.000 A 
ATOM     11  C   UNL     1       1.825   7.593  20.166  0.00  0.00    +0.000 A 
ATOM     12  C   UNL     1       1.454   8.729  19.446  0.00  0.00    +0.000 A 
ATOM     13 BR   UNL     1       0.364  10.041  20.261  0.00  0.00    +0.000 Br
ATOM     14  C   UNL     1       1.891   8.910  18.133  0.00  0.00    +0.000 A 
ATOM     15  C   UNL     1       2.721   7.954  17.541  0.00  0.00    +0.000 A 
ENDBRANCH   7   9
ENDBRANCH   6   7
ENDBRANCH   5   6
ENDBRANCH   2   5
BRANCH   3  16
ATOM     16  C   UNL     1       8.198   8.569  18.124  0.00  0.00    +0.000 C 
BRANCH  16  17
ATOM     17  C   UNL     1       8.288  10.074  17.819  0.00  0.00    +0.000 C 
BRANCH  17  18
ATOM     18  C   UNL     1       9.398  10.777  18.577  0.00  0.00    +0.000 A 
ATOM     19  C   UNL     1      10.497  11.305  17.883  0.00  0.00    +0.000 A 
ATOM     20  C   UNL     1      11.552  11.918  18.568  0.00  0.00    +0.000 A 
ATOM     21  C   UNL     1      11.522  12.020  19.956  0.00  0.00    +0.000 A 
ATOM     22  C   UNL     1      10.429  11.519  20.659  0.00  0.00    +0.000 A 
ATOM     23  C   UNL     1       9.373  10.903  19.976  0.00  0.00    +0.000 A 
ENDBRANCH  17  18
ENDBRANCH  16  17
ENDBRANCH   3  16
TORSDOF 7
ENDMDL
MODEL 4
REMARK VINA RESULT:      -7.2      1.163      1.427
REMARK  Name = 
REMARK  7 active torsions:
REMARK  status: ('A' for Active; 'I' for Inactive)
REMARK    1  A    between atoms: C_2  and  C_3
REMARK    2  A    between atoms: C_3  and  O_4
REMARK    3  A    between atoms: O_4  and  C_5
REMARK    4  A    between atoms: C_5  and  C_7
REMARK    5  A    between atoms: N_14  and  C_15
REMARK    6  A    between atoms: C_15  and  C_16
REMARK    7  A    between atoms: C_16  and  C_17
REMARK                            x       y       z     vdW  Elec       q    Type
REMARK                         _______ _______ _______ _____ _____    ______ ____
ROOT
ATOM      1  O   UNL     1       7.980   5.582  19.486  0.00  0.00    +0.000 OA
ATOM      2  C   UNL     1       7.671   5.846  18.321  0.00  0.00    +0.000 C 
ATOM      3  N   UNL     1       7.749   7.120  17.791  0.00  0.00    +0.000 N 
ATOM      4  H   UNL     1       7.605   7.220  16.788  0.00  0.00    +0.000 HD
ENDROOT
BRANCH   2   5
ATOM      5  C   UNL     1       7.179   4.759  17.356  0.00  0.00    +0.000 C 
BRANCH   5   6
ATOM      6  O   UNL     1       6.437   5.292  16.259  0.00  0.00    +0.000 OA
BRANCH   6   7
ATOM      7  C   UNL     1       5.402   4.515  15.862  0.00  0.00    +0.000 C 
ATOM      8  O   UNL     1       5.270   4.010  14.756  0.00  0.00    +0.000 OA
BRANCH   7   9
ATOM      9  C   UNL     1       4.395   4.397  16.943  0.00  0.00    +0.000 A 
ATOM     10  C   UNL     1       4.001   3.149  17.441  0.00  0.00    +0.000 A 
ATOM     11  C   UNL     1       3.068   3.075  18.479  0.00  0.00    +0.000 A 
ATOM     12  C   UNL     1       2.526   4.245  19.010  0.00  0.00    +0.000 A 
ATOM     13 BR   UNL     1       1.292   4.142  20.438  0.00  0.00    +0.000 Br
ATOM     14  C   UNL     1       2.896   5.491  18.503  0.00  0.00    +0.000 A 
ATOM     15  C   UNL     1       3.831   5.568  17.467  0.00  0.00    +0.000 A 
ENDBRANCH   7   9
ENDBRANCH   6   7
ENDBRANCH   5   6
ENDBRANCH   2   5
BRANCH   3  16
ATOM     16  C   UNL     1       8.243   8.251  18.577  0.00  0.00    +0.000 C 
BRANCH  16  17
ATOM     17  C   UNL     1       8.209   9.592  17.825  0.00  0.00    +0.000 C 
BRANCH  17  18
ATOM     18  C   UNL     1       9.050  10.671  18.481  0.00  0.00    +0.000 A 
ATOM     19  C   UNL     1       9.261  11.893  17.824  0.00  0.00    +0.000 A 
ATOM     20  C   UNL     1      10.068  12.884  18.394  0.00  0.00    +0.000 A 
ATOM     21  C   UNL     1      10.671  12.673  19.631  0.00  0.00    +0.000 A 
ATOM     22  C   UNL     1      10.456  11.474  20.306  0.00  0.00    +0.000 A 
ATOM     23  C   UNL     1       9.649  10.480  19.737  0.00  0.00    +0.000 A 
ENDBRANCH  17  18
ENDBRANCH  16  17
ENDBRANCH   3  16
TORSDOF 7
ENDMDL
MODEL 5
REMARK VINA RESULT:      -7.2      1.945      2.441
REMARK  Name = 
REMARK  7 active torsions:
REMARK  status: ('A' for Active; 'I' for Inactive)
REMARK    1  A    between atoms: C_2  and  C_3
REMARK    2  A    between atoms: C_3  and  O_4
REMARK    3  A    between atoms: O_4  and  C_5
REMARK    4  A    between atoms: C_5  and  C_7
REMARK    5  A    between atoms: N_14  and  C_15
REMARK    6  A    between atoms: C_15  and  C_16
REMARK    7  A    between atoms: C_16  and  C_17
REMARK                            x       y       z     vdW  Elec       q    Type
REMARK                         _______ _______ _______ _____ _____    ______ ____
ROOT
ATOM      1  O   UNL     1       7.956   5.441  19.526  0.00  0.00    +0.000 OA
ATOM      2  C   UNL     1       7.492   5.769  18.431  0.00  0.00    +0.000 C 
ATOM      3  N   UNL     1       7.650   7.032  17.893  0.00  0.00    +0.000 N 
ATOM      4  H   UNL     1       7.351   7.172  16.929  0.00  0.00    +0.000 HD
ENDROOT
BRANCH   2   5
ATOM      5  C   UNL     1       6.699   4.778  17.566  0.00  0.00    +0.000 C 
BRANCH   5   6
ATOM      6  O   UNL     1       5.584   5.386  16.915  0.00  0.00    +0.000 OA
BRANCH   6   7
ATOM      7  C   UNL     1       4.399   4.784  17.170  0.00  0.00    +0.000 C 
ATOM      8  O   UNL     1       4.005   3.739  16.670  0.00  0.00    +0.000 OA
BRANCH   7   9
ATOM      9  C   UNL     1       3.594   5.598  18.111  0.00  0.00    +0.000 A 
ATOM     10  C   UNL     1       3.076   5.051  19.291  0.00  0.00    +0.000 A 
ATOM     11  C   UNL     1       2.343   5.854  20.169  0.00  0.00    +0.000 A 
ATOM     12  C   UNL     1       2.122   7.197  19.862  0.00  0.00    +0.000 A 
ATOM     13 BR   UNL     1       1.161   8.289  21.069  0.00  0.00    +0.000 Br
ATOM     14  C   UNL     1       2.615   7.743  18.677  0.00  0.00    +0.000 A 
ATOM     15  C   UNL     1       3.351   6.943  17.799  0.00  0.00    +0.000 A 
ENDBRANCH   7   9
ENDBRANCH   6   7
ENDBRANCH   5   6
ENDBRANCH   2   5
BRANCH   3  16
ATOM     16  C   UNL     1       8.418   8.070  18.581  0.00  0.00    +0.000 C 
BRANCH  16  17
ATOM     17  C   UNL     1       8.351   9.447  17.899  0.00  0.00    +0.000 C 
BRANCH  17  18
ATOM     18  C   UNL     1       9.187  10.505  18.595  0.00  0.00    +0.000 A 
ATOM     19  C   UNL     1       9.313  10.493  19.993  0.00  0.00    +0.000 A 
ATOM     20  C   UNL     1      10.044  11.485  20.656  0.00  0.00    +0.000 A 
ATOM     21  C   UNL     1      10.666  12.500  19.934  0.00  0.00    +0.000 A 
ATOM     22  C   UNL     1      10.567  12.515  18.544  0.00  0.00    +0.000 A 
ATOM     23  C   UNL     1       9.835  11.524  17.879  0.00  0.00    +0.000 A 
ENDBRANCH  17  18
ENDBRANCH  16  17
ENDBRANCH   3  16
TORSDOF 7
ENDMDL
MODEL 6
REMARK VINA RESULT:      -7.1      1.341      1.879
REMARK  Name = 
REMARK  7 active torsions:
REMARK  status: ('A' for Active; 'I' for Inactive)
REMARK    1  A    between atoms: C_2  and  C_3
REMARK    2  A    between atoms: C_3  and  O_4
REMARK    3  A    between atoms: O_4  and  C_5
REMARK    4  A    between atoms: C_5  and  C_7
REMARK    5  A    between atoms: N_14  and  C_15
REMARK    6  A    between atoms: C_15  and  C_16
REMARK    7  A    between atoms: C_16  and  C_17
REMARK                            x       y       z     vdW  Elec       q    Type
REMARK                         _______ _______ _______ _____ _____    ______ ____
ROOT
ATOM      1  O   UNL     1       7.218   7.946  16.866  0.00  0.00    +0.000 OA
ATOM      2  C   UNL     1       7.746   7.494  17.886  0.00  0.00    +0.000 C 
ATOM      3  N   UNL     1       8.548   8.252  18.717  0.00  0.00    +0.000 N 
ATOM      4  H   UNL     1       8.828   7.836  19.604  0.00  0.00    +0.000 HD
ENDROOT
BRANCH   2   5
ATOM      5  C   UNL     1       7.537   6.036  18.318  0.00  0.00    +0.000 C 
BRANCH   5   6
ATOM      6  O   UNL     1       7.521   5.132  17.213  0.00  0.00    +0.000 OA
BRANCH   6   7
ATOM      7  C   UNL     1       6.324   5.044  16.588  0.00  0.00    +0.000 C 
ATOM      8  O   UNL     1       6.147   5.051  15.377  0.00  0.00    +0.000 OA
BRANCH   7   9
ATOM      9  C   UNL     1       5.222   4.993  17.577  0.00  0.00    +0.000 A 
ATOM     10  C   UNL     1       4.263   6.010  17.656  0.00  0.00    +0.000 A 
ATOM     11  C   UNL     1       3.222   5.916  18.583  0.00  0.00    +0.000 A 
ATOM     12  C   UNL     1       3.147   4.814  19.434  0.00  0.00    +0.000 A 
ATOM     13 BR   UNL     1       1.717   4.673  20.663  0.00  0.00    +0.000 Br
ATOM     14  C   UNL     1       4.113   3.808  19.378  0.00  0.00    +0.000 A 
ATOM     15  C   UNL     1       5.153   3.898  18.449  0.00  0.00    +0.000 A 
ENDBRANCH   7   9
ENDBRANCH   6   7
ENDBRANCH   5   6
ENDBRANCH   2   5
BRANCH   3  16
ATOM     16  C   UNL     1       8.803   9.669  18.460  0.00  0.00    +0.000 C 
BRANCH  16  17
ATOM     17  C   UNL     1       9.483  10.401  19.628  0.00  0.00    +0.000 C 
BRANCH  17  18
ATOM     18  C   UNL     1      10.498  11.436  19.181  0.00  0.00    +0.000 A 
ATOM     19  C   UNL     1      11.159  12.229  20.132  0.00  0.00    +0.000 A 
ATOM     20  C   UNL     1      12.066  13.217  19.737  0.00  0.00    +0.000 A 
ATOM     21  C   UNL     1      12.333  13.427  18.387  0.00  0.00    +0.000 A 
ATOM     22  C   UNL     1      11.701  12.636  17.430  0.00  0.00    +0.000 A 
ATOM     23  C   UNL     1      10.791  11.646  17.824  0.00  0.00    +0.000 A 
ENDBRANCH  17  18
ENDBRANCH  16  17
ENDBRANCH   3  16
TORSDOF 7
ENDMDL
MODEL 7
REMARK VINA RESULT:      -7.0      4.022      5.731
REMARK  Name = 
REMARK  7 active torsions:
REMARK  status: ('A' for Active; 'I' for Inactive)
REMARK    1  A    between atoms: C_2  and  C_3
REMARK    2  A    between atoms: C_3  and  O_4
REMARK    3  A    between atoms: O_4  and  C_5
REMARK    4  A    between atoms: C_5  and  C_7
REMARK    5  A    between atoms: N_14  and  C_15
REMARK    6  A    between atoms: C_15  and  C_16
REMARK    7  A    between atoms: C_16  and  C_17
REMARK                            x       y       z     vdW  Elec       q    Type
REMARK                         _______ _______ _______ _____ _____    ______ ____
ROOT
ATOM      1  O   UNL     1       4.245   2.638  17.538  0.00  0.00    +0.000 OA
ATOM      2  C   UNL     1       3.871   3.701  17.037  0.00  0.00    +0.000 C 
ATOM      3  N   UNL     1       4.540   4.321  15.998  0.00  0.00    +0.000 N 
ATOM      4  H   UNL     1       4.086   5.120  15.559  0.00  0.00    +0.000 HD
ENDROOT
BRANCH   2   5
ATOM      5  C   UNL     1       2.610   4.422  17.532  0.00  0.00    +0.000 C 
BRANCH   5   6
ATOM      6  O   UNL     1       2.667   4.738  18.923  0.00  0.00    +0.000 OA
BRANCH   6   7
ATOM      7  C   UNL     1       3.465   5.790  19.218  0.00  0.00    +0.000 C 
ATOM      8  O   UNL     1       4.639   5.726  19.560  0.00  0.00    +0.000 OA
BRANCH   7   9
ATOM      9  C   UNL     1       2.708   7.060  19.127  0.00  0.00    +0.000 A 
ATOM     10  C   UNL     1       2.730   7.844  17.967  0.00  0.00    +0.000 A 
ATOM     11  C   UNL     1       1.982   9.023  17.907  0.00  0.00    +0.000 A 
ATOM     12  C   UNL     1       1.223   9.420  19.007  0.00  0.00    +0.000 A 
ATOM     13 BR   UNL     1       0.184  10.997  18.909  0.00  0.00    +0.000 Br
ATOM     14  C   UNL     1       1.214   8.658  20.175  0.00  0.00    +0.000 A 
ATOM     15  C   UNL     1       1.958   7.476  20.237  0.00  0.00    +0.000 A 
ENDBRANCH   7   9
ENDBRANCH   6   7
ENDBRANCH   5   6
ENDBRANCH   2   5
BRANCH   3  16
ATOM     16  C   UNL     1       5.733   3.731  15.392  0.00  0.00    +0.000 C 
BRANCH  16  17
ATOM     17  C   UNL     1       6.921   4.703  15.286  0.00  0.00    +0.000 C 
BRANCH  17  18
ATOM     18  C   UNL     1       7.275   5.368  16.603  0.00  0.00    +0.000 A 
ATOM     19  C   UNL     1       7.290   6.768  16.701  0.00  0.00    +0.000 A 
ATOM     20  C   UNL     1       7.655   7.400  17.894  0.00  0.00    +0.000 A 
ATOM     21  C   UNL     1       8.003   6.645  19.011  0.00  0.00    +0.000 A 
ATOM     22  C   UNL     1       7.974   5.254  18.937  0.00  0.00    +0.000 A 
ATOM     23  C   UNL     1       7.611   4.619  17.742  0.00  0.00    +0.000 A 
ENDBRANCH  17  18
ENDBRANCH  16  17
ENDBRANCH   3  16
TORSDOF 7
ENDMDL
MODEL 8
REMARK VINA RESULT:      -7.0      4.350      5.786
REMARK  Name = 
REMARK  7 active torsions:
REMARK  status: ('A' for Active; 'I' for Inactive)
REMARK    1  A    between atoms: C_2  and  C_3
REMARK    2  A    between atoms: C_3  and  O_4
REMARK    3  A    between atoms: O_4  and  C_5
REMARK    4  A    between atoms: C_5  and  C_7
REMARK    5  A    between atoms: N_14  and  C_15
REMARK    6  A    between atoms: C_15  and  C_16
REMARK    7  A    between atoms: C_16  and  C_17
REMARK                            x       y       z     vdW  Elec       q    Type
REMARK                         _______ _______ _______ _____ _____    ______ ____
ROOT
ATOM      1  O   UNL     1       5.179   6.834  15.230  0.00  0.00    +0.000 OA
ATOM      2  C   UNL     1       5.612   6.635  16.368  0.00  0.00    +0.000 C 
ATOM      3  N   UNL     1       4.957   7.061  17.508  0.00  0.00    +0.000 N 
ATOM      4  H   UNL     1       5.317   6.735  18.404  0.00  0.00    +0.000 HD
ENDROOT
BRANCH   2   5
ATOM      5  C   UNL     1       6.926   5.878  16.605  0.00  0.00    +0.000 C 
BRANCH   5   6
ATOM      6  O   UNL     1       6.727   4.614  17.237  0.00  0.00    +0.000 OA
BRANCH   6   7
ATOM      7  C   UNL     1       5.782   3.845  16.649  0.00  0.00    +0.000 C 
ATOM      8  O   UNL     1       5.855   3.347  15.534  0.00  0.00    +0.000 OA
BRANCH   7   9
ATOM      9  C   UNL     1       4.592   3.723  17.524  0.00  0.00    +0.000 A 
ATOM     10  C   UNL     1       3.306   3.567  16.993  0.00  0.00    +0.000 A 
ATOM     11  C   UNL     1       2.209   3.429  17.847  0.00  0.00    +0.000 A 
ATOM     12  C   UNL     1       2.399   3.457  19.229  0.00  0.00    +0.000 A 
ATOM     13 BR   UNL     1       0.917   3.233  20.383  0.00  0.00    +0.000 Br
ATOM     14  C   UNL     1       3.674   3.636  19.766  0.00  0.00    +0.000 A 
ATOM     15  C   UNL     1       4.772   3.771  18.914  0.00  0.00    +0.000 A 
ENDBRANCH   7   9
ENDBRANCH   6   7
ENDBRANCH   5   6
ENDBRANCH   2   5
BRANCH   3  16
ATOM     16  C   UNL     1       3.672   7.756  17.443  0.00  0.00    +0.000 C 
BRANCH  16  17
ATOM     17  C   UNL     1       2.556   7.077  18.255  0.00  0.00    +0.000 C 
BRANCH  17  18
ATOM     18  C   UNL     1       1.868   8.011  19.232  0.00  0.00    +0.000 A 
ATOM     19  C   UNL     1       1.409   9.265  18.801  0.00  0.00    +0.000 A 
ATOM     20  C   UNL     1       0.810  10.157  19.697  0.00  0.00    +0.000 A 
ATOM     21  C   UNL     1       0.655   9.809  21.036  0.00  0.00    +0.000 A 
ATOM     22  C   UNL     1       1.087   8.561  21.477  0.00  0.00    +0.000 A 
ATOM     23  C   UNL     1       1.688   7.666  20.582  0.00  0.00    +0.000 A 
ENDBRANCH  17  18
ENDBRANCH  16  17
ENDBRANCH   3  16
TORSDOF 7
ENDMDL
MODEL 9
REMARK VINA RESULT:      -6.9      2.195      2.418
REMARK  Name = 
REMARK  7 active torsions:
REMARK  status: ('A' for Active; 'I' for Inactive)
REMARK    1  A    between atoms: C_2  and  C_3
REMARK    2  A    between atoms: C_3  and  O_4
REMARK    3  A    between atoms: O_4  and  C_5
REMARK    4  A    between atoms: C_5  and  C_7
REMARK    5  A    between atoms: N_14  and  C_15
REMARK    6  A    between atoms: C_15  and  C_16
REMARK    7  A    between atoms: C_16  and  C_17
REMARK                            x       y       z     vdW  Elec       q    Type
REMARK                         _______ _______ _______ _____ _____    ______ ____
ROOT
ATOM      1  O   UNL     1       7.543   6.361  16.131  0.00  0.00    +0.000 OA
ATOM      2  C   UNL     1       7.018   6.546  17.232  0.00  0.00    +0.000 C 
ATOM      3  N   UNL     1       7.379   7.580  18.075  0.00  0.00    +0.000 N 
ATOM      4  H   UNL     1       6.801   7.736  18.899  0.00  0.00    +0.000 HD
ENDROOT
BRANCH   2   5
ATOM      5  C   UNL     1       5.900   5.631  17.751  0.00  0.00    +0.000 C 
BRANCH   5   6
ATOM      6  O   UNL     1       4.767   5.601  16.884  0.00  0.00    +0.000 OA
BRANCH   6   7
ATOM      7  C   UNL     1       3.663   5.045  17.434  0.00  0.00    +0.000 C 
ATOM      8  O   UNL     1       3.214   3.936  17.176  0.00  0.00    +0.000 OA
BRANCH   7   9
ATOM      9  C   UNL     1       3.016   5.993  18.373  0.00  0.00    +0.000 A 
ATOM     10  C   UNL     1       2.753   7.318  18.008  0.00  0.00    +0.000 A 
ATOM     11  C   UNL     1       2.118   8.177  18.908  0.00  0.00    +0.000 A 
ATOM     12  C   UNL     1       1.756   7.713  20.173  0.00  0.00    +0.000 A 
ATOM     13 BR   UNL     1       0.864   8.867  21.375  0.00  0.00    +0.000 Br
ATOM     14  C   UNL     1       2.035   6.400  20.552  0.00  0.00    +0.000 A 
ATOM     15  C   UNL     1       2.668   5.538  19.652  0.00  0.00    +0.000 A 
ENDBRANCH   7   9
ENDBRANCH   6   7
ENDBRANCH   5   6
ENDBRANCH   2   5
BRANCH   3  16
ATOM     16  C   UNL     1       8.398   8.559  17.699  0.00  0.00    +0.000 C 
BRANCH  16  17
ATOM     17  C   UNL     1       8.077   9.995  18.146  0.00  0.00    +0.000 C 
BRANCH  17  18
ATOM     18  C   UNL     1       9.273  10.730  18.719  0.00  0.00    +0.000 A 
ATOM     19  C   UNL     1      10.300  11.171  17.871  0.00  0.00    +0.000 A 
ATOM     20  C   UNL     1      11.431  11.813  18.386  0.00  0.00    +0.000 A 
ATOM     21  C   UNL     1      11.552  12.030  19.756  0.00  0.00    +0.000 A 
ATOM     22  C   UNL     1      10.534  11.616  20.611  0.00  0.00    +0.000 A 
ATOM     23  C   UNL     1       9.400  10.972  20.097  0.00  0.00    +0.000 A 
ENDBRANCH  17  18
ENDBRANCH  16  17
ENDBRANCH   3  16
TORSDOF 7
ENDMDL
