MODEL 1
REMARK VINA RESULT:      -8.1      0.000      0.000
REMARK  Name = 
REMARK  5 active torsions:
REMARK  status: ('A' for Active; 'I' for Inactive)
REMARK    1  A    between atoms: C_1  and  C_2
REMARK    2  A    between atoms: C_2  and  C_3
REMARK    3  A    between atoms: C_4  and  C_5
REMARK    4  A    between atoms: C_5  and  N_6
REMARK    5  A    between atoms: C_10  and  C_11
REMARK                            x       y       z     vdW  Elec       q    Type
REMARK                         _______ _______ _______ _____ _____    ______ ____
ROOT
ATOM      1  C   UNL     1       4.687   5.579  16.873  0.00  0.00    +0.000 C 
ENDROOT
BRANCH   1   3
ATOM      2  C   UNL     1       2.910   5.192  18.627  0.00  0.00    +0.000 A 
ATOM      3  C   UNL     1       3.603   4.726  17.540  0.00  0.00    +0.000 A 
ATOM      4  N   UNL     1       3.388   3.474  16.962  0.00  0.00    +0.000 NA
ATOM      5  C   UNL     1       2.491   2.691  17.477  0.00  0.00    +0.000 A 
ATOM      6  N   UNL     1       1.743   3.115  18.554  0.00  0.00    +0.000 N 
ATOM      7  N   UNL     1       0.757   2.396  19.124  0.00  0.00    +0.000 NA
ATOM      8  C   UNL     1       0.337   3.254  20.059  0.00  0.00    +0.000 A 
ATOM      9  N   UNL     1       1.007   4.450  20.114  0.00  0.00    +0.000 NA
ATOM     10  C   UNL     1       1.896   4.333  19.148  0.00  0.00    +0.000 A 
BRANCH   2  12
ATOM     11  C   UNL     1       2.339   7.652  18.558  0.00  0.00    +0.000 C 
ATOM     12  C   UNL     1       3.159   6.562  19.238  0.00  0.00    +0.000 C 
ENDBRANCH   2  12
ENDBRANCH   1   3
BRANCH   1  13
ATOM     13  N   UNL     1       6.063   5.210  17.202  0.00  0.00    +0.000 N 
ATOM     14  C   UNL     1       6.545   5.127  18.490  0.00  0.00    +0.000 A 
ATOM     15  C   UNL     1       7.843   4.711  18.366  0.00  0.00    +0.000 A 
ATOM     16  N   UNL     1       8.145   4.483  17.055  0.00  0.00    +0.000 NA
ATOM     17  C   UNL     1       7.063   4.783  16.348  0.00  0.00    +0.000 A 
BRANCH  17  18
ATOM     18  C   UNL     1       6.987   4.684  14.885  0.00  0.00    +0.000 A 
ATOM     19  N   UNL     1       7.793   5.518  14.171  0.00  0.00    +0.000 NA
ATOM     20  C   UNL     1       7.835   5.329  12.831  0.00  0.00    +0.000 A 
ATOM     21  C   UNL     1       7.101   4.363  12.159  0.00  0.00    +0.000 A 
ATOM     22  C   UNL     1       6.248   3.552  12.900  0.00  0.00    +0.000 A 
ATOM     23  C   UNL     1       6.186   3.718  14.277  0.00  0.00    +0.000 A 
ATOM     24  F   UNL     1       5.348   2.940  14.975  0.00  0.00    +0.000 F 
ENDBRANCH  17  18
ENDBRANCH   1  13
TORSDOF 4
ENDMDL
MODEL 2
REMARK VINA RESULT:      -8.1      2.615      6.575
REMARK  Name = 
REMARK  5 active torsions:
REMARK  status: ('A' for Active; 'I' for Inactive)
REMARK    1  A    between atoms: C_1  and  C_2
REMARK    2  A    between atoms: C_2  and  C_3
REMARK    3  A    between atoms: C_4  and  C_5
REMARK    4  A    between atoms: C_5  and  N_6
REMARK    5  A    between atoms: C_10  and  C_11
REMARK                            x       y       z     vdW  Elec       q    Type
REMARK                         _______ _______ _______ _____ _____    ______ ____
ROOT
ATOM      1  C   UNL     1       4.925   5.449  19.334  0.00  0.00    +0.000 C 
ENDROOT
BRANCH   1   3
ATOM      2  C   UNL     1       6.421   5.578  17.302  0.00  0.00    +0.000 A 
ATOM      3  C   UNL     1       5.252   5.142  17.869  0.00  0.00    +0.000 A 
ATOM      4  N   UNL     1       4.287   4.401  17.184  0.00  0.00    +0.000 NA
ATOM      5  C   UNL     1       4.489   4.109  15.937  0.00  0.00    +0.000 A 
ATOM      6  N   UNL     1       5.658   4.498  15.319  0.00  0.00    +0.000 N 
ATOM      7  N   UNL     1       5.979   4.198  14.046  0.00  0.00    +0.000 NA
ATOM      8  C   UNL     1       7.195   4.747  13.964  0.00  0.00    +0.000 A 
ATOM      9  N   UNL     1       7.641   5.378  15.099  0.00  0.00    +0.000 NA
ATOM     10  C   UNL     1       6.643   5.206  15.942  0.00  0.00    +0.000 A 
BRANCH   2  12
ATOM     11  C   UNL     1       7.563   7.816  17.564  0.00  0.00    +0.000 C 
ATOM     12  C   UNL     1       7.460   6.382  18.068  0.00  0.00    +0.000 C 
ENDBRANCH   2  12
ENDBRANCH   1   3
BRANCH   1  13
ATOM     13  N   UNL     1       3.617   4.985  19.793  0.00  0.00    +0.000 N 
ATOM     14  C   UNL     1       3.394   3.738  20.334  0.00  0.00    +0.000 A 
ATOM     15  C   UNL     1       2.068   3.720  20.672  0.00  0.00    +0.000 A 
ATOM     16  N   UNL     1       1.495   4.931  20.411  0.00  0.00    +0.000 NA
ATOM     17  C   UNL     1       2.436   5.700  19.879  0.00  0.00    +0.000 A 
BRANCH  17  18
ATOM     18  C   UNL     1       2.213   7.084  19.443  0.00  0.00    +0.000 A 
ATOM     19  N   UNL     1       2.522   7.377  18.148  0.00  0.00    +0.000 NA
ATOM     20  C   UNL     1       2.181   8.608  17.701  0.00  0.00    +0.000 A 
ATOM     21  C   UNL     1       1.563   9.575  18.482  0.00  0.00    +0.000 A 
ATOM     22  C   UNL     1       1.299   9.274  19.813  0.00  0.00    +0.000 A 
ATOM     23  C   UNL     1       1.632   8.017  20.301  0.00  0.00    +0.000 A 
ATOM     24  F   UNL     1       1.386   7.747  21.590  0.00  0.00    +0.000 F 
ENDBRANCH  17  18
ENDBRANCH   1  13
TORSDOF 4
ENDMDL
MODEL 3
REMARK VINA RESULT:      -7.9      0.955      2.112
REMARK  Name = 
REMARK  5 active torsions:
REMARK  status: ('A' for Active; 'I' for Inactive)
REMARK    1  A    between atoms: C_1  and  C_2
REMARK    2  A    between atoms: C_2  and  C_3
REMARK    3  A    between atoms: C_4  and  C_5
REMARK    4  A    between atoms: C_5  and  N_6
REMARK    5  A    between atoms: C_10  and  C_11
REMARK                            x       y       z     vdW  Elec       q    Type
REMARK                         _______ _______ _______ _____ _____    ______ ____
ROOT
ATOM      1  C   UNL     1       4.811   5.827  16.677  0.00  0.00    +0.000 C 
ENDROOT
BRANCH   1   3
ATOM      2  C   UNL     1       3.080   4.457  17.905  0.00  0.00    +0.000 A 
ATOM      3  C   UNL     1       3.737   5.650  17.755  0.00  0.00    +0.000 A 
ATOM      4  N   UNL     1       3.496   6.774  18.548  0.00  0.00    +0.000 NA
ATOM      5  C   UNL     1       2.594   6.703  19.478  0.00  0.00    +0.000 A 
ATOM      6  N   UNL     1       1.918   5.522  19.694  0.00  0.00    +0.000 N 
ATOM      7  N   UNL     1       1.004   5.338  20.666  0.00  0.00    +0.000 NA
ATOM      8  C   UNL     1       0.703   4.048  20.478  0.00  0.00    +0.000 A 
ATOM      9  N   UNL     1       1.361   3.428  19.445  0.00  0.00    +0.000 NA
ATOM     10  C   UNL     1       2.125   4.389  18.964  0.00  0.00    +0.000 A 
BRANCH   2  12
ATOM     11  C   UNL     1       3.715   2.013  17.857  0.00  0.00    +0.000 C 
ATOM     12  C   UNL     1       3.361   3.245  17.032  0.00  0.00    +0.000 C 
ENDBRANCH   2  12
ENDBRANCH   1   3
BRANCH   1  13
ATOM     13  N   UNL     1       6.131   5.302  17.019  0.00  0.00    +0.000 N 
ATOM     14  C   UNL     1       6.587   5.158  18.310  0.00  0.00    +0.000 A 
ATOM     15  C   UNL     1       7.830   4.598  18.197  0.00  0.00    +0.000 A 
ATOM     16  N   UNL     1       8.119   4.343  16.888  0.00  0.00    +0.000 NA
ATOM     17  C   UNL     1       7.086   4.768  16.172  0.00  0.00    +0.000 A 
BRANCH  17  18
ATOM     18  C   UNL     1       7.015   4.685  14.708  0.00  0.00    +0.000 A 
ATOM     19  N   UNL     1       7.837   5.516  14.006  0.00  0.00    +0.000 NA
ATOM     20  C   UNL     1       7.883   5.340  12.665  0.00  0.00    +0.000 A 
ATOM     21  C   UNL     1       7.138   4.392  11.979  0.00  0.00    +0.000 A 
ATOM     22  C   UNL     1       6.270   3.585  12.707  0.00  0.00    +0.000 A 
ATOM     23  C   UNL     1       6.204   3.738  14.086  0.00  0.00    +0.000 A 
ATOM     24  F   UNL     1       5.351   2.965  14.772  0.00  0.00    +0.000 F 
ENDBRANCH  17  18
ENDBRANCH   1  13
TORSDOF 4
ENDMDL
MODEL 4
REMARK VINA RESULT:      -7.7      1.959      6.325
REMARK  Name = 
REMARK  5 active torsions:
REMARK  status: ('A' for Active; 'I' for Inactive)
REMARK    1  A    between atoms: C_1  and  C_2
REMARK    2  A    between atoms: C_2  and  C_3
REMARK    3  A    between atoms: C_4  and  C_5
REMARK    4  A    between atoms: C_5  and  N_6
REMARK    5  A    between atoms: C_10  and  C_11
REMARK                            x       y       z     vdW  Elec       q    Type
REMARK                         _______ _______ _______ _____ _____    ______ ____
ROOT
ATOM      1  C   UNL     1       5.156   4.760  19.319  0.00  0.00    +0.000 C 
ENDROOT
BRANCH   1   3
ATOM      2  C   UNL     1       6.515   5.301  17.260  0.00  0.00    +0.000 A 
ATOM      3  C   UNL     1       5.480   4.606  17.830  0.00  0.00    +0.000 A 
ATOM      4  N   UNL     1       4.658   3.724  17.128  0.00  0.00    +0.000 NA
ATOM      5  C   UNL     1       4.866   3.548  15.859  0.00  0.00    +0.000 A 
ATOM      6  N   UNL     1       5.908   4.198  15.235  0.00  0.00    +0.000 N 
ATOM      7  N   UNL     1       6.233   4.040  13.938  0.00  0.00    +0.000 NA
ATOM      8  C   UNL     1       7.310   4.828  13.857  0.00  0.00    +0.000 A 
ATOM      9  N   UNL     1       7.664   5.473  15.016  0.00  0.00    +0.000 NA
ATOM     10  C   UNL     1       6.754   5.056  15.873  0.00  0.00    +0.000 A 
BRANCH   2  12
ATOM     11  C   UNL     1       7.347   7.674  17.494  0.00  0.00    +0.000 C 
ATOM     12  C   UNL     1       7.401   6.254  18.046  0.00  0.00    +0.000 C 
ENDBRANCH   2  12
ENDBRANCH   1   3
BRANCH   1  13
ATOM     13  N   UNL     1       3.919   4.118  19.759  0.00  0.00    +0.000 N 
ATOM     14  C   UNL     1       3.847   2.815  20.197  0.00  0.00    +0.000 A 
ATOM     15  C   UNL     1       2.540   2.622  20.554  0.00  0.00    +0.000 A 
ATOM     16  N   UNL     1       1.831   3.779  20.404  0.00  0.00    +0.000 NA
ATOM     17  C   UNL     1       2.669   4.688  19.922  0.00  0.00    +0.000 A 
BRANCH  17  18
ATOM     18  C   UNL     1       2.285   6.070  19.607  0.00  0.00    +0.000 A 
ATOM     19  N   UNL     1       1.903   6.854  20.654  0.00  0.00    +0.000 NA
ATOM     20  C   UNL     1       1.691   8.165  20.390  0.00  0.00    +0.000 A 
ATOM     21  C   UNL     1       1.821   8.736  19.132  0.00  0.00    +0.000 A 
ATOM     22  C   UNL     1       2.167   7.910  18.068  0.00  0.00    +0.000 A 
ATOM     23  C   UNL     1       2.395   6.561  18.307  0.00  0.00    +0.000 A 
ATOM     24  F   UNL     1       2.711   5.774  17.269  0.00  0.00    +0.000 F 
ENDBRANCH  17  18
ENDBRANCH   1  13
TORSDOF 4
ENDMDL
MODEL 5
REMARK VINA RESULT:      -7.6      1.714      1.837
REMARK  Name = 
REMARK  5 active torsions:
REMARK  status: ('A' for Active; 'I' for Inactive)
REMARK    1  A    between atoms: C_1  and  C_2
REMARK    2  A    between atoms: C_2  and  C_3
REMARK    3  A    between atoms: C_4  and  C_5
REMARK    4  A    between atoms: C_5  and  N_6
REMARK    5  A    between atoms: C_10  and  C_11
REMARK                            x       y       z     vdW  Elec       q    Type
REMARK                         _______ _______ _______ _____ _____    ______ ____
ROOT
ATOM      1  C   UNL     1       5.330   3.632  17.326  0.00  0.00    +0.000 C 
ENDROOT
BRANCH   1   3
ATOM      2  C   UNL     1       3.272   3.912  18.764  0.00  0.00    +0.000 A 
ATOM      3  C   UNL     1       4.516   3.362  18.596  0.00  0.00    +0.000 A 
ATOM      4  N   UNL     1       5.131   2.532  19.534  0.00  0.00    +0.000 NA
ATOM      5  C   UNL     1       4.506   2.263  20.639  0.00  0.00    +0.000 A 
ATOM      6  N   UNL     1       3.241   2.766  20.854  0.00  0.00    +0.000 N 
ATOM      7  N   UNL     1       2.495   2.501  21.944  0.00  0.00    +0.000 NA
ATOM      8  C   UNL     1       1.376   3.168  21.643  0.00  0.00    +0.000 A 
ATOM      9  N   UNL     1       1.386   3.837  20.444  0.00  0.00    +0.000 NA
ATOM     10  C   UNL     1       2.584   3.565  19.967  0.00  0.00    +0.000 A 
BRANCH   2  12
ATOM     11  C   UNL     1       2.681   6.282  18.122  0.00  0.00    +0.000 C 
ATOM     12  C   UNL     1       2.619   4.811  17.726  0.00  0.00    +0.000 C 
ENDBRANCH   2  12
ENDBRANCH   1   3
BRANCH   1  13
ATOM     13  N   UNL     1       6.110   4.868  17.336  0.00  0.00    +0.000 N 
ATOM     14  C   UNL     1       6.426   5.564  18.482  0.00  0.00    +0.000 A 
ATOM     15  C   UNL     1       7.195   6.618  18.067  0.00  0.00    +0.000 A 
ATOM     16  N   UNL     1       7.405   6.551  16.720  0.00  0.00    +0.000 NA
ATOM     17  C   UNL     1       6.749   5.487  16.276  0.00  0.00    +0.000 A 
BRANCH  17  18
ATOM     18  C   UNL     1       6.713   5.075  14.868  0.00  0.00    +0.000 A 
ATOM     19  N   UNL     1       7.810   5.370  14.115  0.00  0.00    +0.000 NA
ATOM     20  C   UNL     1       7.844   4.864  12.859  0.00  0.00    +0.000 A 
ATOM     21  C   UNL     1       6.833   4.093  12.304  0.00  0.00    +0.000 A 
ATOM     22  C   UNL     1       5.702   3.842  13.072  0.00  0.00    +0.000 A 
ATOM     23  C   UNL     1       5.638   4.343  14.365  0.00  0.00    +0.000 A 
ATOM     24  F   UNL     1       4.534   4.107  15.087  0.00  0.00    +0.000 F 
ENDBRANCH  17  18
ENDBRANCH   1  13
TORSDOF 4
ENDMDL
MODEL 6
REMARK VINA RESULT:      -7.6      2.125      3.473
REMARK  Name = 
REMARK  5 active torsions:
REMARK  status: ('A' for Active; 'I' for Inactive)
REMARK    1  A    between atoms: C_1  and  C_2
REMARK    2  A    between atoms: C_2  and  C_3
REMARK    3  A    between atoms: C_4  and  C_5
REMARK    4  A    between atoms: C_5  and  N_6
REMARK    5  A    between atoms: C_10  and  C_11
REMARK                            x       y       z     vdW  Elec       q    Type
REMARK                         _______ _______ _______ _____ _____    ______ ____
ROOT
ATOM      1  C   UNL     1       4.259   5.698  16.988  0.00  0.00    +0.000 C 
ENDROOT
BRANCH   1   3
ATOM      2  C   UNL     1       2.784   5.163  18.967  0.00  0.00    +0.000 A 
ATOM      3  C   UNL     1       3.863   4.835  18.189  0.00  0.00    +0.000 A 
ATOM      4  N   UNL     1       4.671   3.719  18.415  0.00  0.00    +0.000 NA
ATOM      5  C   UNL     1       4.403   2.943  19.420  0.00  0.00    +0.000 A 
ATOM      6  N   UNL     1       3.315   3.207  20.222  0.00  0.00    +0.000 N 
ATOM      7  N   UNL     1       2.928   2.433  21.254  0.00  0.00    +0.000 NA
ATOM      8  C   UNL     1       1.829   3.083  21.650  0.00  0.00    +0.000 A 
ATOM      9  N   UNL     1       1.518   4.214  20.938  0.00  0.00    +0.000 NA
ATOM     10  C   UNL     1       2.480   4.269  20.039  0.00  0.00    +0.000 A 
BRANCH   2  12
ATOM     11  C   UNL     1       2.186   7.507  19.691  0.00  0.00    +0.000 C 
ATOM     12  C   UNL     1       1.914   6.382  18.701  0.00  0.00    +0.000 C 
ENDBRANCH   2  12
ENDBRANCH   1   3
BRANCH   1  13
ATOM     13  N   UNL     1       5.314   5.145  16.141  0.00  0.00    +0.000 N 
ATOM     14  C   UNL     1       5.079   4.291  15.087  0.00  0.00    +0.000 A 
ATOM     15  C   UNL     1       6.307   4.049  14.534  0.00  0.00    +0.000 A 
ATOM     16  N   UNL     1       7.268   4.773  15.178  0.00  0.00    +0.000 NA
ATOM     17  C   UNL     1       6.665   5.441  16.153  0.00  0.00    +0.000 A 
BRANCH  17  18
ATOM     18  C   UNL     1       7.362   6.329  17.090  0.00  0.00    +0.000 A 
ATOM     19  N   UNL     1       7.433   7.647  16.749  0.00  0.00    +0.000 NA
ATOM     20  C   UNL     1       7.943   8.492  17.675  0.00  0.00    +0.000 A 
ATOM     21  C   UNL     1       8.405   8.093  18.921  0.00  0.00    +0.000 A 
ATOM     22  C   UNL     1       8.367   6.738  19.233  0.00  0.00    +0.000 A 
ATOM     23  C   UNL     1       7.846   5.846  18.305  0.00  0.00    +0.000 A 
ATOM     24  F   UNL     1       7.831   4.542  18.614  0.00  0.00    +0.000 F 
ENDBRANCH  17  18
ENDBRANCH   1  13
TORSDOF 4
ENDMDL
MODEL 7
REMARK VINA RESULT:      -7.5      1.969      6.684
REMARK  Name = 
REMARK  5 active torsions:
REMARK  status: ('A' for Active; 'I' for Inactive)
REMARK    1  A    between atoms: C_1  and  C_2
REMARK    2  A    between atoms: C_2  and  C_3
REMARK    3  A    between atoms: C_4  and  C_5
REMARK    4  A    between atoms: C_5  and  N_6
REMARK    5  A    between atoms: C_10  and  C_11
REMARK                            x       y       z     vdW  Elec       q    Type
REMARK                         _______ _______ _______ _____ _____    ______ ____
ROOT
ATOM      1  C   UNL     1       5.007   5.444  18.359  0.00  0.00    +0.000 C 
ENDROOT
BRANCH   1   3
ATOM      2  C   UNL     1       6.550   5.688  16.375  0.00  0.00    +0.000 A 
ATOM      3  C   UNL     1       5.469   5.071  16.947  0.00  0.00    +0.000 A 
ATOM      4  N   UNL     1       4.717   4.079  16.316  0.00  0.00    +0.000 NA
ATOM      5  C   UNL     1       5.043   3.715  15.114  0.00  0.00    +0.000 A 
ATOM      6  N   UNL     1       6.137   4.280  14.496  0.00  0.00    +0.000 N 
ATOM      7  N   UNL     1       6.582   3.932  13.273  0.00  0.00    +0.000 NA
ATOM      8  C   UNL     1       7.660   4.717  13.172  0.00  0.00    +0.000 A 
ATOM      9  N   UNL     1       7.902   5.536  14.246  0.00  0.00    +0.000 NA
ATOM     10  C   UNL     1       6.918   5.239  15.070  0.00  0.00    +0.000 A 
BRANCH   2  12
ATOM     11  C   UNL     1       7.872   6.297  18.439  0.00  0.00    +0.000 C 
ATOM     12  C   UNL     1       7.356   6.765  17.083  0.00  0.00    +0.000 C 
ENDBRANCH   2  12
ENDBRANCH   1   3
BRANCH   1  13
ATOM     13  N   UNL     1       3.837   6.318  18.424  0.00  0.00    +0.000 N 
ATOM     14  C   UNL     1       3.778   7.562  17.835  0.00  0.00    +0.000 A 
ATOM     15  C   UNL     1       2.514   8.023  18.086  0.00  0.00    +0.000 A 
ATOM     16  N   UNL     1       1.787   7.079  18.752  0.00  0.00    +0.000 NA
ATOM     17  C   UNL     1       2.590   6.042  18.956  0.00  0.00    +0.000 A 
BRANCH  17  18
ATOM     18  C   UNL     1       2.185   4.819  19.659  0.00  0.00    +0.000 A 
ATOM     19  N   UNL     1       2.573   4.702  20.960  0.00  0.00    +0.000 NA
ATOM     20  C   UNL     1       2.079   3.650  21.654  0.00  0.00    +0.000 A 
ATOM     21  C   UNL     1       1.231   2.693  21.115  0.00  0.00    +0.000 A 
ATOM     22  C   UNL     1       0.884   2.803  19.773  0.00  0.00    +0.000 A 
ATOM     23  C   UNL     1       1.370   3.875  19.036  0.00  0.00    +0.000 A 
ATOM     24  F   UNL     1       1.040   3.958  17.739  0.00  0.00    +0.000 F 
ENDBRANCH  17  18
ENDBRANCH   1  13
TORSDOF 4
ENDMDL
MODEL 8
REMARK VINA RESULT:      -7.5      1.920      2.146
REMARK  Name = 
REMARK  5 active torsions:
REMARK  status: ('A' for Active; 'I' for Inactive)
REMARK    1  A    between atoms: C_1  and  C_2
REMARK    2  A    between atoms: C_2  and  C_3
REMARK    3  A    between atoms: C_4  and  C_5
REMARK    4  A    between atoms: C_5  and  N_6
REMARK    5  A    between atoms: C_10  and  C_11
REMARK                            x       y       z     vdW  Elec       q    Type
REMARK                         _______ _______ _______ _____ _____    ______ ____
ROOT
ATOM      1  C   UNL     1       4.638   3.941  16.798  0.00  0.00    +0.000 C 
ENDROOT
BRANCH   1   3
ATOM      2  C   UNL     1       2.937   4.144  18.654  0.00  0.00    +0.000 A 
ATOM      3  C   UNL     1       4.095   3.582  18.185  0.00  0.00    +0.000 A 
ATOM      4  N   UNL     1       4.858   2.662  18.906  0.00  0.00    +0.000 NA
ATOM      5  C   UNL     1       4.465   2.314  20.093  0.00  0.00    +0.000 A 
ATOM      6  N   UNL     1       3.294   2.826  20.608  0.00  0.00    +0.000 N 
ATOM      7  N   UNL     1       2.780   2.487  21.806  0.00  0.00    +0.000 NA
ATOM      8  C   UNL     1       1.650   3.202  21.799  0.00  0.00    +0.000 A 
ATOM      9  N   UNL     1       1.439   3.970  20.682  0.00  0.00    +0.000 NA
ATOM     10  C   UNL     1       2.500   3.713  19.943  0.00  0.00    +0.000 A 
BRANCH   2  12
ATOM     11  C   UNL     1       2.444   6.584  18.226  0.00  0.00    +0.000 C 
ATOM     12  C   UNL     1       2.119   5.143  17.850  0.00  0.00    +0.000 C 
ENDBRANCH   2  12
ENDBRANCH   1   3
BRANCH   1  13
ATOM     13  N   UNL     1       5.718   4.925  16.786  0.00  0.00    +0.000 N 
ATOM     14  C   UNL     1       6.085   5.672  17.883  0.00  0.00    +0.000 A 
ATOM     15  C   UNL     1       7.150   6.426  17.471  0.00  0.00    +0.000 A 
ATOM     16  N   UNL     1       7.478   6.119  16.182  0.00  0.00    +0.000 NA
ATOM     17  C   UNL     1       6.611   5.206  15.766  0.00  0.00    +0.000 A 
BRANCH  17  18
ATOM     18  C   UNL     1       6.617   4.623  14.419  0.00  0.00    +0.000 A 
ATOM     19  N   UNL     1       5.611   3.753  14.122  0.00  0.00    +0.000 NA
ATOM     20  C   UNL     1       5.528   3.329  12.839  0.00  0.00    +0.000 A 
ATOM     21  C   UNL     1       6.407   3.710  11.836  0.00  0.00    +0.000 A 
ATOM     22  C   UNL     1       7.455   4.561  12.169  0.00  0.00    +0.000 A 
ATOM     23  C   UNL     1       7.565   5.018  13.476  0.00  0.00    +0.000 A 
ATOM     24  F   UNL     1       8.590   5.824  13.786  0.00  0.00    +0.000 F 
ENDBRANCH  17  18
ENDBRANCH   1  13
TORSDOF 4
ENDMDL
MODEL 9
REMARK VINA RESULT:      -7.3      2.078      3.077
REMARK  Name = 
REMARK  5 active torsions:
REMARK  status: ('A' for Active; 'I' for Inactive)
REMARK    1  A    between atoms: C_1  and  C_2
REMARK    2  A    between atoms: C_2  and  C_3
REMARK    3  A    between atoms: C_4  and  C_5
REMARK    4  A    between atoms: C_5  and  N_6
REMARK    5  A    between atoms: C_10  and  C_11
REMARK                            x       y       z     vdW  Elec       q    Type
REMARK                         _______ _______ _______ _____ _____    ______ ____
ROOT
ATOM      1  C   UNL     1       4.216   5.218  17.826  0.00  0.00    +0.000 C 
ENDROOT
BRANCH   1   3
ATOM      2  C   UNL     1       2.663   6.264  19.521  0.00  0.00    +0.000 A 
ATOM      3  C   UNL     1       3.361   6.377  18.347  0.00  0.00    +0.000 A 
ATOM      4  N   UNL     1       3.358   7.523  17.550  0.00  0.00    +0.000 NA
ATOM      5  C   UNL     1       2.651   8.545  17.923  0.00  0.00    +0.000 A 
ATOM      6  N   UNL     1       1.948   8.500  19.106  0.00  0.00    +0.000 N 
ATOM      7  N   UNL     1       1.228   9.526  19.600  0.00  0.00    +0.000 NA
ATOM      8  C   UNL     1       0.806   8.997  20.754  0.00  0.00    +0.000 A 
ATOM      9  N   UNL     1       1.207   7.707  20.998  0.00  0.00    +0.000 NA
ATOM     10  C   UNL     1       1.928   7.417  19.934  0.00  0.00    +0.000 A 
BRANCH   2  12
ATOM     11  C   UNL     1       1.383   4.220  20.271  0.00  0.00    +0.000 C 
ATOM     12  C   UNL     1       2.683   5.007  20.376  0.00  0.00    +0.000 C 
ENDBRANCH   2  12
ENDBRANCH   1   3
BRANCH   1  13
ATOM     13  N   UNL     1       5.645   5.316  18.115  0.00  0.00    +0.000 N 
ATOM     14  C   UNL     1       6.158   5.527  19.375  0.00  0.00    +0.000 A 
ATOM     15  C   UNL     1       7.518   5.507  19.223  0.00  0.00    +0.000 A 
ATOM     16  N   UNL     1       7.846   5.232  17.927  0.00  0.00    +0.000 NA
ATOM     17  C   UNL     1       6.709   5.114  17.254  0.00  0.00    +0.000 A 
BRANCH  17  18
ATOM     18  C   UNL     1       6.635   4.832  15.815  0.00  0.00    +0.000 A 
ATOM     19  N   UNL     1       7.391   5.615  14.996  0.00  0.00    +0.000 NA
ATOM     20  C   UNL     1       7.440   5.265  13.690  0.00  0.00    +0.000 A 
ATOM     21  C   UNL     1       6.759   4.185  13.148  0.00  0.00    +0.000 A 
ATOM     22  C   UNL     1       5.955   3.425  13.991  0.00  0.00    +0.000 A 
ATOM     23  C   UNL     1       5.888   3.756  15.338  0.00  0.00    +0.000 A 
ATOM     24  F   UNL     1       5.096   3.024  16.134  0.00  0.00    +0.000 F 
ENDBRANCH  17  18
ENDBRANCH   1  13
TORSDOF 4
ENDMDL
