MODEL 1
REMARK VINA RESULT:      -7.5      0.000      0.000
REMARK  Name = 
REMARK  8 active torsions:
REMARK  status: ('A' for Active; 'I' for Inactive)
REMARK    1  A    between atoms: C_1  and  N_2
REMARK    2  A    between atoms: N_5  and  C_6
REMARK    3  A    between atoms: C_6  and  C_7
REMARK    4  A    between atoms: C_8  and  C_9
REMARK    5  A    between atoms: C_9  and  C_10
REMARK    6  A    between atoms: C_10  and  O_11
REMARK    7  A    between atoms: C_10  and  C_12
REMARK    8  A    between atoms: C_10  and  C_18
REMARK                            x       y       z     vdW  Elec       q    Type
REMARK                         _______ _______ _______ _____ _____    ______ ____
ROOT
ATOM      1  C   UNL     1       2.858   6.427  18.775  0.00  0.00    +0.000 C 
ENDROOT
BRANCH   1   2
ATOM      2  C   UNL     1       2.175   5.056  18.965  0.00  0.00    +0.000 A 
ATOM      3  C   UNL     1       1.619   4.719  20.217  0.00  0.00    +0.000 A 
ATOM      4  C   UNL     1       0.966   3.496  20.405  0.00  0.00    +0.000 A 
ATOM      5  C   UNL     1       0.857   2.588  19.352  0.00  0.00    +0.000 A 
ATOM      6  C   UNL     1       1.403   2.899  18.106  0.00  0.00    +0.000 A 
ATOM      7  C   UNL     1       2.055   4.121  17.909  0.00  0.00    +0.000 A 
ENDBRANCH   1   2
BRANCH   1   8
ATOM      8  C   UNL     1       4.341   6.176  18.474  0.00  0.00    +0.000 A 
ATOM      9  C   UNL     1       5.182   5.407  19.313  0.00  0.00    +0.000 A 
ATOM     10  C   UNL     1       6.525   5.210  18.989  0.00  0.00    +0.000 A 
ATOM     11  C   UNL     1       7.058   5.777  17.833  0.00  0.00    +0.000 A 
ATOM     12  C   UNL     1       6.246   6.537  16.991  0.00  0.00    +0.000 A 
ATOM     13  C   UNL     1       4.898   6.733  17.304  0.00  0.00    +0.000 A 
ENDBRANCH   1   8
BRANCH   1  14
ATOM     14  O   UNL     1       2.822   7.182  19.970  0.00  0.00    +0.000 OA
ATOM     15  H   UNL     1       3.298   8.042  19.830  0.00  0.00    +0.000 HD
ENDBRANCH   1  14
BRANCH   1  16
ATOM     16  C   UNL     1       2.167   7.241  17.634  0.00  0.00    +0.000 C 
BRANCH  16  18
ATOM     17  C   UNL     1       1.151   9.697  18.586  0.00  0.00    +0.000 C 
ATOM     18  C   UNL     1       1.621   8.564  18.146  0.00  0.00    +0.000 C 
BRANCH  17  19
ATOM     19  C   UNL     1       0.603  11.020  19.098  0.00  0.00    +0.000 C 
BRANCH  19  24
ATOM     20  C   UNL     1      -2.001  11.806  23.178  0.00  0.00    +0.000 C 
ATOM     21  N   UNL     1      -0.668  11.709  22.569  0.00  0.00    +0.000 NA
ATOM     22  C   UNL     1      -0.496  12.735  21.527  0.00  0.00    +0.000 C 
ATOM     23  C   UNL     1       0.928  12.653  20.960  0.00  0.00    +0.000 C 
ATOM     24  N   UNL     1       1.226  11.305  20.411  0.00  0.00    +0.000 NA
ATOM     25  C   UNL     1       0.969  10.266  21.426  0.00  0.00    +0.000 C 
ATOM     26  C   UNL     1      -0.453  10.366  21.996  0.00  0.00    +0.000 C 
ENDBRANCH  19  24
ENDBRANCH  17  19
ENDBRANCH  16  18
ENDBRANCH   1  16
TORSDOF 7
ENDMDL
MODEL 2
REMARK VINA RESULT:      -7.5      0.384      1.023
REMARK  Name = 
REMARK  8 active torsions:
REMARK  status: ('A' for Active; 'I' for Inactive)
REMARK    1  A    between atoms: C_1  and  N_2
REMARK    2  A    between atoms: N_5  and  C_6
REMARK    3  A    between atoms: C_6  and  C_7
REMARK    4  A    between atoms: C_8  and  C_9
REMARK    5  A    between atoms: C_9  and  C_10
REMARK    6  A    between atoms: C_10  and  O_11
REMARK    7  A    between atoms: C_10  and  C_12
REMARK    8  A    between atoms: C_10  and  C_18
REMARK                            x       y       z     vdW  Elec       q    Type
REMARK                         _______ _______ _______ _____ _____    ______ ____
ROOT
ATOM      1  C   UNL     1       3.058   6.305  18.658  0.00  0.00    +0.000 C 
ENDROOT
BRANCH   1   2
ATOM      2  C   UNL     1       2.412   4.904  18.704  0.00  0.00    +0.000 A 
ATOM      3  C   UNL     1       2.667   3.982  17.668  0.00  0.00    +0.000 A 
ATOM      4  C   UNL     1       2.119   2.695  17.702  0.00  0.00    +0.000 A 
ATOM      5  C   UNL     1       1.306   2.306  18.766  0.00  0.00    +0.000 A 
ATOM      6  C   UNL     1       1.038   3.202  19.801  0.00  0.00    +0.000 A 
ATOM      7  C   UNL     1       1.584   4.490  19.776  0.00  0.00    +0.000 A 
ENDBRANCH   1   2
BRANCH   1   8
ATOM      8  C   UNL     1       4.565   6.121  18.439  0.00  0.00    +0.000 A 
ATOM      9  C   UNL     1       5.396   5.407  19.336  0.00  0.00    +0.000 A 
ATOM     10  C   UNL     1       6.762   5.269  19.086  0.00  0.00    +0.000 A 
ATOM     11  C   UNL     1       7.328   5.843  17.949  0.00  0.00    +0.000 A 
ATOM     12  C   UNL     1       6.527   6.549  17.052  0.00  0.00    +0.000 A 
ATOM     13  C   UNL     1       5.157   6.685  17.291  0.00  0.00    +0.000 A 
ENDBRANCH   1   8
BRANCH   1  14
ATOM     14  O   UNL     1       2.919   6.969  19.899  0.00  0.00    +0.000 OA
ATOM     15  H   UNL     1       2.965   6.304  20.634  0.00  0.00    +0.000 HD
ENDBRANCH   1  14
BRANCH   1  16
ATOM     16  C   UNL     1       2.415   7.179  17.534  0.00  0.00    +0.000 C 
BRANCH  16  18
ATOM     17  C   UNL     1       1.166   9.478  18.599  0.00  0.00    +0.000 C 
ATOM     18  C   UNL     1       1.743   8.416  18.108  0.00  0.00    +0.000 C 
BRANCH  17  19
ATOM     19  C   UNL     1       0.495  10.715  19.172  0.00  0.00    +0.000 C 
BRANCH  19  24
ATOM     20  C   UNL     1      -1.908  11.795  23.308  0.00  0.00    +0.000 C 
ATOM     21  N   UNL     1      -0.607  11.642  22.646  0.00  0.00    +0.000 NA
ATOM     22  C   UNL     1      -0.472  12.597  21.533  0.00  0.00    +0.000 C 
ATOM     23  C   UNL     1       0.924  12.459  20.909  0.00  0.00    +0.000 C 
ATOM     24  N   UNL     1       1.181  11.075  20.434  0.00  0.00    +0.000 NA
ATOM     25  C   UNL     1       0.960  10.106  21.525  0.00  0.00    +0.000 C 
ATOM     26  C   UNL     1      -0.432  10.262  22.151  0.00  0.00    +0.000 C 
ENDBRANCH  19  24
ENDBRANCH  17  19
ENDBRANCH  16  18
ENDBRANCH   1  16
TORSDOF 7
ENDMDL
MODEL 3
REMARK VINA RESULT:      -7.4      0.893      1.396
REMARK  Name = 
REMARK  8 active torsions:
REMARK  status: ('A' for Active; 'I' for Inactive)
REMARK    1  A    between atoms: C_1  and  N_2
REMARK    2  A    between atoms: N_5  and  C_6
REMARK    3  A    between atoms: C_6  and  C_7
REMARK    4  A    between atoms: C_8  and  C_9
REMARK    5  A    between atoms: C_9  and  C_10
REMARK    6  A    between atoms: C_10  and  O_11
REMARK    7  A    between atoms: C_10  and  C_12
REMARK    8  A    between atoms: C_10  and  C_18
REMARK                            x       y       z     vdW  Elec       q    Type
REMARK                         _______ _______ _______ _____ _____    ______ ____
ROOT
ATOM      1  C   UNL     1       2.892   6.375  18.739  0.00  0.00    +0.000 C 
ENDROOT
BRANCH   1   2
ATOM      2  C   UNL     1       2.201   5.019  18.998  0.00  0.00    +0.000 A 
ATOM      3  C   UNL     1       1.645   4.748  20.266  0.00  0.00    +0.000 A 
ATOM      4  C   UNL     1       0.985   3.541  20.516  0.00  0.00    +0.000 A 
ATOM      5  C   UNL     1       0.870   2.581  19.510  0.00  0.00    +0.000 A 
ATOM      6  C   UNL     1       1.415   2.826  18.250  0.00  0.00    +0.000 A 
ATOM      7  C   UNL     1       2.074   4.033  17.990  0.00  0.00    +0.000 A 
ENDBRANCH   1   2
BRANCH   1   8
ATOM      8  C   UNL     1       4.362   6.097  18.404  0.00  0.00    +0.000 A 
ATOM      9  C   UNL     1       5.242   5.422  19.284  0.00  0.00    +0.000 A 
ATOM     10  C   UNL     1       6.572   5.195  18.928  0.00  0.00    +0.000 A 
ATOM     11  C   UNL     1       7.054   5.640  17.697  0.00  0.00    +0.000 A 
ATOM     12  C   UNL     1       6.204   6.305  16.815  0.00  0.00    +0.000 A 
ATOM     13  C   UNL     1       4.869   6.530  17.161  0.00  0.00    +0.000 A 
ENDBRANCH   1   8
BRANCH   1  14
ATOM     14  O   UNL     1       2.897   7.173  19.905  0.00  0.00    +0.000 OA
ATOM     15  H   UNL     1       3.345   6.678  20.640  0.00  0.00    +0.000 HD
ENDBRANCH   1  14
BRANCH   1  16
ATOM     16  C   UNL     1       2.176   7.154  17.588  0.00  0.00    +0.000 C 
BRANCH  16  18
ATOM     17  C   UNL     1       1.661   9.833  18.319  0.00  0.00    +0.000 C 
ATOM     18  C   UNL     1       1.899   8.596  17.982  0.00  0.00    +0.000 C 
BRANCH  17  19
ATOM     19  C   UNL     1       1.384  11.275  18.712  0.00  0.00    +0.000 C 
BRANCH  19  24
ATOM     20  C   UNL     1      -1.034  12.779  22.704  0.00  0.00    +0.000 C 
ATOM     21  N   UNL     1      -1.118  12.373  21.295  0.00  0.00    +0.000 NA
ATOM     22  C   UNL     1      -0.652  10.986  21.124  0.00  0.00    +0.000 C 
ATOM     23  C   UNL     1      -0.819  10.569  19.656  0.00  0.00    +0.000 C 
ATOM     24  N   UNL     1      -0.083  11.477  18.739  0.00  0.00    +0.000 NA
ATOM     25  C   UNL     1      -0.483  12.879  18.970  0.00  0.00    +0.000 C 
ATOM     26  C   UNL     1      -0.326  13.280  20.443  0.00  0.00    +0.000 C 
ENDBRANCH  19  24
ENDBRANCH  17  19
ENDBRANCH  16  18
ENDBRANCH   1  16
TORSDOF 7
ENDMDL
MODEL 4
REMARK VINA RESULT:      -7.3      1.414      1.698
REMARK  Name = 
REMARK  8 active torsions:
REMARK  status: ('A' for Active; 'I' for Inactive)
REMARK    1  A    between atoms: C_1  and  N_2
REMARK    2  A    between atoms: N_5  and  C_6
REMARK    3  A    between atoms: C_6  and  C_7
REMARK    4  A    between atoms: C_8  and  C_9
REMARK    5  A    between atoms: C_9  and  C_10
REMARK    6  A    between atoms: C_10  and  O_11
REMARK    7  A    between atoms: C_10  and  C_12
REMARK    8  A    between atoms: C_10  and  C_18
REMARK                            x       y       z     vdW  Elec       q    Type
REMARK                         _______ _______ _______ _____ _____    ______ ____
ROOT
ATOM      1  C   UNL     1       2.920   6.277  18.738  0.00  0.00    +0.000 C 
ENDROOT
BRANCH   1   2
ATOM      2  C   UNL     1       2.276   4.898  18.991  0.00  0.00    +0.000 A 
ATOM      3  C   UNL     1       1.704   4.613  20.249  0.00  0.00    +0.000 A 
ATOM      4  C   UNL     1       1.086   3.383  20.494  0.00  0.00    +0.000 A 
ATOM      5  C   UNL     1       1.029   2.413  19.492  0.00  0.00    +0.000 A 
ATOM      6  C   UNL     1       1.591   2.672  18.242  0.00  0.00    +0.000 A 
ATOM      7  C   UNL     1       2.208   3.902  17.988  0.00  0.00    +0.000 A 
ENDBRANCH   1   2
BRANCH   1   8
ATOM      8  C   UNL     1       4.406   6.054  18.430  0.00  0.00    +0.000 A 
ATOM      9  C   UNL     1       5.290   5.397  19.319  0.00  0.00    +0.000 A 
ATOM     10  C   UNL     1       6.634   5.221  18.987  0.00  0.00    +0.000 A 
ATOM     11  C   UNL     1       7.124   5.698  17.773  0.00  0.00    +0.000 A 
ATOM     12  C   UNL     1       6.270   6.346  16.881  0.00  0.00    +0.000 A 
ATOM     13  C   UNL     1       4.921   6.521  17.203  0.00  0.00    +0.000 A 
ENDBRANCH   1   8
BRANCH   1  14
ATOM     14  O   UNL     1       2.875   7.080  19.901  0.00  0.00    +0.000 OA
ATOM     15  H   UNL     1       2.294   7.868  19.734  0.00  0.00    +0.000 HD
ENDBRANCH   1  14
BRANCH   1  16
ATOM     16  C   UNL     1       2.196   7.025  17.572  0.00  0.00    +0.000 C 
BRANCH  16  18
ATOM     17  C   UNL     1       1.755   9.742  18.201  0.00  0.00    +0.000 C 
ATOM     18  C   UNL     1       1.959   8.488  17.910  0.00  0.00    +0.000 C 
BRANCH  17  19
ATOM     19  C   UNL     1       1.518  11.205  18.539  0.00  0.00    +0.000 C 
BRANCH  19  24
ATOM     20  C   UNL     1      -3.345  11.666  18.100  0.00  0.00    +0.000 C 
ATOM     21  N   UNL     1      -2.198  11.544  19.009  0.00  0.00    +0.000 NA
ATOM     22  C   UNL     1      -1.274  12.678  18.838  0.00  0.00    +0.000 C 
ATOM     23  C   UNL     1      -0.125  12.558  19.848  0.00  0.00    +0.000 C 
ATOM     24  N   UNL     1       0.604  11.272  19.703  0.00  0.00    +0.000 NA
ATOM     25  C   UNL     1      -0.332  10.135  19.786  0.00  0.00    +0.000 C 
ATOM     26  C   UNL     1      -1.485  10.273  18.781  0.00  0.00    +0.000 C 
ENDBRANCH  19  24
ENDBRANCH  17  19
ENDBRANCH  16  18
ENDBRANCH   1  16
TORSDOF 7
ENDMDL
MODEL 5
REMARK VINA RESULT:      -7.3      1.478      2.203
REMARK  Name = 
REMARK  8 active torsions:
REMARK  status: ('A' for Active; 'I' for Inactive)
REMARK    1  A    between atoms: C_1  and  N_2
REMARK    2  A    between atoms: N_5  and  C_6
REMARK    3  A    between atoms: C_6  and  C_7
REMARK    4  A    between atoms: C_8  and  C_9
REMARK    5  A    between atoms: C_9  and  C_10
REMARK    6  A    between atoms: C_10  and  O_11
REMARK    7  A    between atoms: C_10  and  C_12
REMARK    8  A    between atoms: C_10  and  C_18
REMARK                            x       y       z     vdW  Elec       q    Type
REMARK                         _______ _______ _______ _____ _____    ______ ____
ROOT
ATOM      1  C   UNL     1       2.829   6.265  18.718  0.00  0.00    +0.000 C 
ENDROOT
BRANCH   1   2
ATOM      2  C   UNL     1       2.217   4.869  18.960  0.00  0.00    +0.000 A 
ATOM      3  C   UNL     1       1.574   4.590  20.185  0.00  0.00    +0.000 A 
ATOM      4  C   UNL     1       0.983   3.344  20.416  0.00  0.00    +0.000 A 
ATOM      5  C   UNL     1       1.022   2.354  19.434  0.00  0.00    +0.000 A 
ATOM      6  C   UNL     1       1.655   2.607  18.216  0.00  0.00    +0.000 A 
ATOM      7  C   UNL     1       2.246   3.852  17.976  0.00  0.00    +0.000 A 
ENDBRANCH   1   2
BRANCH   1   8
ATOM      8  C   UNL     1       4.311   6.075  18.370  0.00  0.00    +0.000 A 
ATOM      9  C   UNL     1       4.876   6.492  17.140  0.00  0.00    +0.000 A 
ATOM     10  C   UNL     1       6.232   6.294  16.876  0.00  0.00    +0.000 A 
ATOM     11  C   UNL     1       7.048   5.675  17.822  0.00  0.00    +0.000 A 
ATOM     12  C   UNL     1       6.512   5.259  19.040  0.00  0.00    +0.000 A 
ATOM     13  C   UNL     1       5.156   5.459  19.315  0.00  0.00    +0.000 A 
ENDBRANCH   1   8
BRANCH   1  14
ATOM     14  O   UNL     1       2.799   7.044  19.897  0.00  0.00    +0.000 OA
ATOM     15  H   UNL     1       3.703   7.055  20.307  0.00  0.00    +0.000 HD
ENDBRANCH   1  14
BRANCH   1  16
ATOM     16  C   UNL     1       2.063   7.021  17.585  0.00  0.00    +0.000 C 
BRANCH  16  18
ATOM     17  C   UNL     1       1.933   9.795  18.101  0.00  0.00    +0.000 C 
ATOM     18  C   UNL     1       1.993   8.515  17.862  0.00  0.00    +0.000 C 
BRANCH  17  19
ATOM     19  C   UNL     1       1.861  11.288  18.378  0.00  0.00    +0.000 C 
BRANCH  19  24
ATOM     20  C   UNL     1      -0.204  15.679  19.084  0.00  0.00    +0.000 C 
ATOM     21  N   UNL     1      -0.159  14.265  19.474  0.00  0.00    +0.000 NA
ATOM     22  C   UNL     1       1.166  13.914  20.012  0.00  0.00    +0.000 C 
ATOM     23  C   UNL     1       1.159  12.451  20.475  0.00  0.00    +0.000 C 
ATOM     24  N   UNL     1       0.790  11.526  19.372  0.00  0.00    +0.000 NA
ATOM     25  C   UNL     1      -0.497  11.928  18.771  0.00  0.00    +0.000 C 
ATOM     26  C   UNL     1      -0.483  13.396  18.325  0.00  0.00    +0.000 C 
ENDBRANCH  19  24
ENDBRANCH  17  19
ENDBRANCH  16  18
ENDBRANCH   1  16
TORSDOF 7
ENDMDL
MODEL 6
REMARK VINA RESULT:      -7.3      0.883      1.631
REMARK  Name = 
REMARK  8 active torsions:
REMARK  status: ('A' for Active; 'I' for Inactive)
REMARK    1  A    between atoms: C_1  and  N_2
REMARK    2  A    between atoms: N_5  and  C_6
REMARK    3  A    between atoms: C_6  and  C_7
REMARK    4  A    between atoms: C_8  and  C_9
REMARK    5  A    between atoms: C_9  and  C_10
REMARK    6  A    between atoms: C_10  and  O_11
REMARK    7  A    between atoms: C_10  and  C_12
REMARK    8  A    between atoms: C_10  and  C_18
REMARK                            x       y       z     vdW  Elec       q    Type
REMARK                         _______ _______ _______ _____ _____    ______ ____
ROOT
ATOM      1  C   UNL     1       2.955   6.463  18.707  0.00  0.00    +0.000 C 
ENDROOT
BRANCH   1   2
ATOM      2  C   UNL     1       2.207   5.130  18.920  0.00  0.00    +0.000 A 
ATOM      3  C   UNL     1       2.109   4.205  17.860  0.00  0.00    +0.000 A 
ATOM      4  C   UNL     1       1.465   2.976  18.037  0.00  0.00    +0.000 A 
ATOM      5  C   UNL     1       0.905   2.648  19.272  0.00  0.00    +0.000 A 
ATOM      6  C   UNL     1       0.987   3.549  20.334  0.00  0.00    +0.000 A 
ATOM      7  C   UNL     1       1.632   4.779  20.166  0.00  0.00    +0.000 A 
ENDBRANCH   1   2
BRANCH   1   8
ATOM      8  C   UNL     1       4.430   6.139  18.445  0.00  0.00    +0.000 A 
ATOM      9  C   UNL     1       5.224   5.372  19.332  0.00  0.00    +0.000 A 
ATOM     10  C   UNL     1       6.563   5.106  19.043  0.00  0.00    +0.000 A 
ATOM     11  C   UNL     1       7.139   5.600  17.875  0.00  0.00    +0.000 A 
ATOM     12  C   UNL     1       6.375   6.356  16.986  0.00  0.00    +0.000 A 
ATOM     13  C   UNL     1       5.032   6.621  17.264  0.00  0.00    +0.000 A 
ENDBRANCH   1   8
BRANCH   1  14
ATOM     14  O   UNL     1       2.927   7.254  19.879  0.00  0.00    +0.000 OA
ATOM     15  H   UNL     1       3.150   6.687  20.663  0.00  0.00    +0.000 HD
ENDBRANCH   1  14
BRANCH   1  16
ATOM     16  C   UNL     1       2.325   7.273  17.528  0.00  0.00    +0.000 C 
BRANCH  16  18
ATOM     17  C   UNL     1       1.177   9.690  18.431  0.00  0.00    +0.000 C 
ATOM     18  C   UNL     1       1.707   8.574  18.014  0.00  0.00    +0.000 C 
BRANCH  17  19
ATOM     19  C   UNL     1       0.560  10.992  18.916  0.00  0.00    +0.000 C 
BRANCH  19  24
ATOM     20  C   UNL     1      -1.033  13.389  22.887  0.00  0.00    +0.000 C 
ATOM     21  N   UNL     1      -1.292  12.329  21.903  0.00  0.00    +0.000 NA
ATOM     22  C   UNL     1      -0.248  11.292  21.967  0.00  0.00    +0.000 C 
ATOM     23  C   UNL     1      -0.585  10.168  20.978  0.00  0.00    +0.000 C 
ATOM     24  N   UNL     1      -0.721  10.678  19.589  0.00  0.00    +0.000 NA
ATOM     25  C   UNL     1      -1.703  11.778  19.538  0.00  0.00    +0.000 C 
ATOM     26  C   UNL     1      -1.364  12.890  20.540  0.00  0.00    +0.000 C 
ENDBRANCH  19  24
ENDBRANCH  17  19
ENDBRANCH  16  18
ENDBRANCH   1  16
TORSDOF 7
ENDMDL
MODEL 7
REMARK VINA RESULT:      -7.3      0.407      1.417
REMARK  Name = 
REMARK  8 active torsions:
REMARK  status: ('A' for Active; 'I' for Inactive)
REMARK    1  A    between atoms: C_1  and  N_2
REMARK    2  A    between atoms: N_5  and  C_6
REMARK    3  A    between atoms: C_6  and  C_7
REMARK    4  A    between atoms: C_8  and  C_9
REMARK    5  A    between atoms: C_9  and  C_10
REMARK    6  A    between atoms: C_10  and  O_11
REMARK    7  A    between atoms: C_10  and  C_12
REMARK    8  A    between atoms: C_10  and  C_18
REMARK                            x       y       z     vdW  Elec       q    Type
REMARK                         _______ _______ _______ _____ _____    ______ ____
ROOT
ATOM      1  C   UNL     1       3.063   6.372  18.672  0.00  0.00    +0.000 C 
ENDROOT
BRANCH   1   2
ATOM      2  C   UNL     1       2.366   4.999  18.778  0.00  0.00    +0.000 A 
ATOM      3  C   UNL     1       2.526   4.051  17.745  0.00  0.00    +0.000 A 
ATOM      4  C   UNL     1       1.931   2.789  17.832  0.00  0.00    +0.000 A 
ATOM      5  C   UNL     1       1.164   2.449  18.947  0.00  0.00    +0.000 A 
ATOM      6  C   UNL     1       0.990   3.371  19.979  0.00  0.00    +0.000 A 
ATOM      7  C   UNL     1       1.584   4.635  19.901  0.00  0.00    +0.000 A 
ENDBRANCH   1   2
BRANCH   1   8
ATOM      8  C   UNL     1       4.551   6.124  18.395  0.00  0.00    +0.000 A 
ATOM      9  C   UNL     1       5.197   6.541  17.206  0.00  0.00    +0.000 A 
ATOM     10  C   UNL     1       6.555   6.290  17.006  0.00  0.00    +0.000 A 
ATOM     11  C   UNL     1       7.293   5.615  17.977  0.00  0.00    +0.000 A 
ATOM     12  C   UNL     1       6.677   5.196  19.156  0.00  0.00    +0.000 A 
ATOM     13  C   UNL     1       5.319   5.451  19.367  0.00  0.00    +0.000 A 
ENDBRANCH   1   8
BRANCH   1  14
ATOM     14  O   UNL     1       3.003   7.068  19.901  0.00  0.00    +0.000 OA
ATOM     15  H   UNL     1       2.403   6.582  20.525  0.00  0.00    +0.000 HD
ENDBRANCH   1  14
BRANCH   1  16
ATOM     16  C   UNL     1       2.407   7.246  17.555  0.00  0.00    +0.000 C 
BRANCH  16  18
ATOM     17  C   UNL     1       1.186   9.553  18.631  0.00  0.00    +0.000 C 
ATOM     18  C   UNL     1       1.749   8.488  18.135  0.00  0.00    +0.000 C 
BRANCH  17  19
ATOM     19  C   UNL     1       0.529  10.796  19.211  0.00  0.00    +0.000 C 
BRANCH  19  24
ATOM     20  C   UNL     1      -1.755  12.734  23.094  0.00  0.00    +0.000 C 
ATOM     21  N   UNL     1      -0.486  12.271  22.518  0.00  0.00    +0.000 NA
ATOM     22  C   UNL     1      -0.134  13.062  21.327  0.00  0.00    +0.000 C 
ATOM     23  C   UNL     1       1.228  12.601  20.791  0.00  0.00    +0.000 C 
ATOM     24  N   UNL     1       1.230  11.151  20.466  0.00  0.00    +0.000 NA
ATOM     25  C   UNL     1       0.793  10.360  21.632  0.00  0.00    +0.000 C 
ATOM     26  C   UNL     1      -0.564  10.839  22.168  0.00  0.00    +0.000 C 
ENDBRANCH  19  24
ENDBRANCH  17  19
ENDBRANCH  16  18
ENDBRANCH   1  16
TORSDOF 7
ENDMDL
MODEL 8
REMARK VINA RESULT:      -7.2      0.997      1.413
REMARK  Name = 
REMARK  8 active torsions:
REMARK  status: ('A' for Active; 'I' for Inactive)
REMARK    1  A    between atoms: C_1  and  N_2
REMARK    2  A    between atoms: N_5  and  C_6
REMARK    3  A    between atoms: C_6  and  C_7
REMARK    4  A    between atoms: C_8  and  C_9
REMARK    5  A    between atoms: C_9  and  C_10
REMARK    6  A    between atoms: C_10  and  O_11
REMARK    7  A    between atoms: C_10  and  C_12
REMARK    8  A    between atoms: C_10  and  C_18
REMARK                            x       y       z     vdW  Elec       q    Type
REMARK                         _______ _______ _______ _____ _____    ______ ____
ROOT
ATOM      1  C   UNL     1       2.742   6.465  18.779  0.00  0.00    +0.000 C 
ENDROOT
BRANCH   1   2
ATOM      2  C   UNL     1       2.059   5.109  19.057  0.00  0.00    +0.000 A 
ATOM      3  C   UNL     1       1.876   4.189  18.003  0.00  0.00    +0.000 A 
ATOM      4  C   UNL     1       1.290   2.941  18.235  0.00  0.00    +0.000 A 
ATOM      5  C   UNL     1       0.874   2.588  19.519  0.00  0.00    +0.000 A 
ATOM      6  C   UNL     1       1.043   3.483  20.576  0.00  0.00    +0.000 A 
ATOM      7  C   UNL     1       1.631   4.732  20.352  0.00  0.00    +0.000 A 
ENDBRANCH   1   2
BRANCH   1   8
ATOM      8  C   UNL     1       4.208   6.190  18.422  0.00  0.00    +0.000 A 
ATOM      9  C   UNL     1       5.086   5.464  19.262  0.00  0.00    +0.000 A 
ATOM     10  C   UNL     1       6.411   5.242  18.887  0.00  0.00    +0.000 A 
ATOM     11  C   UNL     1       6.890   5.742  17.677  0.00  0.00    +0.000 A 
ATOM     12  C   UNL     1       6.042   6.459  16.833  0.00  0.00    +0.000 A 
ATOM     13  C   UNL     1       4.711   6.679  17.199  0.00  0.00    +0.000 A 
ENDBRANCH   1   8
BRANCH   1  14
ATOM     14  O   UNL     1       2.764   7.270  19.941  0.00  0.00    +0.000 OA
ATOM     15  H   UNL     1       2.662   6.694  20.742  0.00  0.00    +0.000 HD
ENDBRANCH   1  14
BRANCH   1  16
ATOM     16  C   UNL     1       2.005   7.236  17.636  0.00  0.00    +0.000 C 
BRANCH  16  18
ATOM     17  C   UNL     1       1.737   9.980  18.246  0.00  0.00    +0.000 C 
ATOM     18  C   UNL     1       1.861   8.713  17.964  0.00  0.00    +0.000 C 
BRANCH  17  19
ATOM     19  C   UNL     1       1.591  11.457  18.574  0.00  0.00    +0.000 C 
BRANCH  19  24
ATOM     20  C   UNL     1      -2.732  12.958  20.338  0.00  0.00    +0.000 C 
ATOM     21  N   UNL     1      -1.368  12.506  20.644  0.00  0.00    +0.000 NA
ATOM     22  C   UNL     1      -0.373  13.436  20.084  0.00  0.00    +0.000 C 
ATOM     23  C   UNL     1       1.036  12.974  20.480  0.00  0.00    +0.000 C 
ATOM     24  N   UNL     1       1.311  11.588  20.022  0.00  0.00    +0.000 NA
ATOM     25  C   UNL     1       0.265  10.667  20.508  0.00  0.00    +0.000 C 
ATOM     26  C   UNL     1      -1.140  11.146  20.118  0.00  0.00    +0.000 C 
ENDBRANCH  19  24
ENDBRANCH  17  19
ENDBRANCH  16  18
ENDBRANCH   1  16
TORSDOF 7
ENDMDL
MODEL 9
REMARK VINA RESULT:      -7.2      0.978      1.940
REMARK  Name = 
REMARK  8 active torsions:
REMARK  status: ('A' for Active; 'I' for Inactive)
REMARK    1  A    between atoms: C_1  and  N_2
REMARK    2  A    between atoms: N_5  and  C_6
REMARK    3  A    between atoms: C_6  and  C_7
REMARK    4  A    between atoms: C_8  and  C_9
REMARK    5  A    between atoms: C_9  and  C_10
REMARK    6  A    between atoms: C_10  and  O_11
REMARK    7  A    between atoms: C_10  and  C_12
REMARK    8  A    between atoms: C_10  and  C_18
REMARK                            x       y       z     vdW  Elec       q    Type
REMARK                         _______ _______ _______ _____ _____    ______ ____
ROOT
ATOM      1  C   UNL     1       3.054   6.265  18.622  0.00  0.00    +0.000 C 
ENDROOT
BRANCH   1   2
ATOM      2  C   UNL     1       2.443   4.849  18.691  0.00  0.00    +0.000 A 
ATOM      3  C   UNL     1       2.688   3.929  17.650  0.00  0.00    +0.000 A 
ATOM      4  C   UNL     1       2.173   2.631  17.705  0.00  0.00    +0.000 A 
ATOM      5  C   UNL     1       1.403   2.225  18.795  0.00  0.00    +0.000 A 
ATOM      6  C   UNL     1       1.145   3.119  19.835  0.00  0.00    +0.000 A 
ATOM      7  C   UNL     1       1.659   4.419  19.789  0.00  0.00    +0.000 A 
ENDBRANCH   1   2
BRANCH   1   8
ATOM      8  C   UNL     1       4.568   6.115  18.431  0.00  0.00    +0.000 A 
ATOM      9  C   UNL     1       5.267   6.660  17.328  0.00  0.00    +0.000 A 
ATOM     10  C   UNL     1       6.647   6.494  17.205  0.00  0.00    +0.000 A 
ATOM     11  C   UNL     1       7.356   5.780  18.170  0.00  0.00    +0.000 A 
ATOM     12  C   UNL     1       6.688   5.236  19.266  0.00  0.00    +0.000 A 
ATOM     13  C   UNL     1       5.307   5.404  19.400  0.00  0.00    +0.000 A 
ENDBRANCH   1   8
BRANCH   1  14
ATOM     14  O   UNL     1       2.877   6.955  19.843  0.00  0.00    +0.000 OA
ATOM     15  H   UNL     1       3.765   7.190  20.219  0.00  0.00    +0.000 HD
ENDBRANCH   1  14
BRANCH   1  16
ATOM     16  C   UNL     1       2.407   7.095  17.466  0.00  0.00    +0.000 C 
BRANCH  16  18
ATOM     17  C   UNL     1       1.511   9.612  18.379  0.00  0.00    +0.000 C 
ATOM     18  C   UNL     1       1.925   8.450  17.958  0.00  0.00    +0.000 C 
BRANCH  17  19
ATOM     19  C   UNL     1       1.027  10.968  18.870  0.00  0.00    +0.000 C 
BRANCH  19  24
ATOM     20  C   UNL     1      -0.806  13.514  22.638  0.00  0.00    +0.000 C 
ATOM     21  N   UNL     1      -1.054  12.510  21.595  0.00  0.00    +0.000 NA
ATOM     22  C   UNL     1      -0.178  11.341  21.778  0.00  0.00    +0.000 C 
ATOM     23  C   UNL     1      -0.510  10.283  20.717  0.00  0.00    +0.000 C 
ATOM     24  N   UNL     1      -0.370  10.822  19.339  0.00  0.00    +0.000 NA
ATOM     25  C   UNL     1      -1.178  12.046  19.179  0.00  0.00    +0.000 C 
ATOM     26  C   UNL     1      -0.849  13.091  20.254  0.00  0.00    +0.000 C 
ENDBRANCH  19  24
ENDBRANCH  17  19
ENDBRANCH  16  18
ENDBRANCH   1  16
TORSDOF 7
ENDMDL
