MODEL 1
REMARK VINA RESULT:      -7.5      0.000      0.000
REMARK  Name = 
REMARK  8 active torsions:
REMARK  status: ('A' for Active; 'I' for Inactive)
REMARK    1  A    between atoms: C_1  and  N_2
REMARK    2  A    between atoms: C_9  and  N_10
REMARK    3  A    between atoms: C_11  and  C_13
REMARK    4  A    between atoms: C_16  and  C_17
REMARK    5  A    between atoms: C_17  and  C_18
REMARK    6  A    between atoms: C_17  and  O_19
REMARK    7  A    between atoms: C_17  and  C_20
REMARK    8  A    between atoms: C_20  and  O_21
REMARK                            x       y       z     vdW  Elec       q    Type
REMARK                         _______ _______ _______ _____ _____    ______ ____
ROOT
ATOM      1  N   UNL     1       1.635   8.880  18.295  0.00  0.00    +0.000 N 
ATOM      2  C   UNL     1       2.122   7.787  18.992  0.00  0.00    +0.000 C 
ATOM      3  O   UNL     1       1.890   7.481  20.157  0.00  0.00    +0.000 OA
ATOM      4  H   UNL     1       1.872   8.984  17.323  0.00  0.00    +0.000 HD
ENDROOT
BRANCH   1  13
ATOM      5  C   UNL     1      -3.468  10.721  17.378  0.00  0.00    +0.000 C 
ATOM      6  N   UNL     1      -2.682  11.261  18.464  0.00  0.00    +0.000 N 
ATOM      7  C   UNL     1      -3.120  12.240  19.319  0.00  0.00    +0.000 A 
ATOM      8  C   UNL     1      -2.109  12.500  20.214  0.00  0.00    +0.000 A 
ATOM      9 CL   UNL     1      -2.152  13.633  21.480  0.00  0.00    +0.000 Cl
ATOM     10  C   UNL     1      -1.016  11.658  19.893  0.00  0.00    +0.000 A 
ATOM     11  C   UNL     1       0.262  11.472  20.425  0.00  0.00    +0.000 A 
ATOM     12  N   UNL     1       1.109  10.571  19.880  0.00  0.00    +0.000 NA
ATOM     13  C   UNL     1       0.737   9.826  18.828  0.00  0.00    +0.000 A 
ATOM     14  C   UNL     1      -0.522   9.933  18.234  0.00  0.00    +0.000 A 
ATOM     15  C   UNL     1      -1.395  10.882  18.792  0.00  0.00    +0.000 A 
ENDBRANCH   1  13
BRANCH   2  16
ATOM     16  C   UNL     1       3.010   6.869  18.221  0.00  0.00    +0.000 A 
ATOM     17  C   UNL     1       2.895   5.479  18.278  0.00  0.00    +0.000 A 
ATOM     18  C   UNL     1       3.776   4.669  17.549  0.00  0.00    +0.000 A 
ATOM     19  C   UNL     1       4.780   5.224  16.733  0.00  0.00    +0.000 A 
ATOM     20  C   UNL     1       4.859   6.627  16.663  0.00  0.00    +0.000 A 
ATOM     21  C   UNL     1       3.984   7.437  17.391  0.00  0.00    +0.000 A 
BRANCH  19  22
ATOM     22  C   UNL     1       5.789   4.353  15.976  0.00  0.00    +0.000 C 
ATOM     23  C   UNL     1       7.248   4.660  16.346  0.00  0.00    +0.000 C 
BRANCH  22  24
ATOM     24  O   UNL     1       5.576   2.969  16.309  0.00  0.00    +0.000 OA
ATOM     25  H   UNL     1       6.070   2.445  15.653  0.00  0.00    +0.000 HD
ENDBRANCH  22  24
BRANCH  22  26
ATOM     26  C   UNL     1       5.619   4.493  14.441  0.00  0.00    +0.000 C 
BRANCH  26  27
ATOM     27  O   UNL     1       6.301   3.460  13.725  0.00  0.00    +0.000 OA
ATOM     28  H   UNL     1       6.301   2.690  14.325  0.00  0.00    +0.000 HD
ENDBRANCH  26  27
ENDBRANCH  22  26
ENDBRANCH  19  22
ENDBRANCH   2  16
TORSDOF 6
ENDMDL
MODEL 2
REMARK VINA RESULT:      -7.4      1.216      1.288
REMARK  Name = 
REMARK  8 active torsions:
REMARK  status: ('A' for Active; 'I' for Inactive)
REMARK    1  A    between atoms: C_1  and  N_2
REMARK    2  A    between atoms: C_9  and  N_10
REMARK    3  A    between atoms: C_11  and  C_13
REMARK    4  A    between atoms: C_16  and  C_17
REMARK    5  A    between atoms: C_17  and  C_18
REMARK    6  A    between atoms: C_17  and  O_19
REMARK    7  A    between atoms: C_17  and  C_20
REMARK    8  A    between atoms: C_20  and  O_21
REMARK                            x       y       z     vdW  Elec       q    Type
REMARK                         _______ _______ _______ _____ _____    ______ ____
ROOT
ATOM      1  N   UNL     1       1.927   8.580  19.379  0.00  0.00    +0.000 N 
ATOM      2  C   UNL     1       2.130   7.257  19.735  0.00  0.00    +0.000 C 
ATOM      3  O   UNL     1       1.586   6.637  20.643  0.00  0.00    +0.000 OA
ATOM      4  H   UNL     1       2.411   8.949  18.578  0.00  0.00    +0.000 HD
ENDROOT
BRANCH   1  13
ATOM      5  C   UNL     1      -2.209  11.939  18.012  0.00  0.00    +0.000 C 
ATOM      6  N   UNL     1      -1.836  11.769  19.397  0.00  0.00    +0.000 N 
ATOM      7  C   UNL     1      -2.451  12.405  20.445  0.00  0.00    +0.000 A 
ATOM      8  C   UNL     1      -1.831  12.004  21.604  0.00  0.00    +0.000 A 
ATOM      9 CL   UNL     1      -2.221  12.506  23.180  0.00  0.00    +0.000 Cl
ATOM     10  C   UNL     1      -0.799  11.098  21.255  0.00  0.00    +0.000 A 
ATOM     11  C   UNL     1       0.154  10.377  21.979  0.00  0.00    +0.000 A 
ATOM     12  N   UNL     1       1.037   9.575  21.345  0.00  0.00    +0.000 NA
ATOM     13  C   UNL     1       1.007   9.440  20.010  0.00  0.00    +0.000 A 
ATOM     14  C   UNL     1       0.087  10.111  19.203  0.00  0.00    +0.000 A 
ATOM     15  C   UNL     1      -0.820  10.957  19.863  0.00  0.00    +0.000 A 
ENDBRANCH   1  13
BRANCH   2  16
ATOM     16  C   UNL     1       3.102   6.500  18.894  0.00  0.00    +0.000 A 
ATOM     17  C   UNL     1       3.510   5.198  19.192  0.00  0.00    +0.000 A 
ATOM     18  C   UNL     1       4.446   4.550  18.377  0.00  0.00    +0.000 A 
ATOM     19  C   UNL     1       4.985   5.174  17.236  0.00  0.00    +0.000 A 
ATOM     20  C   UNL     1       4.538   6.473  16.934  0.00  0.00    +0.000 A 
ATOM     21  C   UNL     1       3.606   7.124  17.747  0.00  0.00    +0.000 A 
BRANCH  19  22
ATOM     22  C   UNL     1       6.054   4.502  16.367  0.00  0.00    +0.000 C 
ATOM     23  C   UNL     1       7.464   4.587  16.971  0.00  0.00    +0.000 C 
BRANCH  22  24
ATOM     24  O   UNL     1       5.759   3.098  16.239  0.00  0.00    +0.000 OA
ATOM     25  H   UNL     1       4.825   3.033  15.973  0.00  0.00    +0.000 HD
ENDBRANCH  22  24
BRANCH  22  26
ATOM     26  C   UNL     1       6.082   5.102  14.937  0.00  0.00    +0.000 C 
BRANCH  26  27
ATOM     27  O   UNL     1       7.402   5.468  14.530  0.00  0.00    +0.000 OA
ATOM     28  H   UNL     1       7.622   6.261  15.057  0.00  0.00    +0.000 HD
ENDBRANCH  26  27
ENDBRANCH  22  26
ENDBRANCH  19  22
ENDBRANCH   2  16
TORSDOF 6
ENDMDL
MODEL 3
REMARK VINA RESULT:      -7.4      1.650      2.192
REMARK  Name = 
REMARK  8 active torsions:
REMARK  status: ('A' for Active; 'I' for Inactive)
REMARK    1  A    between atoms: C_1  and  N_2
REMARK    2  A    between atoms: C_9  and  N_10
REMARK    3  A    between atoms: C_11  and  C_13
REMARK    4  A    between atoms: C_16  and  C_17
REMARK    5  A    between atoms: C_17  and  C_18
REMARK    6  A    between atoms: C_17  and  O_19
REMARK    7  A    between atoms: C_17  and  C_20
REMARK    8  A    between atoms: C_20  and  O_21
REMARK                            x       y       z     vdW  Elec       q    Type
REMARK                         _______ _______ _______ _____ _____    ______ ____
ROOT
ATOM      1  N   UNL     1       1.216   8.963  19.559  0.00  0.00    +0.000 N 
ATOM      2  C   UNL     1       1.931   8.910  18.374  0.00  0.00    +0.000 C 
ATOM      3  O   UNL     1       2.003   9.775  17.506  0.00  0.00    +0.000 OA
ATOM      4  H   UNL     1       1.285   8.195  20.205  0.00  0.00    +0.000 HD
ENDROOT
BRANCH   1  13
ATOM      5  C   UNL     1      -3.512  11.475  18.296  0.00  0.00    +0.000 C 
ATOM      6  N   UNL     1      -2.684  11.977  19.369  0.00  0.00    +0.000 N 
ATOM      7  C   UNL     1      -2.990  13.076  20.130  0.00  0.00    +0.000 A 
ATOM      8  C   UNL     1      -1.978  13.252  21.043  0.00  0.00    +0.000 A 
ATOM      9 CL   UNL     1      -1.882  14.477  22.217  0.00  0.00    +0.000 Cl
ATOM     10  C   UNL     1      -1.019  12.231  20.831  0.00  0.00    +0.000 A 
ATOM     11  C   UNL     1       0.199  11.897  21.428  0.00  0.00    +0.000 A 
ATOM     12  N   UNL     1       0.913  10.837  20.988  0.00  0.00    +0.000 NA
ATOM     13  C   UNL     1       0.460  10.074  19.981  0.00  0.00    +0.000 A 
ATOM     14  C   UNL     1      -0.749  10.323  19.330  0.00  0.00    +0.000 A 
ATOM     15  C   UNL     1      -1.481  11.434  19.778  0.00  0.00    +0.000 A 
ENDBRANCH   1  13
BRANCH   2  16
ATOM     16  C   UNL     1       2.722   7.665  18.148  0.00  0.00    +0.000 A 
ATOM     17  C   UNL     1       3.796   7.601  17.258  0.00  0.00    +0.000 A 
ATOM     18  C   UNL     1       4.484   6.394  17.071  0.00  0.00    +0.000 A 
ATOM     19  C   UNL     1       4.131   5.230  17.778  0.00  0.00    +0.000 A 
ATOM     20  C   UNL     1       3.067   5.323  18.694  0.00  0.00    +0.000 A 
ATOM     21  C   UNL     1       2.377   6.524  18.880  0.00  0.00    +0.000 A 
BRANCH  19  22
ATOM     22  C   UNL     1       4.834   3.888  17.542  0.00  0.00    +0.000 C 
ATOM     23  C   UNL     1       5.480   3.781  16.152  0.00  0.00    +0.000 C 
BRANCH  22  24
ATOM     24  O   UNL     1       5.904   3.731  18.492  0.00  0.00    +0.000 OA
ATOM     25  H   UNL     1       5.554   4.012  19.356  0.00  0.00    +0.000 HD
ENDBRANCH  22  24
BRANCH  22  26
ATOM     26  C   UNL     1       3.861   2.697  17.738  0.00  0.00    +0.000 C 
BRANCH  26  27
ATOM     27  O   UNL     1       4.264   1.841  18.810  0.00  0.00    +0.000 OA
ATOM     28  H   UNL     1       3.969   2.293  19.624  0.00  0.00    +0.000 HD
ENDBRANCH  26  27
ENDBRANCH  22  26
ENDBRANCH  19  22
ENDBRANCH   2  16
TORSDOF 6
ENDMDL
MODEL 4
REMARK VINA RESULT:      -7.3      0.550      1.101
REMARK  Name = 
REMARK  8 active torsions:
REMARK  status: ('A' for Active; 'I' for Inactive)
REMARK    1  A    between atoms: C_1  and  N_2
REMARK    2  A    between atoms: C_9  and  N_10
REMARK    3  A    between atoms: C_11  and  C_13
REMARK    4  A    between atoms: C_16  and  C_17
REMARK    5  A    between atoms: C_17  and  C_18
REMARK    6  A    between atoms: C_17  and  O_19
REMARK    7  A    between atoms: C_17  and  C_20
REMARK    8  A    between atoms: C_20  and  O_21
REMARK                            x       y       z     vdW  Elec       q    Type
REMARK                         _______ _______ _______ _____ _____    ______ ____
ROOT
ATOM      1  N   UNL     1       1.581   9.025  18.248  0.00  0.00    +0.000 N 
ATOM      2  C   UNL     1       2.053   7.937  18.963  0.00  0.00    +0.000 C 
ATOM      3  O   UNL     1       1.721   7.584  20.090  0.00  0.00    +0.000 OA
ATOM      4  H   UNL     1       1.910   9.171  17.308  0.00  0.00    +0.000 HD
ENDROOT
BRANCH   1  13
ATOM      5  C   UNL     1      -3.585  10.451  17.004  0.00  0.00    +0.000 C 
ATOM      6  N   UNL     1      -2.908  11.068  18.121  0.00  0.00    +0.000 N 
ATOM      7  C   UNL     1      -3.468  12.023  18.931  0.00  0.00    +0.000 A 
ATOM      8  C   UNL     1      -2.534  12.374  19.876  0.00  0.00    +0.000 A 
ATOM      9 CL   UNL     1      -2.736  13.521  21.114  0.00  0.00    +0.000 Cl
ATOM     10  C   UNL     1      -1.363  11.615  19.634  0.00  0.00    +0.000 A 
ATOM     11  C   UNL     1      -0.107  11.537  20.242  0.00  0.00    +0.000 A 
ATOM     12  N   UNL     1       0.837  10.696  19.765  0.00  0.00    +0.000 NA
ATOM     13  C   UNL     1       0.584   9.907  18.709  0.00  0.00    +0.000 A 
ATOM     14  C   UNL     1      -0.643   9.908  18.042  0.00  0.00    +0.000 A 
ATOM     15  C   UNL     1      -1.616  10.794  18.530  0.00  0.00    +0.000 A 
ENDBRANCH   1  13
BRANCH   2  16
ATOM     16  C   UNL     1       3.063   7.090  18.264  0.00  0.00    +0.000 A 
ATOM     17  C   UNL     1       3.953   7.598  17.316  0.00  0.00    +0.000 A 
ATOM     18  C   UNL     1       4.861   6.744  16.675  0.00  0.00    +0.000 A 
ATOM     19  C   UNL     1       4.916   5.371  16.976  0.00  0.00    +0.000 A 
ATOM     20  C   UNL     1       4.033   4.883  17.956  0.00  0.00    +0.000 A 
ATOM     21  C   UNL     1       3.124   5.731  18.595  0.00  0.00    +0.000 A 
BRANCH  19  22
ATOM     22  C   UNL     1       5.862   4.413  16.242  0.00  0.00    +0.000 C 
ATOM     23  C   UNL     1       7.317   4.510  16.727  0.00  0.00    +0.000 C 
BRANCH  22  24
ATOM     24  O   UNL     1       5.453   3.053  16.482  0.00  0.00    +0.000 OA
ATOM     25  H   UNL     1       6.167   2.633  16.994  0.00  0.00    +0.000 HD
ENDBRANCH  22  24
BRANCH  22  26
ATOM     26  C   UNL     1       5.826   4.645  14.709  0.00  0.00    +0.000 C 
BRANCH  26  27
ATOM     27  O   UNL     1       7.010   5.287  14.231  0.00  0.00    +0.000 OA
ATOM     28  H   UNL     1       7.044   5.085  13.276  0.00  0.00    +0.000 HD
ENDBRANCH  26  27
ENDBRANCH  22  26
ENDBRANCH  19  22
ENDBRANCH   2  16
TORSDOF 6
ENDMDL
MODEL 5
REMARK VINA RESULT:      -7.3      2.253      2.443
REMARK  Name = 
REMARK  8 active torsions:
REMARK  status: ('A' for Active; 'I' for Inactive)
REMARK    1  A    between atoms: C_1  and  N_2
REMARK    2  A    between atoms: C_9  and  N_10
REMARK    3  A    between atoms: C_11  and  C_13
REMARK    4  A    between atoms: C_16  and  C_17
REMARK    5  A    between atoms: C_17  and  C_18
REMARK    6  A    between atoms: C_17  and  O_19
REMARK    7  A    between atoms: C_17  and  C_20
REMARK    8  A    between atoms: C_20  and  O_21
REMARK                            x       y       z     vdW  Elec       q    Type
REMARK                         _______ _______ _______ _____ _____    ______ ____
ROOT
ATOM      1  N   UNL     1       1.929   8.083  19.858  0.00  0.00    +0.000 N 
ATOM      2  C   UNL     1       2.027   8.051  18.476  0.00  0.00    +0.000 C 
ATOM      3  O   UNL     1       1.409   8.739  17.669  0.00  0.00    +0.000 OA
ATOM      4  H   UNL     1       2.534   7.491  20.402  0.00  0.00    +0.000 HD
ENDROOT
BRANCH   1  13
ATOM      5  C   UNL     1       1.187  13.500  20.460  0.00  0.00    +0.000 C 
ATOM      6  N   UNL     1       0.352  12.566  21.179  0.00  0.00    +0.000 N 
ATOM      7  C   UNL     1      -0.652  12.932  22.039  0.00  0.00    +0.000 A 
ATOM      8  C   UNL     1      -1.222  11.784  22.535  0.00  0.00    +0.000 A 
ATOM      9 CL   UNL     1      -2.510  11.695  23.641  0.00  0.00    +0.000 Cl
ATOM     10  C   UNL     1      -0.542  10.679  21.965  0.00  0.00    +0.000 A 
ATOM     11  C   UNL     1      -0.661   9.293  22.085  0.00  0.00    +0.000 A 
ATOM     12  N   UNL     1       0.162   8.470  21.398  0.00  0.00    +0.000 NA
ATOM     13  C   UNL     1       1.100   8.966  20.575  0.00  0.00    +0.000 A 
ATOM     14  C   UNL     1       1.288  10.336  20.384  0.00  0.00    +0.000 A 
ATOM     15  C   UNL     1       0.442  11.189  21.110  0.00  0.00    +0.000 A 
ENDBRANCH   1  13
BRANCH   2  16
ATOM     16  C   UNL     1       3.017   7.086  17.917  0.00  0.00    +0.000 A 
ATOM     17  C   UNL     1       2.862   5.701  18.012  0.00  0.00    +0.000 A 
ATOM     18  C   UNL     1       3.842   4.847  17.488  0.00  0.00    +0.000 A 
ATOM     19  C   UNL     1       4.987   5.349  16.843  0.00  0.00    +0.000 A 
ATOM     20  C   UNL     1       5.110   6.746  16.729  0.00  0.00    +0.000 A 
ATOM     21  C   UNL     1       4.136   7.601  17.253  0.00  0.00    +0.000 A 
BRANCH  19  22
ATOM     22  C   UNL     1       6.096   4.430  16.318  0.00  0.00    +0.000 C 
ATOM     23  C   UNL     1       7.377   4.484  17.164  0.00  0.00    +0.000 C 
BRANCH  22  24
ATOM     24  O   UNL     1       5.648   3.062  16.359  0.00  0.00    +0.000 OA
ATOM     25  H   UNL     1       6.417   2.510  16.129  0.00  0.00    +0.000 HD
ENDBRANCH  22  24
BRANCH  22  26
ATOM     26  C   UNL     1       6.452   4.757  14.844  0.00  0.00    +0.000 C 
BRANCH  26  27
ATOM     27  O   UNL     1       7.749   5.346  14.719  0.00  0.00    +0.000 OA
ATOM     28  H   UNL     1       7.626   6.113  14.129  0.00  0.00    +0.000 HD
ENDBRANCH  26  27
ENDBRANCH  22  26
ENDBRANCH  19  22
ENDBRANCH   2  16
TORSDOF 6
ENDMDL
MODEL 6
REMARK VINA RESULT:      -7.2      1.445      1.568
REMARK  Name = 
REMARK  8 active torsions:
REMARK  status: ('A' for Active; 'I' for Inactive)
REMARK    1  A    between atoms: C_1  and  N_2
REMARK    2  A    between atoms: C_9  and  N_10
REMARK    3  A    between atoms: C_11  and  C_13
REMARK    4  A    between atoms: C_16  and  C_17
REMARK    5  A    between atoms: C_17  and  C_18
REMARK    6  A    between atoms: C_17  and  O_19
REMARK    7  A    between atoms: C_17  and  C_20
REMARK    8  A    between atoms: C_20  and  O_21
REMARK                            x       y       z     vdW  Elec       q    Type
REMARK                         _______ _______ _______ _____ _____    ______ ____
ROOT
ATOM      1  N   UNL     1       2.093   8.264  18.787  0.00  0.00    +0.000 N 
ATOM      2  C   UNL     1       2.417   6.962  19.128  0.00  0.00    +0.000 C 
ATOM      3  O   UNL     1       2.066   6.344  20.129  0.00  0.00    +0.000 OA
ATOM      4  H   UNL     1       2.414   8.632  17.907  0.00  0.00    +0.000 HD
ENDROOT
BRANCH   1  13
ATOM      5  C   UNL     1      -0.595  13.034  18.250  0.00  0.00    +0.000 C 
ATOM      6  N   UNL     1      -0.685  12.282  19.480  0.00  0.00    +0.000 N 
ATOM      7  C   UNL     1      -1.413  12.675  20.573  0.00  0.00    +0.000 A 
ATOM      8  C   UNL     1      -1.261  11.718  21.548  0.00  0.00    +0.000 A 
ATOM      9 CL   UNL     1      -1.962  11.737  23.096  0.00  0.00    +0.000 Cl
ATOM     10  C   UNL     1      -0.408  10.709  21.037  0.00  0.00    +0.000 A 
ATOM     11  C   UNL     1       0.106   9.514  21.548  0.00  0.00    +0.000 A 
ATOM     12  N   UNL     1       0.926   8.743  20.801  0.00  0.00    +0.000 NA
ATOM     13  C   UNL     1       1.252   9.099  19.548  0.00  0.00    +0.000 A 
ATOM     14  C   UNL     1       0.781  10.269  18.949  0.00  0.00    +0.000 A 
ATOM     15  C   UNL     1      -0.059  11.076  19.733  0.00  0.00    +0.000 A 
ENDBRANCH   1  13
BRANCH   2  16
ATOM     16  C   UNL     1       3.268   6.226  18.148  0.00  0.00    +0.000 A 
ATOM     17  C   UNL     1       3.146   4.855  17.918  0.00  0.00    +0.000 A 
ATOM     18  C   UNL     1       3.994   4.217  17.003  0.00  0.00    +0.000 A 
ATOM     19  C   UNL     1       4.969   4.932  16.282  0.00  0.00    +0.000 A 
ATOM     20  C   UNL     1       5.055   6.318  16.504  0.00  0.00    +0.000 A 
ATOM     21  C   UNL     1       4.213   6.957  17.419  0.00  0.00    +0.000 A 
BRANCH  19  22
ATOM     22  C   UNL     1       5.943   4.240  15.322  0.00  0.00    +0.000 C 
ATOM     23  C   UNL     1       7.318   4.922  15.261  0.00  0.00    +0.000 C 
BRANCH  22  24
ATOM     24  O   UNL     1       6.186   2.893  15.769  0.00  0.00    +0.000 OA
ATOM     25  H   UNL     1       6.197   2.333  14.972  0.00  0.00    +0.000 HD
ENDBRANCH  22  24
BRANCH  22  26
ATOM     26  C   UNL     1       5.360   4.155  13.888  0.00  0.00    +0.000 C 
BRANCH  26  27
ATOM     27  O   UNL     1       6.135   3.306  13.038  0.00  0.00    +0.000 OA
ATOM     28  H   UNL     1       6.771   2.862  13.631  0.00  0.00    +0.000 HD
ENDBRANCH  26  27
ENDBRANCH  22  26
ENDBRANCH  19  22
ENDBRANCH   2  16
TORSDOF 6
ENDMDL
MODEL 7
REMARK VINA RESULT:      -7.2      1.740      2.394
REMARK  Name = 
REMARK  8 active torsions:
REMARK  status: ('A' for Active; 'I' for Inactive)
REMARK    1  A    between atoms: C_1  and  N_2
REMARK    2  A    between atoms: C_9  and  N_10
REMARK    3  A    between atoms: C_11  and  C_13
REMARK    4  A    between atoms: C_16  and  C_17
REMARK    5  A    between atoms: C_17  and  C_18
REMARK    6  A    between atoms: C_17  and  O_19
REMARK    7  A    between atoms: C_17  and  C_20
REMARK    8  A    between atoms: C_20  and  O_21
REMARK                            x       y       z     vdW  Elec       q    Type
REMARK                         _______ _______ _______ _____ _____    ______ ____
ROOT
ATOM      1  N   UNL     1       1.248   9.298  19.671  0.00  0.00    +0.000 N 
ATOM      2  C   UNL     1       1.403   8.127  20.395  0.00  0.00    +0.000 C 
ATOM      3  O   UNL     1       0.946   7.871  21.504  0.00  0.00    +0.000 OA
ATOM      4  H   UNL     1       1.642   9.355  18.747  0.00  0.00    +0.000 HD
ENDROOT
BRANCH   1  13
ATOM      5  C   UNL     1      -3.602  11.655  18.584  0.00  0.00    +0.000 C 
ATOM      6  N   UNL     1      -2.733  12.209  19.597  0.00  0.00    +0.000 N 
ATOM      7  C   UNL     1      -3.028  13.324  20.340  0.00  0.00    +0.000 A 
ATOM      8  C   UNL     1      -1.974  13.552  21.193  0.00  0.00    +0.000 A 
ATOM      9 CL   UNL     1      -1.849  14.815  22.323  0.00  0.00    +0.000 Cl
ATOM     10  C   UNL     1      -1.002  12.548  20.961  0.00  0.00    +0.000 A 
ATOM     11  C   UNL     1       0.254  12.263  21.503  0.00  0.00    +0.000 A 
ATOM     12  N   UNL     1       0.971  11.207  21.058  0.00  0.00    +0.000 NA
ATOM     13  C   UNL     1       0.487  10.402  20.099  0.00  0.00    +0.000 A 
ATOM     14  C   UNL     1      -0.761  10.602  19.505  0.00  0.00    +0.000 A 
ATOM     15  C   UNL     1      -1.497  11.709  19.958  0.00  0.00    +0.000 A 
ENDBRANCH   1  13
BRANCH   2  16
ATOM     16  C   UNL     1       2.195   7.052  19.730  0.00  0.00    +0.000 A 
ATOM     17  C   UNL     1       2.813   7.223  18.490  0.00  0.00    +0.000 A 
ATOM     18  C   UNL     1       3.522   6.165  17.906  0.00  0.00    +0.000 A 
ATOM     19  C   UNL     1       3.648   4.920  18.549  0.00  0.00    +0.000 A 
ATOM     20  C   UNL     1       3.045   4.777  19.812  0.00  0.00    +0.000 A 
ATOM     21  C   UNL     1       2.335   5.829  20.396  0.00  0.00    +0.000 A 
BRANCH  19  22
ATOM     22  C   UNL     1       4.369   3.735  17.898  0.00  0.00    +0.000 C 
ATOM     23  C   UNL     1       4.888   4.045  16.485  0.00  0.00    +0.000 C 
BRANCH  22  24
ATOM     24  O   UNL     1       5.528   3.387  18.679  0.00  0.00    +0.000 OA
ATOM     25  H   UNL     1       5.900   4.222  19.014  0.00  0.00    +0.000 HD
ENDBRANCH  22  24
BRANCH  22  26
ATOM     26  C   UNL     1       3.458   2.482  17.835  0.00  0.00    +0.000 C 
BRANCH  26  27
ATOM     27  O   UNL     1       4.111   1.313  18.336  0.00  0.00    +0.000 OA
ATOM     28  H   UNL     1       3.402   0.650  18.445  0.00  0.00    +0.000 HD
ENDBRANCH  26  27
ENDBRANCH  22  26
ENDBRANCH  19  22
ENDBRANCH   2  16
TORSDOF 6
ENDMDL
MODEL 8
REMARK VINA RESULT:      -7.2      1.237      2.045
REMARK  Name = 
REMARK  8 active torsions:
REMARK  status: ('A' for Active; 'I' for Inactive)
REMARK    1  A    between atoms: C_1  and  N_2
REMARK    2  A    between atoms: C_9  and  N_10
REMARK    3  A    between atoms: C_11  and  C_13
REMARK    4  A    between atoms: C_16  and  C_17
REMARK    5  A    between atoms: C_17  and  C_18
REMARK    6  A    between atoms: C_17  and  O_19
REMARK    7  A    between atoms: C_17  and  C_20
REMARK    8  A    between atoms: C_20  and  O_21
REMARK                            x       y       z     vdW  Elec       q    Type
REMARK                         _______ _______ _______ _____ _____    ______ ____
ROOT
ATOM      1  N   UNL     1       1.662   8.869  18.021  0.00  0.00    +0.000 N 
ATOM      2  C   UNL     1       2.178   7.850  18.805  0.00  0.00    +0.000 C 
ATOM      3  O   UNL     1       1.908   7.601  19.976  0.00  0.00    +0.000 OA
ATOM      4  H   UNL     1       1.939   8.929  17.055  0.00  0.00    +0.000 HD
ENDROOT
BRANCH   1  13
ATOM      5  C   UNL     1       1.363  13.513  20.954  0.00  0.00    +0.000 C 
ATOM      6  N   UNL     1       0.170  12.939  20.374  0.00  0.00    +0.000 N 
ATOM      7  C   UNL     1      -1.085  13.477  20.502  0.00  0.00    +0.000 A 
ATOM      8  C   UNL     1      -1.963  12.663  19.826  0.00  0.00    +0.000 A 
ATOM      9 CL   UNL     1      -3.641  12.892  19.682  0.00  0.00    +0.000 Cl
ATOM     10  C   UNL     1      -1.223  11.590  19.271  0.00  0.00    +0.000 A 
ATOM     11  C   UNL     1      -1.553  10.471  18.503  0.00  0.00    +0.000 A 
ATOM     12  N   UNL     1      -0.598   9.595  18.119  0.00  0.00    +0.000 NA
ATOM     13  C   UNL     1       0.687   9.789  18.453  0.00  0.00    +0.000 A 
ATOM     14  C   UNL     1       1.114  10.881  19.209  0.00  0.00    +0.000 A 
ATOM     15  C   UNL     1       0.119  11.782  19.621  0.00  0.00    +0.000 A 
ENDBRANCH   1  13
BRANCH   2  16
ATOM     16  C   UNL     1       3.152   6.942  18.132  0.00  0.00    +0.000 A 
ATOM     17  C   UNL     1       3.201   5.569  18.377  0.00  0.00    +0.000 A 
ATOM     18  C   UNL     1       4.158   4.773  17.732  0.00  0.00    +0.000 A 
ATOM     19  C   UNL     1       5.073   5.322  16.815  0.00  0.00    +0.000 A 
ATOM     20  C   UNL     1       4.987   6.702  16.558  0.00  0.00    +0.000 A 
ATOM     21  C   UNL     1       4.036   7.499  17.201  0.00  0.00    +0.000 A 
BRANCH  19  22
ATOM     22  C   UNL     1       6.163   4.477  16.146  0.00  0.00    +0.000 C 
ATOM     23  C   UNL     1       7.497   4.497  16.909  0.00  0.00    +0.000 C 
BRANCH  22  24
ATOM     24  O   UNL     1       5.748   3.099  16.106  0.00  0.00    +0.000 OA
ATOM     25  H   UNL     1       6.489   2.595  15.724  0.00  0.00    +0.000 HD
ENDBRANCH  22  24
BRANCH  22  26
ATOM     26  C   UNL     1       6.413   4.929  14.684  0.00  0.00    +0.000 C 
BRANCH  26  27
ATOM     27  O   UNL     1       7.718   5.484  14.505  0.00  0.00    +0.000 OA
ATOM     28  H   UNL     1       7.827   5.576  13.539  0.00  0.00    +0.000 HD
ENDBRANCH  26  27
ENDBRANCH  22  26
ENDBRANCH  19  22
ENDBRANCH   2  16
TORSDOF 6
ENDMDL
MODEL 9
REMARK VINA RESULT:      -7.2      1.335      2.140
REMARK  Name = 
REMARK  8 active torsions:
REMARK  status: ('A' for Active; 'I' for Inactive)
REMARK    1  A    between atoms: C_1  and  N_2
REMARK    2  A    between atoms: C_9  and  N_10
REMARK    3  A    between atoms: C_11  and  C_13
REMARK    4  A    between atoms: C_16  and  C_17
REMARK    5  A    between atoms: C_17  and  C_18
REMARK    6  A    between atoms: C_17  and  O_19
REMARK    7  A    between atoms: C_17  and  C_20
REMARK    8  A    between atoms: C_20  and  O_21
REMARK                            x       y       z     vdW  Elec       q    Type
REMARK                         _______ _______ _______ _____ _____    ______ ____
ROOT
ATOM      1  N   UNL     1       1.963   8.544  18.449  0.00  0.00    +0.000 N 
ATOM      2  C   UNL     1       2.330   7.309  18.956  0.00  0.00    +0.000 C 
ATOM      3  O   UNL     1       1.997   6.814  20.029  0.00  0.00    +0.000 OA
ATOM      4  H   UNL     1       2.275   8.806  17.529  0.00  0.00    +0.000 HD
ENDROOT
BRANCH   1  13
ATOM      5  C   UNL     1       0.025   9.518  23.504  0.00  0.00    +0.000 C 
ATOM      6  N   UNL     1      -0.379  10.353  22.396  0.00  0.00    +0.000 N 
ATOM      7  C   UNL     1      -1.244  11.411  22.503  0.00  0.00    +0.000 A 
ATOM      8  C   UNL     1      -1.393  11.962  21.252  0.00  0.00    +0.000 A 
ATOM      9 CL   UNL     1      -2.362  13.299  20.849  0.00  0.00    +0.000 Cl
ATOM     10  C   UNL     1      -0.597  11.214  20.350  0.00  0.00    +0.000 A 
ATOM     11  C   UNL     1      -0.348  11.286  18.978  0.00  0.00    +0.000 A 
ATOM     12  N   UNL     1       0.479  10.400  18.381  0.00  0.00    +0.000 NA
ATOM     13  C   UNL     1       1.090   9.441  19.095  0.00  0.00    +0.000 A 
ATOM     14  C   UNL     1       0.910   9.295  20.472  0.00  0.00    +0.000 A 
ATOM     15  C   UNL     1       0.038  10.208  21.087  0.00  0.00    +0.000 A 
ENDBRANCH   1  13
BRANCH   2  16
ATOM     16  C   UNL     1       3.211   6.483  18.080  0.00  0.00    +0.000 A 
ATOM     17  C   UNL     1       3.125   5.091  18.017  0.00  0.00    +0.000 A 
ATOM     18  C   UNL     1       3.999   4.370  17.193  0.00  0.00    +0.000 A 
ATOM     19  C   UNL     1       4.965   5.017  16.400  0.00  0.00    +0.000 A 
ATOM     20  C   UNL     1       5.015   6.422  16.453  0.00  0.00    +0.000 A 
ATOM     21  C   UNL     1       4.146   7.144  17.276  0.00  0.00    +0.000 A 
BRANCH  19  22
ATOM     22  C   UNL     1       5.967   4.240  15.538  0.00  0.00    +0.000 C 
ATOM     23  C   UNL     1       7.418   4.708  15.729  0.00  0.00    +0.000 C 
BRANCH  22  24
ATOM     24  O   UNL     1       5.945   2.849  15.910  0.00  0.00    +0.000 OA
ATOM     25  H   UNL     1       5.209   2.441  15.421  0.00  0.00    +0.000 HD
ENDBRANCH  22  24
BRANCH  22  26
ATOM     26  C   UNL     1       5.605   4.323  14.033  0.00  0.00    +0.000 C 
BRANCH  26  27
ATOM     27  O   UNL     1       6.226   3.287  13.269  0.00  0.00    +0.000 OA
ATOM     28  H   UNL     1       5.535   2.970  12.656  0.00  0.00    +0.000 HD
ENDBRANCH  26  27
ENDBRANCH  22  26
ENDBRANCH  19  22
ENDBRANCH   2  16
TORSDOF 6
ENDMDL
