MODEL 1
REMARK VINA RESULT:      -6.9      0.000      0.000
REMARK  Name = 
REMARK  6 active torsions:
REMARK  status: ('A' for Active; 'I' for Inactive)
REMARK    1  A    between atoms: C_1  and  S_2
REMARK    2  A    between atoms: S_2  and  C_3
REMARK    3  A    between atoms: C_6  and  C_7
REMARK    4  A    between atoms: C_8  and  C_9
REMARK    5  A    between atoms: C_8  and  C_12
REMARK    6  A    between atoms: C_9  and  O_11
REMARK                            x       y       z     vdW  Elec       q    Type
REMARK                         _______ _______ _______ _____ _____    ______ ____
ROOT
ATOM      1  C   UNL     1       4.991   3.944  16.104  0.00  0.00    +0.000 C 
ATOM      2  C   UNL     1       6.135   4.617  15.844  0.00  0.00    +0.000 C 
ENDROOT
BRANCH   2   3
ATOM      3  C   UNL     1       6.694   5.627  16.764  0.00  0.00    +0.000 A 
ATOM      4  C   UNL     1       7.499   5.242  17.844  0.00  0.00    +0.000 A 
ATOM      5  C   UNL     1       8.146   6.211  18.617  0.00  0.00    +0.000 A 
ATOM      6  C   UNL     1       7.989   7.563  18.315  0.00  0.00    +0.000 A 
ATOM      7 CL   UNL     1       8.828   8.750  19.236  0.00  0.00    +0.000 Cl
ATOM      8  C   UNL     1       7.173   7.959  17.257  0.00  0.00    +0.000 A 
ATOM      9  C   UNL     1       6.525   6.992  16.484  0.00  0.00    +0.000 A 
ENDBRANCH   2   3
BRANCH   1  13
ATOM     10  C   UNL     1       2.317   4.137  19.443  0.00  0.00    +0.000 A 
ATOM     11  C   UNL     1       2.432   5.213  18.561  0.00  0.00    +0.000 A 
ATOM     12  C   UNL     1       3.338   5.161  17.493  0.00  0.00    +0.000 A 
ATOM     13  C   UNL     1       4.146   4.038  17.302  0.00  0.00    +0.000 A 
ATOM     14  C   UNL     1       4.056   2.970  18.202  0.00  0.00    +0.000 A 
ATOM     15  C   UNL     1       3.147   3.025  19.269  0.00  0.00    +0.000 A 
BRANCH  10  17
ATOM     16  C   UNL     1       1.599   2.593  21.631  0.00  0.00    +0.000 C 
ATOM     17  S   UNL     1       1.182   4.163  20.820  0.00  0.00    +0.000 S 
ENDBRANCH  10  17
ENDBRANCH   1  13
BRANCH   2  18
ATOM     18  C   UNL     1       6.828   4.456  14.519  0.00  0.00    +0.000 C 
ATOM     19  O   UNL     1       7.748   5.175  14.159  0.00  0.00    +0.000 OA
BRANCH  18  20
ATOM     20  O   UNL     1       6.379   3.441  13.754  0.00  0.00    +0.000 OA
ATOM     21  H   UNL     1       6.848   2.596  13.865  0.00  0.00    +0.000 HD
ENDBRANCH  18  20
ENDBRANCH   2  18
TORSDOF 5
ENDMDL
MODEL 2
REMARK VINA RESULT:      -6.9      0.232      1.099
REMARK  Name = 
REMARK  6 active torsions:
REMARK  status: ('A' for Active; 'I' for Inactive)
REMARK    1  A    between atoms: C_1  and  S_2
REMARK    2  A    between atoms: S_2  and  C_3
REMARK    3  A    between atoms: C_6  and  C_7
REMARK    4  A    between atoms: C_8  and  C_9
REMARK    5  A    between atoms: C_8  and  C_12
REMARK    6  A    between atoms: C_9  and  O_11
REMARK                            x       y       z     vdW  Elec       q    Type
REMARK                         _______ _______ _______ _____ _____    ______ ____
ROOT
ATOM      1  C   UNL     1       4.900   3.905  15.944  0.00  0.00    +0.000 C 
ATOM      2  C   UNL     1       6.061   4.559  15.714  0.00  0.00    +0.000 C 
ENDROOT
BRANCH   2   3
ATOM      3  C   UNL     1       6.632   5.530  16.668  0.00  0.00    +0.000 A 
ATOM      4  C   UNL     1       7.434   5.099  17.733  0.00  0.00    +0.000 A 
ATOM      5  C   UNL     1       8.093   6.032  18.539  0.00  0.00    +0.000 A 
ATOM      6  C   UNL     1       7.952   7.396  18.284  0.00  0.00    +0.000 A 
ATOM      7 CL   UNL     1       8.806   8.540  19.243  0.00  0.00    +0.000 Cl
ATOM      8  C   UNL     1       7.139   7.837  17.241  0.00  0.00    +0.000 A 
ATOM      9  C   UNL     1       6.479   6.906  16.436  0.00  0.00    +0.000 A 
ENDBRANCH   2   3
BRANCH   1  13
ATOM     10  C   UNL     1       2.634   4.181  19.568  0.00  0.00    +0.000 A 
ATOM     11  C   UNL     1       3.255   2.984  19.206  0.00  0.00    +0.000 A 
ATOM     12  C   UNL     1       3.960   2.886  17.999  0.00  0.00    +0.000 A 
ATOM     13  C   UNL     1       4.046   3.982  17.137  0.00  0.00    +0.000 A 
ATOM     14  C   UNL     1       3.399   5.174  17.481  0.00  0.00    +0.000 A 
ATOM     15  C   UNL     1       2.695   5.268  18.690  0.00  0.00    +0.000 A 
BRANCH  10  17
ATOM     16  C   UNL     1       1.740   2.633  21.687  0.00  0.00    +0.000 C 
ATOM     17  S   UNL     1       1.719   4.347  21.091  0.00  0.00    +0.000 S 
ENDBRANCH  10  17
ENDBRANCH   1  13
BRANCH   2  18
ATOM     18  C   UNL     1       6.763   4.420  14.392  0.00  0.00    +0.000 C 
ATOM     19  O   UNL     1       7.650   5.178  14.028  0.00  0.00    +0.000 OA
BRANCH  18  20
ATOM     20  O   UNL     1       6.363   3.380  13.634  0.00  0.00    +0.000 OA
ATOM     21  H   UNL     1       7.077   2.839  13.257  0.00  0.00    +0.000 HD
ENDBRANCH  18  20
ENDBRANCH   2  18
TORSDOF 5
ENDMDL
MODEL 3
REMARK VINA RESULT:      -6.7      4.035      5.696
REMARK  Name = 
REMARK  6 active torsions:
REMARK  status: ('A' for Active; 'I' for Inactive)
REMARK    1  A    between atoms: C_1  and  S_2
REMARK    2  A    between atoms: S_2  and  C_3
REMARK    3  A    between atoms: C_6  and  C_7
REMARK    4  A    between atoms: C_8  and  C_9
REMARK    5  A    between atoms: C_8  and  C_12
REMARK    6  A    between atoms: C_9  and  O_11
REMARK                            x       y       z     vdW  Elec       q    Type
REMARK                         _______ _______ _______ _____ _____    ______ ____
ROOT
ATOM      1  C   UNL     1       3.371   7.571  17.470  0.00  0.00    +0.000 C 
ATOM      2  C   UNL     1       3.735   6.269  17.434  0.00  0.00    +0.000 C 
ENDROOT
BRANCH   2   3
ATOM      3  C   UNL     1       3.176   5.258  18.352  0.00  0.00    +0.000 A 
ATOM      4  C   UNL     1       3.794   4.989  19.581  0.00  0.00    +0.000 A 
ATOM      5  C   UNL     1       3.176   4.143  20.507  0.00  0.00    +0.000 A 
ATOM      6  C   UNL     1       1.943   3.564  20.208  0.00  0.00    +0.000 A 
ATOM      7 CL   UNL     1       1.161   2.567  21.370  0.00  0.00    +0.000 Cl
ATOM      8  C   UNL     1       1.330   3.807  18.980  0.00  0.00    +0.000 A 
ATOM      9  C   UNL     1       1.947   4.650  18.054  0.00  0.00    +0.000 A 
ENDBRANCH   2   3
BRANCH   1  13
ATOM     10  C   UNL     1       0.654   9.559  20.117  0.00  0.00    +0.000 A 
ATOM     11  C   UNL     1       1.399   8.463  20.554  0.00  0.00    +0.000 A 
ATOM     12  C   UNL     1       2.256   7.789  19.672  0.00  0.00    +0.000 A 
ATOM     13  C   UNL     1       2.371   8.200  18.342  0.00  0.00    +0.000 A 
ATOM     14  C   UNL     1       1.603   9.280  17.892  0.00  0.00    +0.000 A 
ATOM     15  C   UNL     1       0.747   9.952  18.778  0.00  0.00    +0.000 A 
BRANCH  10  17
ATOM     16  C   UNL     1      -0.364   9.405  22.691  0.00  0.00    +0.000 C 
ATOM     17  S   UNL     1      -0.455  10.441  21.203  0.00  0.00    +0.000 S 
ENDBRANCH  10  17
ENDBRANCH   1  13
BRANCH   2  18
ATOM     18  C   UNL     1       4.845   5.815  16.526  0.00  0.00    +0.000 C 
ATOM     19  O   UNL     1       5.059   4.637  16.277  0.00  0.00    +0.000 OA
BRANCH  18  20
ATOM     20  O   UNL     1       5.583   6.801  15.981  0.00  0.00    +0.000 OA
ATOM     21  H   UNL     1       5.084   7.580  15.682  0.00  0.00    +0.000 HD
ENDBRANCH  18  20
ENDBRANCH   2  18
TORSDOF 5
ENDMDL
MODEL 4
REMARK VINA RESULT:      -6.6      4.176      6.219
REMARK  Name = 
REMARK  6 active torsions:
REMARK  status: ('A' for Active; 'I' for Inactive)
REMARK    1  A    between atoms: C_1  and  S_2
REMARK    2  A    between atoms: S_2  and  C_3
REMARK    3  A    between atoms: C_6  and  C_7
REMARK    4  A    between atoms: C_8  and  C_9
REMARK    5  A    between atoms: C_8  and  C_12
REMARK    6  A    between atoms: C_9  and  O_11
REMARK                            x       y       z     vdW  Elec       q    Type
REMARK                         _______ _______ _______ _____ _____    ______ ____
ROOT
ATOM      1  C   UNL     1       3.571   3.176  19.518  0.00  0.00    +0.000 C 
ATOM      2  C   UNL     1       2.557   3.912  20.028  0.00  0.00    +0.000 C 
ENDROOT
BRANCH   2   3
ATOM      3  C   UNL     1       2.271   5.292  19.586  0.00  0.00    +0.000 A 
ATOM      4  C   UNL     1       2.076   6.316  20.522  0.00  0.00    +0.000 A 
ATOM      5  C   UNL     1       1.957   7.643  20.096  0.00  0.00    +0.000 A 
ATOM      6  C   UNL     1       2.030   7.947  18.737  0.00  0.00    +0.000 A 
ATOM      7 CL   UNL     1       1.936   9.586  18.221  0.00  0.00    +0.000 Cl
ATOM      8  C   UNL     1       2.201   6.934  17.796  0.00  0.00    +0.000 A 
ATOM      9  C   UNL     1       2.319   5.609  18.219  0.00  0.00    +0.000 A 
ENDBRANCH   2   3
BRANCH   1  13
ATOM     10  C   UNL     1       6.137   4.488  16.351  0.00  0.00    +0.000 A 
ATOM     11  C   UNL     1       5.026   3.687  16.080  0.00  0.00    +0.000 A 
ATOM     12  C   UNL     1       4.213   3.226  17.124  0.00  0.00    +0.000 A 
ATOM     13  C   UNL     1       4.507   3.554  18.451  0.00  0.00    +0.000 A 
ATOM     14  C   UNL     1       5.637   4.331  18.728  0.00  0.00    +0.000 A 
ATOM     15  C   UNL     1       6.448   4.791  17.680  0.00  0.00    +0.000 A 
BRANCH  10  17
ATOM     16  C   UNL     1       6.566   4.162  13.631  0.00  0.00    +0.000 C 
ATOM     17  S   UNL     1       7.205   5.091  15.053  0.00  0.00    +0.000 S 
ENDBRANCH  10  17
ENDBRANCH   1  13
BRANCH   2  18
ATOM     18  C   UNL     1       1.747   3.394  21.183  0.00  0.00    +0.000 C 
ATOM     19  O   UNL     1       2.187   3.314  22.320  0.00  0.00    +0.000 OA
BRANCH  18  20
ATOM     20  O   UNL     1       0.481   3.040  20.885  0.00  0.00    +0.000 OA
ATOM     21  H   UNL     1      -0.053   3.727  20.452  0.00  0.00    +0.000 HD
ENDBRANCH  18  20
ENDBRANCH   2  18
TORSDOF 5
ENDMDL
MODEL 5
REMARK VINA RESULT:      -6.6      2.885      4.054
REMARK  Name = 
REMARK  6 active torsions:
REMARK  status: ('A' for Active; 'I' for Inactive)
REMARK    1  A    between atoms: C_1  and  S_2
REMARK    2  A    between atoms: S_2  and  C_3
REMARK    3  A    between atoms: C_6  and  C_7
REMARK    4  A    between atoms: C_8  and  C_9
REMARK    5  A    between atoms: C_8  and  C_12
REMARK    6  A    between atoms: C_9  and  O_11
REMARK                            x       y       z     vdW  Elec       q    Type
REMARK                         _______ _______ _______ _____ _____    ______ ____
ROOT
ATOM      1  C   UNL     1       5.857   6.176  19.076  0.00  0.00    +0.000 C 
ATOM      2  C   UNL     1       6.548   6.363  17.929  0.00  0.00    +0.000 C 
ENDROOT
BRANCH   2   3
ATOM      3  C   UNL     1       6.264   5.606  16.694  0.00  0.00    +0.000 A 
ATOM      4  C   UNL     1       5.329   6.080  15.764  0.00  0.00    +0.000 A 
ATOM      5  C   UNL     1       5.178   5.439  14.531  0.00  0.00    +0.000 A 
ATOM      6  C   UNL     1       5.957   4.324  14.225  0.00  0.00    +0.000 A 
ATOM      7 CL   UNL     1       5.806   3.569  12.686  0.00  0.00    +0.000 Cl
ATOM      8  C   UNL     1       6.874   3.830  15.150  0.00  0.00    +0.000 A 
ATOM      9  C   UNL     1       7.026   4.469  16.383  0.00  0.00    +0.000 A 
ENDBRANCH   2   3
BRANCH   1  13
ATOM     10  C   UNL     1       2.612   3.539  20.003  0.00  0.00    +0.000 A 
ATOM     11  C   UNL     1       3.890   3.034  19.753  0.00  0.00    +0.000 A 
ATOM     12  C   UNL     1       4.939   3.898  19.409  0.00  0.00    +0.000 A 
ATOM     13  C   UNL     1       4.720   5.274  19.304  0.00  0.00    +0.000 A 
ATOM     14  C   UNL     1       3.434   5.780  19.524  0.00  0.00    +0.000 A 
ATOM     15  C   UNL     1       2.387   4.912  19.869  0.00  0.00    +0.000 A 
BRANCH  10  17
ATOM     16  C   UNL     1       0.544   2.142  18.796  0.00  0.00    +0.000 C 
ATOM     17  S   UNL     1       1.245   2.476  20.436  0.00  0.00    +0.000 S 
ENDBRANCH  10  17
ENDBRANCH   1  13
BRANCH   2  18
ATOM     18  C   UNL     1       7.745   7.272  17.901  0.00  0.00    +0.000 C 
ATOM     19  O   UNL     1       7.964   8.053  16.987  0.00  0.00    +0.000 OA
BRANCH  18  20
ATOM     20  O   UNL     1       8.558   7.187  18.973  0.00  0.00    +0.000 OA
ATOM     21  H   UNL     1       9.372   7.716  18.922  0.00  0.00    +0.000 HD
ENDBRANCH  18  20
ENDBRANCH   2  18
TORSDOF 5
ENDMDL
MODEL 6
REMARK VINA RESULT:      -6.5      4.206      6.281
REMARK  Name = 
REMARK  6 active torsions:
REMARK  status: ('A' for Active; 'I' for Inactive)
REMARK    1  A    between atoms: C_1  and  S_2
REMARK    2  A    between atoms: S_2  and  C_3
REMARK    3  A    between atoms: C_6  and  C_7
REMARK    4  A    between atoms: C_8  and  C_9
REMARK    5  A    between atoms: C_8  and  C_12
REMARK    6  A    between atoms: C_9  and  O_11
REMARK                            x       y       z     vdW  Elec       q    Type
REMARK                         _______ _______ _______ _____ _____    ______ ____
ROOT
ATOM      1  C   UNL     1       3.553   3.373  19.398  0.00  0.00    +0.000 C 
ATOM      2  C   UNL     1       2.559   4.048  20.019  0.00  0.00    +0.000 C 
ENDROOT
BRANCH   2   3
ATOM      3  C   UNL     1       2.209   5.442  19.681  0.00  0.00    +0.000 A 
ATOM      4  C   UNL     1       1.880   6.360  20.688  0.00  0.00    +0.000 A 
ATOM      5  C   UNL     1       1.700   7.711  20.374  0.00  0.00    +0.000 A 
ATOM      6  C   UNL     1       1.844   8.145  19.057  0.00  0.00    +0.000 A 
ATOM      7 CL   UNL     1       1.673   9.816  18.684  0.00  0.00    +0.000 Cl
ATOM      8  C   UNL     1       2.149   7.238  18.045  0.00  0.00    +0.000 A 
ATOM      9  C   UNL     1       2.329   5.889  18.356  0.00  0.00    +0.000 A 
ENDBRANCH   2   3
BRANCH   1  13
ATOM     10  C   UNL     1       6.178   4.501  16.208  0.00  0.00    +0.000 A 
ATOM     11  C   UNL     1       6.531   4.737  17.537  0.00  0.00    +0.000 A 
ATOM     12  C   UNL     1       5.651   4.404  18.576  0.00  0.00    +0.000 A 
ATOM     13  C   UNL     1       4.405   3.839  18.296  0.00  0.00    +0.000 A 
ATOM     14  C   UNL     1       4.034   3.629  16.963  0.00  0.00    +0.000 A 
ATOM     15  C   UNL     1       4.918   3.963  15.927  0.00  0.00    +0.000 A 
BRANCH  10  17
ATOM     16  C   UNL     1       6.477   4.002  13.497  0.00  0.00    +0.000 C 
ATOM     17  S   UNL     1       7.264   4.916  14.854  0.00  0.00    +0.000 S 
ENDBRANCH  10  17
ENDBRANCH   1  13
BRANCH   2  18
ATOM     18  C   UNL     1       1.843   3.439  21.192  0.00  0.00    +0.000 C 
ATOM     19  O   UNL     1       2.356   3.319  22.295  0.00  0.00    +0.000 OA
BRANCH  18  20
ATOM     20  O   UNL     1       0.574   3.050  20.953  0.00  0.00    +0.000 OA
ATOM     21  H   UNL     1       0.337   2.171  21.293  0.00  0.00    +0.000 HD
ENDBRANCH  18  20
ENDBRANCH   2  18
TORSDOF 5
ENDMDL
MODEL 7
REMARK VINA RESULT:      -6.5      4.250      6.335
REMARK  Name = 
REMARK  6 active torsions:
REMARK  status: ('A' for Active; 'I' for Inactive)
REMARK    1  A    between atoms: C_1  and  S_2
REMARK    2  A    between atoms: S_2  and  C_3
REMARK    3  A    between atoms: C_6  and  C_7
REMARK    4  A    between atoms: C_8  and  C_9
REMARK    5  A    between atoms: C_8  and  C_12
REMARK    6  A    between atoms: C_9  and  O_11
REMARK                            x       y       z     vdW  Elec       q    Type
REMARK                         _______ _______ _______ _____ _____    ______ ____
ROOT
ATOM      1  C   UNL     1       3.444   3.436  19.251  0.00  0.00    +0.000 C 
ATOM      2  C   UNL     1       2.548   4.178  19.939  0.00  0.00    +0.000 C 
ENDROOT
BRANCH   2   3
ATOM      3  C   UNL     1       2.370   5.627  19.715  0.00  0.00    +0.000 A 
ATOM      4  C   UNL     1       2.533   6.177  18.436  0.00  0.00    +0.000 A 
ATOM      5  C   UNL     1       2.215   7.519  18.205  0.00  0.00    +0.000 A 
ATOM      6  C   UNL     1       1.739   8.313  19.247  0.00  0.00    +0.000 A 
ATOM      7 CL   UNL     1       1.300   9.949  18.946  0.00  0.00    +0.000 Cl
ATOM      8  C   UNL     1       1.595   7.782  20.528  0.00  0.00    +0.000 A 
ATOM      9  C   UNL     1       1.912   6.443  20.761  0.00  0.00    +0.000 A 
ENDBRANCH   2   3
BRANCH   1  13
ATOM     10  C   UNL     1       6.171   4.483  16.119  0.00  0.00    +0.000 A 
ATOM     11  C   UNL     1       6.528   4.649  17.458  0.00  0.00    +0.000 A 
ATOM     12  C   UNL     1       5.617   4.344  18.479  0.00  0.00    +0.000 A 
ATOM     13  C   UNL     1       4.337   3.878  18.171  0.00  0.00    +0.000 A 
ATOM     14  C   UNL     1       3.964   3.740  16.829  0.00  0.00    +0.000 A 
ATOM     15  C   UNL     1       4.879   4.046  15.811  0.00  0.00    +0.000 A 
BRANCH  10  17
ATOM     16  C   UNL     1       6.497   3.996  13.409  0.00  0.00    +0.000 C 
ATOM     17  S   UNL     1       7.296   4.867  14.787  0.00  0.00    +0.000 S 
ENDBRANCH  10  17
ENDBRANCH   1  13
BRANCH   2  18
ATOM     18  C   UNL     1       1.772   3.573  21.076  0.00  0.00    +0.000 C 
ATOM     19  O   UNL     1       2.234   3.444  22.200  0.00  0.00    +0.000 OA
BRANCH  18  20
ATOM     20  O   UNL     1       0.512   3.199  20.779  0.00  0.00    +0.000 OA
ATOM     21  H   UNL     1       0.325   2.250  20.875  0.00  0.00    +0.000 HD
ENDBRANCH  18  20
ENDBRANCH   2  18
TORSDOF 5
ENDMDL
MODEL 8
REMARK VINA RESULT:      -6.4      3.467      4.799
REMARK  Name = 
REMARK  6 active torsions:
REMARK  status: ('A' for Active; 'I' for Inactive)
REMARK    1  A    between atoms: C_1  and  S_2
REMARK    2  A    between atoms: S_2  and  C_3
REMARK    3  A    between atoms: C_6  and  C_7
REMARK    4  A    between atoms: C_8  and  C_9
REMARK    5  A    between atoms: C_8  and  C_12
REMARK    6  A    between atoms: C_9  and  O_11
REMARK                            x       y       z     vdW  Elec       q    Type
REMARK                         _______ _______ _______ _____ _____    ______ ____
ROOT
ATOM      1  C   UNL     1       3.109   4.283  19.757  0.00  0.00    +0.000 C 
ATOM      2  C   UNL     1       4.111   3.582  19.180  0.00  0.00    +0.000 C 
ENDROOT
BRANCH   2   3
ATOM      3  C   UNL     1       4.874   4.086  18.021  0.00  0.00    +0.000 A 
ATOM      4  C   UNL     1       6.137   4.670  18.195  0.00  0.00    +0.000 A 
ATOM      5  C   UNL     1       6.915   5.005  17.083  0.00  0.00    +0.000 A 
ATOM      6  C   UNL     1       6.434   4.760  15.798  0.00  0.00    +0.000 A 
ATOM      7 CL   UNL     1       7.416   5.125  14.433  0.00  0.00    +0.000 Cl
ATOM      8  C   UNL     1       5.172   4.201  15.611  0.00  0.00    +0.000 A 
ATOM      9  C   UNL     1       4.393   3.867  16.721  0.00  0.00    +0.000 A 
ENDBRANCH   2   3
BRANCH   1  13
ATOM     10  C   UNL     1       1.963   8.300  18.814  0.00  0.00    +0.000 A 
ATOM     11  C   UNL     1       1.810   7.802  20.109  0.00  0.00    +0.000 A 
ATOM     12  C   UNL     1       2.147   6.474  20.403  0.00  0.00    +0.000 A 
ATOM     13  C   UNL     1       2.634   5.627  19.404  0.00  0.00    +0.000 A 
ATOM     14  C   UNL     1       2.760   6.114  18.098  0.00  0.00    +0.000 A 
ATOM     15  C   UNL     1       2.422   7.444  17.808  0.00  0.00    +0.000 A 
BRANCH  10  17
ATOM     16  C   UNL     1       0.803  10.546  19.954  0.00  0.00    +0.000 C 
ATOM     17  S   UNL     1       1.539   9.982  18.393  0.00  0.00    +0.000 S 
ENDBRANCH  10  17
ENDBRANCH   1  13
BRANCH   2  18
ATOM     18  C   UNL     1       4.408   2.176  19.621  0.00  0.00    +0.000 C 
ATOM     19  O   UNL     1       4.936   1.912  20.691  0.00  0.00    +0.000 OA
BRANCH  18  20
ATOM     20  O   UNL     1       4.029   1.211  18.759  0.00  0.00    +0.000 OA
ATOM     21  H   UNL     1       4.368   0.320  18.955  0.00  0.00    +0.000 HD
ENDBRANCH  18  20
ENDBRANCH   2  18
TORSDOF 5
ENDMDL
MODEL 9
REMARK VINA RESULT:      -6.4      3.474      4.844
REMARK  Name = 
REMARK  6 active torsions:
REMARK  status: ('A' for Active; 'I' for Inactive)
REMARK    1  A    between atoms: C_1  and  S_2
REMARK    2  A    between atoms: S_2  and  C_3
REMARK    3  A    between atoms: C_6  and  C_7
REMARK    4  A    between atoms: C_8  and  C_9
REMARK    5  A    between atoms: C_8  and  C_12
REMARK    6  A    between atoms: C_9  and  O_11
REMARK                            x       y       z     vdW  Elec       q    Type
REMARK                         _______ _______ _______ _____ _____    ______ ____
ROOT
ATOM      1  C   UNL     1       2.952   4.441  19.646  0.00  0.00    +0.000 C 
ATOM      2  C   UNL     1       3.877   3.677  19.023  0.00  0.00    +0.000 C 
ENDROOT
BRANCH   2   3
ATOM      3  C   UNL     1       4.719   4.181  17.920  0.00  0.00    +0.000 A 
ATOM      4  C   UNL     1       5.957   4.784  18.184  0.00  0.00    +0.000 A 
ATOM      5  C   UNL     1       6.812   5.119  17.130  0.00  0.00    +0.000 A 
ATOM      6  C   UNL     1       6.433   4.857  15.814  0.00  0.00    +0.000 A 
ATOM      7 CL   UNL     1       7.511   5.223  14.524  0.00  0.00    +0.000 Cl
ATOM      8  C   UNL     1       5.196   4.279  15.539  0.00  0.00    +0.000 A 
ATOM      9  C   UNL     1       4.340   3.944  16.590  0.00  0.00    +0.000 A 
ENDBRANCH   2   3
BRANCH   1  13
ATOM     10  C   UNL     1       1.813   8.492  18.850  0.00  0.00    +0.000 A 
ATOM     11  C   UNL     1       2.322   7.683  17.833  0.00  0.00    +0.000 A 
ATOM     12  C   UNL     1       2.732   6.372  18.107  0.00  0.00    +0.000 A 
ATOM     13  C   UNL     1       2.646   5.857  19.403  0.00  0.00    +0.000 A 
ATOM     14  C   UNL     1       2.165   6.675  20.432  0.00  0.00    +0.000 A 
ATOM     15  C   UNL     1       1.754   7.987  20.153  0.00  0.00    +0.000 A 
BRANCH  10  17
ATOM     16  C   UNL     1      -0.302  10.190  19.428  0.00  0.00    +0.000 C 
ATOM     17  S   UNL     1       1.286  10.171  18.548  0.00  0.00    +0.000 S 
ENDBRANCH  10  17
ENDBRANCH   1  13
BRANCH   2  18
ATOM     18  C   UNL     1       3.997   2.213  19.346  0.00  0.00    +0.000 C 
ATOM     19  O   UNL     1       3.183   1.382  18.973  0.00  0.00    +0.000 OA
BRANCH  18  20
ATOM     20  O   UNL     1       5.086   1.869  20.063  0.00  0.00    +0.000 OA
ATOM     21  H   UNL     1       5.891   1.702  19.545  0.00  0.00    +0.000 HD
ENDBRANCH  18  20
ENDBRANCH   2  18
TORSDOF 5
ENDMDL
