MODEL 1
REMARK VINA RESULT:      -6.9      0.000      0.000
REMARK  Name = 
REMARK  3 active torsions:
REMARK  status: ('A' for Active; 'I' for Inactive)
REMARK    1  A    between atoms: C_2  and  C_10
REMARK    2  A    between atoms: N_3  and  C_4
REMARK    3  A    between atoms: C_13  and  N_14
REMARK                            x       y       z     vdW  Elec       q    Type
REMARK                         _______ _______ _______ _____ _____    ______ ____
ROOT
ATOM      1  O   UNL     1       3.636   7.312  17.235  0.00  0.00    +0.000 OA
ATOM      2  C   UNL     1       3.061   6.837  18.202  0.00  0.00    +0.000 C 
ATOM      3  N   UNL     1       3.210   5.535  18.637  0.00  0.00    +0.000 N 
ATOM      4  H   UNL     1       2.714   5.222  19.460  0.00  0.00    +0.000 HD
ENDROOT
BRANCH   3   5
ATOM      5  C   UNL     1       4.096   4.590  17.966  0.00  0.00    +0.000 C 
ATOM      6  C   UNL     1       3.317   3.652  17.044  0.00  0.00    +0.000 C 
ATOM      7  C   UNL     1       2.553   2.589  17.829  0.00  0.00    +0.000 C 
ATOM      8  N   UNL     1       3.423   1.822  18.719  0.00  0.00    +0.000 NA
ATOM      9  C   UNL     1       4.137   2.683  19.660  0.00  0.00    +0.000 C 
ATOM     10  C   UNL     1       4.929   3.795  18.975  0.00  0.00    +0.000 C 
ATOM     11  H   UNL     1       4.097   1.296  18.160  0.00  0.00    +0.000 HD
ENDBRANCH   3   5
BRANCH   2  12
ATOM     12  C   UNL     1       2.191   7.691  19.052  0.00  0.00    +0.000 A 
ATOM     13  C   UNL     1       1.878   7.333  20.366  0.00  0.00    +0.000 A 
ATOM     14  C   UNL     1       1.164   8.217  21.179  0.00  0.00    +0.000 A 
ATOM     15  C   UNL     1       0.745   9.461  20.684  0.00  0.00    +0.000 A 
ATOM     16  C   UNL     1       1.001   9.784  19.341  0.00  0.00    +0.000 A 
ATOM     17  C   UNL     1       1.722   8.899  18.530  0.00  0.00    +0.000 A 
BRANCH  15  18
ATOM     18  N   UNL     1       0.097  10.394  21.543  0.00  0.00    +0.000 N 
ATOM     19  C   UNL     1      -0.122  11.735  21.304  0.00  0.00    +0.000 A 
ATOM     20  C   UNL     1      -0.845  12.204  22.375  0.00  0.00    +0.000 A 
ATOM     21  N   UNL     1      -1.060  11.211  23.284  0.00  0.00    +0.000 NA
ATOM     22  C   UNL     1      -0.485  10.147  22.770  0.00  0.00    +0.000 A 
ENDBRANCH  15  18
ENDBRANCH   2  12
TORSDOF 3
ENDMDL
MODEL 2
REMARK VINA RESULT:      -6.9      2.316      3.295
REMARK  Name = 
REMARK  3 active torsions:
REMARK  status: ('A' for Active; 'I' for Inactive)
REMARK    1  A    between atoms: C_2  and  C_10
REMARK    2  A    between atoms: N_3  and  C_4
REMARK    3  A    between atoms: C_13  and  N_14
REMARK                            x       y       z     vdW  Elec       q    Type
REMARK                         _______ _______ _______ _____ _____    ______ ____
ROOT
ATOM      1  O   UNL     1       3.155   5.321  19.835  0.00  0.00    +0.000 OA
ATOM      2  C   UNL     1       3.312   6.206  19.008  0.00  0.00    +0.000 C 
ATOM      3  N   UNL     1       4.184   6.131  17.940  0.00  0.00    +0.000 N 
ATOM      4  H   UNL     1       4.242   6.900  17.286  0.00  0.00    +0.000 HD
ENDROOT
BRANCH   3   5
ATOM      5  C   UNL     1       5.010   4.955  17.694  0.00  0.00    +0.000 C 
ATOM      6  C   UNL     1       6.448   5.174  18.164  0.00  0.00    +0.000 C 
ATOM      7  C   UNL     1       7.223   6.085  17.217  0.00  0.00    +0.000 C 
ATOM      8  N   UNL     1       7.207   5.597  15.838  0.00  0.00    +0.000 NA
ATOM      9  C   UNL     1       5.844   5.437  15.332  0.00  0.00    +0.000 C 
ATOM     10  C   UNL     1       4.974   4.547  16.219  0.00  0.00    +0.000 C 
ATOM     11  H   UNL     1       7.694   4.701  15.792  0.00  0.00    +0.000 HD
ENDBRANCH   3   5
BRANCH   2  12
ATOM     12  C   UNL     1       2.480   7.437  19.059  0.00  0.00    +0.000 A 
ATOM     13  C   UNL     1       2.263   8.218  17.921  0.00  0.00    +0.000 A 
ATOM     14  C   UNL     1       1.376   9.296  17.973  0.00  0.00    +0.000 A 
ATOM     15  C   UNL     1       0.706   9.611  19.165  0.00  0.00    +0.000 A 
ATOM     16  C   UNL     1       0.983   8.866  20.323  0.00  0.00    +0.000 A 
ATOM     17  C   UNL     1       1.869   7.782  20.267  0.00  0.00    +0.000 A 
BRANCH  15  18
ATOM     18  N   UNL     1      -0.265  10.654  19.189  0.00  0.00    +0.000 N 
ATOM     19  C   UNL     1      -1.231  10.915  18.240  0.00  0.00    +0.000 A 
ATOM     20  C   UNL     1      -1.977  11.961  18.728  0.00  0.00    +0.000 A 
ATOM     21  N   UNL     1      -1.494  12.377  19.932  0.00  0.00    +0.000 NA
ATOM     22  C   UNL     1      -0.472  11.589  20.182  0.00  0.00    +0.000 A 
ENDBRANCH  15  18
ENDBRANCH   2  12
TORSDOF 3
ENDMDL
MODEL 3
REMARK VINA RESULT:      -6.9      2.330      3.145
REMARK  Name = 
REMARK  3 active torsions:
REMARK  status: ('A' for Active; 'I' for Inactive)
REMARK    1  A    between atoms: C_2  and  C_10
REMARK    2  A    between atoms: N_3  and  C_4
REMARK    3  A    between atoms: C_13  and  N_14
REMARK                            x       y       z     vdW  Elec       q    Type
REMARK                         _______ _______ _______ _____ _____    ______ ____
ROOT
ATOM      1  O   UNL     1       3.191   5.212  19.892  0.00  0.00    +0.000 OA
ATOM      2  C   UNL     1       3.322   6.111  19.076  0.00  0.00    +0.000 C 
ATOM      3  N   UNL     1       4.221   6.089  18.029  0.00  0.00    +0.000 N 
ATOM      4  H   UNL     1       4.256   6.866  17.382  0.00  0.00    +0.000 HD
ENDROOT
BRANCH   3   5
ATOM      5  C   UNL     1       5.110   4.958  17.793  0.00  0.00    +0.000 C 
ATOM      6  C   UNL     1       6.543   5.274  18.224  0.00  0.00    +0.000 C 
ATOM      7  C   UNL     1       7.241   6.204  17.237  0.00  0.00    +0.000 C 
ATOM      8  N   UNL     1       7.224   5.681  15.872  0.00  0.00    +0.000 NA
ATOM      9  C   UNL     1       5.864   5.427  15.402  0.00  0.00    +0.000 C 
ATOM     10  C   UNL     1       5.068   4.511  16.329  0.00  0.00    +0.000 C 
ATOM     11  H   UNL     1       7.763   4.814  15.836  0.00  0.00    +0.000 HD
ENDBRANCH   3   5
BRANCH   2  12
ATOM     12  C   UNL     1       2.429   7.299  19.118  0.00  0.00    +0.000 A 
ATOM     13  C   UNL     1       1.806   7.700  20.302  0.00  0.00    +0.000 A 
ATOM     14  C   UNL     1       1.076   8.891  20.338  0.00  0.00    +0.000 A 
ATOM     15  C   UNL     1       0.951   9.685  19.189  0.00  0.00    +0.000 A 
ATOM     16  C   UNL     1       1.520   9.240  17.985  0.00  0.00    +0.000 A 
ATOM     17  C   UNL     1       2.256   8.049  17.953  0.00  0.00    +0.000 A 
BRANCH  15  18
ATOM     18  N   UNL     1       0.283  10.942  19.254  0.00  0.00    +0.000 N 
ATOM     19  C   UNL     1       0.740  12.155  18.781  0.00  0.00    +0.000 A 
ATOM     20  C   UNL     1      -0.273  13.059  18.999  0.00  0.00    +0.000 A 
ATOM     21  N   UNL     1      -1.332  12.459  19.612  0.00  0.00    +0.000 NA
ATOM     22  C   UNL     1      -0.975  11.202  19.759  0.00  0.00    +0.000 A 
ENDBRANCH  15  18
ENDBRANCH   2  12
TORSDOF 3
ENDMDL
MODEL 4
REMARK VINA RESULT:      -6.9      2.337      3.152
REMARK  Name = 
REMARK  3 active torsions:
REMARK  status: ('A' for Active; 'I' for Inactive)
REMARK    1  A    between atoms: C_2  and  C_10
REMARK    2  A    between atoms: N_3  and  C_4
REMARK    3  A    between atoms: C_13  and  N_14
REMARK                            x       y       z     vdW  Elec       q    Type
REMARK                         _______ _______ _______ _____ _____    ______ ____
ROOT
ATOM      1  O   UNL     1       2.364   5.214  20.405  0.00  0.00    +0.000 OA
ATOM      2  C   UNL     1       2.901   6.016  19.657  0.00  0.00    +0.000 C 
ATOM      3  N   UNL     1       4.051   5.762  18.936  0.00  0.00    +0.000 N 
ATOM      4  H   UNL     1       4.424   6.473  18.321  0.00  0.00    +0.000 HD
ENDROOT
BRANCH   3   5
ATOM      5  C   UNL     1       4.738   4.478  18.999  0.00  0.00    +0.000 C 
ATOM      6  C   UNL     1       6.257   4.654  18.967  0.00  0.00    +0.000 C 
ATOM      7  C   UNL     1       6.758   5.009  17.570  0.00  0.00    +0.000 C 
ATOM      8  N   UNL     1       6.337   4.034  16.564  0.00  0.00    +0.000 NA
ATOM      9  C   UNL     1       4.884   3.886  16.522  0.00  0.00    +0.000 C 
ATOM     10  C   UNL     1       4.275   3.541  17.880  0.00  0.00    +0.000 C 
ATOM     11  H   UNL     1       6.765   3.130  16.771  0.00  0.00    +0.000 HD
ENDBRANCH   3   5
BRANCH   2  12
ATOM     12  C   UNL     1       2.279   7.343  19.407  0.00  0.00    +0.000 A 
ATOM     13  C   UNL     1       2.280   7.920  18.135  0.00  0.00    +0.000 A 
ATOM     14  C   UNL     1       1.578   9.106  17.906  0.00  0.00    +0.000 A 
ATOM     15  C   UNL     1       0.877   9.733  18.948  0.00  0.00    +0.000 A 
ATOM     16  C   UNL     1       0.939   9.184  20.240  0.00  0.00    +0.000 A 
ATOM     17  C   UNL     1       1.639   7.993  20.465  0.00  0.00    +0.000 A 
BRANCH  15  18
ATOM     18  N   UNL     1       0.089  10.891  18.689  0.00  0.00    +0.000 N 
ATOM     19  C   UNL     1       0.465  12.208  18.850  0.00  0.00    +0.000 A 
ATOM     20  C   UNL     1      -0.591  12.967  18.404  0.00  0.00    +0.000 A 
ATOM     21  N   UNL     1      -1.620  12.170  17.997  0.00  0.00    +0.000 NA
ATOM     22  C   UNL     1      -1.194  10.940  18.183  0.00  0.00    +0.000 A 
ENDBRANCH  15  18
ENDBRANCH   2  12
TORSDOF 3
ENDMDL
MODEL 5
REMARK VINA RESULT:      -6.8      2.100      2.831
REMARK  Name = 
REMARK  3 active torsions:
REMARK  status: ('A' for Active; 'I' for Inactive)
REMARK    1  A    between atoms: C_2  and  C_10
REMARK    2  A    between atoms: N_3  and  C_4
REMARK    3  A    between atoms: C_13  and  N_14
REMARK                            x       y       z     vdW  Elec       q    Type
REMARK                         _______ _______ _______ _____ _____    ______ ____
ROOT
ATOM      1  O   UNL     1       4.270   5.988  19.513  0.00  0.00    +0.000 OA
ATOM      2  C   UNL     1       3.052   6.065  19.451  0.00  0.00    +0.000 C 
ATOM      3  N   UNL     1       2.193   4.998  19.619  0.00  0.00    +0.000 N 
ATOM      4  H   UNL     1       1.194   5.146  19.572  0.00  0.00    +0.000 HD
ENDROOT
BRANCH   3   5
ATOM      5  C   UNL     1       2.675   3.650  19.900  0.00  0.00    +0.000 C 
ATOM      6  C   UNL     1       3.536   3.114  18.756  0.00  0.00    +0.000 C 
ATOM      7  C   UNL     1       2.693   2.709  17.552  0.00  0.00    +0.000 C 
ATOM      8  N   UNL     1       1.652   1.742  17.902  0.00  0.00    +0.000 NA
ATOM      9  C   UNL     1       0.768   2.248  18.950  0.00  0.00    +0.000 C 
ATOM     10  C   UNL     1       1.517   2.696  20.204  0.00  0.00    +0.000 C 
ATOM     11  H   UNL     1       2.090   0.875  18.215  0.00  0.00    +0.000 HD
ENDBRANCH   3   5
BRANCH   2  12
ATOM     12  C   UNL     1       2.393   7.384  19.261  0.00  0.00    +0.000 A 
ATOM     13  C   UNL     1       2.405   8.033  18.024  0.00  0.00    +0.000 A 
ATOM     14  C   UNL     1       1.670   9.207  17.845  0.00  0.00    +0.000 A 
ATOM     15  C   UNL     1       0.926   9.751  18.903  0.00  0.00    +0.000 A 
ATOM     16  C   UNL     1       0.975   9.132  20.163  0.00  0.00    +0.000 A 
ATOM     17  C   UNL     1       1.708   7.952  20.338  0.00  0.00    +0.000 A 
BRANCH  15  18
ATOM     18  N   UNL     1       0.107  10.897  18.690  0.00  0.00    +0.000 N 
ATOM     19  C   UNL     1       0.461  12.219  18.865  0.00  0.00    +0.000 A 
ATOM     20  C   UNL     1      -0.624  12.964  18.467  0.00  0.00    +0.000 A 
ATOM     21  N   UNL     1      -1.648  12.153  18.075  0.00  0.00    +0.000 NA
ATOM     22  C   UNL     1      -1.191  10.930  18.224  0.00  0.00    +0.000 A 
ENDBRANCH  15  18
ENDBRANCH   2  12
TORSDOF 3
ENDMDL
MODEL 6
REMARK VINA RESULT:      -6.8      1.181      1.788
REMARK  Name = 
REMARK  3 active torsions:
REMARK  status: ('A' for Active; 'I' for Inactive)
REMARK    1  A    between atoms: C_2  and  C_10
REMARK    2  A    between atoms: N_3  and  C_4
REMARK    3  A    between atoms: C_13  and  N_14
REMARK                            x       y       z     vdW  Elec       q    Type
REMARK                         _______ _______ _______ _____ _____    ______ ____
ROOT
ATOM      1  O   UNL     1       4.357   6.855  17.154  0.00  0.00    +0.000 OA
ATOM      2  C   UNL     1       3.505   6.606  17.993  0.00  0.00    +0.000 C 
ATOM      3  N   UNL     1       3.319   5.366  18.571  0.00  0.00    +0.000 N 
ATOM      4  H   UNL     1       2.603   5.244  19.275  0.00  0.00    +0.000 HD
ENDROOT
BRANCH   3   5
ATOM      5  C   UNL     1       4.149   4.218  18.229  0.00  0.00    +0.000 C 
ATOM      6  C   UNL     1       3.531   3.399  17.095  0.00  0.00    +0.000 C 
ATOM      7  C   UNL     1       2.343   2.571  17.575  0.00  0.00    +0.000 C 
ATOM      8  N   UNL     1       2.689   1.702  18.700  0.00  0.00    +0.000 NA
ATOM      9  C   UNL     1       3.224   2.460  19.829  0.00  0.00    +0.000 C 
ATOM     10  C   UNL     1       4.416   3.338  19.453  0.00  0.00    +0.000 C 
ATOM     11  H   UNL     1       3.378   1.014  18.395  0.00  0.00    +0.000 HD
ENDBRANCH   3   5
BRANCH   2  12
ATOM     12  C   UNL     1       2.633   7.688  18.521  0.00  0.00    +0.000 A 
ATOM     13  C   UNL     1       2.245   8.766  17.723  0.00  0.00    +0.000 A 
ATOM     14  C   UNL     1       1.324   9.698  18.207  0.00  0.00    +0.000 A 
ATOM     15  C   UNL     1       0.791   9.569  19.499  0.00  0.00    +0.000 A 
ATOM     16  C   UNL     1       1.239   8.522  20.321  0.00  0.00    +0.000 A 
ATOM     17  C   UNL     1       2.158   7.586  19.831  0.00  0.00    +0.000 A 
BRANCH  15  18
ATOM     18  N   UNL     1      -0.214  10.469  19.954  0.00  0.00    +0.000 N 
ATOM     19  C   UNL     1      -0.382  10.954  21.235  0.00  0.00    +0.000 A 
ATOM     20  C   UNL     1      -1.428  11.843  21.176  0.00  0.00    +0.000 A 
ATOM     21  N   UNL     1      -1.934  11.910  19.912  0.00  0.00    +0.000 NA
ATOM     22  C   UNL     1      -1.200  11.079  19.206  0.00  0.00    +0.000 A 
ENDBRANCH  15  18
ENDBRANCH   2  12
TORSDOF 3
ENDMDL
MODEL 7
REMARK VINA RESULT:      -6.8      2.209      3.008
REMARK  Name = 
REMARK  3 active torsions:
REMARK  status: ('A' for Active; 'I' for Inactive)
REMARK    1  A    between atoms: C_2  and  C_10
REMARK    2  A    between atoms: N_3  and  C_4
REMARK    3  A    between atoms: C_13  and  N_14
REMARK                            x       y       z     vdW  Elec       q    Type
REMARK                         _______ _______ _______ _____ _____    ______ ____
ROOT
ATOM      1  O   UNL     1       2.980   3.696  18.726  0.00  0.00    +0.000 OA
ATOM      2  C   UNL     1       3.393   4.845  18.751  0.00  0.00    +0.000 C 
ATOM      3  N   UNL     1       4.572   5.263  18.167  0.00  0.00    +0.000 N 
ATOM      4  H   UNL     1       4.836   6.238  18.214  0.00  0.00    +0.000 HD
ENDROOT
BRANCH   3   5
ATOM      5  C   UNL     1       5.446   4.348  17.442  0.00  0.00    +0.000 C 
ATOM      6  C   UNL     1       6.920   4.665  17.696  0.00  0.00    +0.000 C 
ATOM      7  C   UNL     1       7.372   5.912  16.941  0.00  0.00    +0.000 C 
ATOM      8  N   UNL     1       7.111   5.817  15.505  0.00  0.00    +0.000 NA
ATOM      9  C   UNL     1       5.697   5.578  15.222  0.00  0.00    +0.000 C 
ATOM     10  C   UNL     1       5.138   4.353  15.943  0.00  0.00    +0.000 C 
ATOM     11  H   UNL     1       7.670   5.059  15.111  0.00  0.00    +0.000 HD
ENDBRANCH   3   5
BRANCH   2  12
ATOM     12  C   UNL     1       2.578   5.922  19.371  0.00  0.00    +0.000 A 
ATOM     13  C   UNL     1       1.869   5.709  20.556  0.00  0.00    +0.000 A 
ATOM     14  C   UNL     1       1.216   6.775  21.180  0.00  0.00    +0.000 A 
ATOM     15  C   UNL     1       1.255   8.061  20.621  0.00  0.00    +0.000 A 
ATOM     16  C   UNL     1       1.910   8.253  19.394  0.00  0.00    +0.000 A 
ATOM     17  C   UNL     1       2.568   7.184  18.773  0.00  0.00    +0.000 A 
BRANCH  15  18
ATOM     18  N   UNL     1       0.665   9.161  21.308  0.00  0.00    +0.000 N 
ATOM     19  C   UNL     1      -0.011  10.226  20.751  0.00  0.00    +0.000 A 
ATOM     20  C   UNL     1      -0.461  10.989  21.802  0.00  0.00    +0.000 A 
ATOM     21  N   UNL     1      -0.067  10.451  22.991  0.00  0.00    +0.000 NA
ATOM     22  C   UNL     1       0.607   9.369  22.671  0.00  0.00    +0.000 A 
ENDBRANCH  15  18
ENDBRANCH   2  12
TORSDOF 3
ENDMDL
MODEL 8
REMARK VINA RESULT:      -6.8      1.002      1.263
REMARK  Name = 
REMARK  3 active torsions:
REMARK  status: ('A' for Active; 'I' for Inactive)
REMARK    1  A    between atoms: C_2  and  C_10
REMARK    2  A    between atoms: N_3  and  C_4
REMARK    3  A    between atoms: C_13  and  N_14
REMARK                            x       y       z     vdW  Elec       q    Type
REMARK                         _______ _______ _______ _____ _____    ______ ____
ROOT
ATOM      1  O   UNL     1       4.163   6.854  17.147  0.00  0.00    +0.000 OA
ATOM      2  C   UNL     1       3.388   6.548  18.041  0.00  0.00    +0.000 C 
ATOM      3  N   UNL     1       3.330   5.301  18.629  0.00  0.00    +0.000 N 
ATOM      4  H   UNL     1       2.673   5.131  19.379  0.00  0.00    +0.000 HD
ENDROOT
BRANCH   3   5
ATOM      5  C   UNL     1       4.216   4.213  18.232  0.00  0.00    +0.000 C 
ATOM      6  C   UNL     1       3.626   3.405  17.076  0.00  0.00    +0.000 C 
ATOM      7  C   UNL     1       2.492   2.495  17.540  0.00  0.00    +0.000 C 
ATOM      8  N   UNL     1       2.902   1.605  18.626  0.00  0.00    +0.000 NA
ATOM      9  C   UNL     1       3.414   2.348  19.776  0.00  0.00    +0.000 C 
ATOM     10  C   UNL     1       4.550   3.304  19.418  0.00  0.00    +0.000 C 
ATOM     11  H   UNL     1       3.623   0.968  18.285  0.00  0.00    +0.000 HD
ENDBRANCH   3   5
BRANCH   2  12
ATOM     12  C   UNL     1       2.478   7.567  18.626  0.00  0.00    +0.000 A 
ATOM     13  C   UNL     1       2.056   7.488  19.956  0.00  0.00    +0.000 A 
ATOM     14  C   UNL     1       1.304   8.526  20.512  0.00  0.00    +0.000 A 
ATOM     15  C   UNL     1       0.957   9.647  19.742  0.00  0.00    +0.000 A 
ATOM     16  C   UNL     1       1.325   9.686  18.387  0.00  0.00    +0.000 A 
ATOM     17  C   UNL     1       2.083   8.647  17.834  0.00  0.00    +0.000 A 
BRANCH  15  18
ATOM     18  N   UNL     1       0.270  10.743  20.339  0.00  0.00    +0.000 N 
ATOM     19  C   UNL     1      -0.230  10.814  21.623  0.00  0.00    +0.000 A 
ATOM     20  C   UNL     1      -0.738  12.083  21.768  0.00  0.00    +0.000 A 
ATOM     21  N   UNL     1      -0.595  12.795  20.615  0.00  0.00    +0.000 NA
ATOM     22  C   UNL     1      -0.000  11.974  19.778  0.00  0.00    +0.000 A 
ENDBRANCH  15  18
ENDBRANCH   2  12
TORSDOF 3
ENDMDL
MODEL 9
REMARK VINA RESULT:      -6.8      1.085      1.331
REMARK  Name = 
REMARK  3 active torsions:
REMARK  status: ('A' for Active; 'I' for Inactive)
REMARK    1  A    between atoms: C_2  and  C_10
REMARK    2  A    between atoms: N_3  and  C_4
REMARK    3  A    between atoms: C_13  and  N_14
REMARK                            x       y       z     vdW  Elec       q    Type
REMARK                         _______ _______ _______ _____ _____    ______ ____
ROOT
ATOM      1  O   UNL     1       3.374   8.149  16.828  0.00  0.00    +0.000 OA
ATOM      2  C   UNL     1       2.922   7.558  17.796  0.00  0.00    +0.000 C 
ATOM      3  N   UNL     1       3.269   6.271  18.157  0.00  0.00    +0.000 N 
ATOM      4  H   UNL     1       2.864   5.857  18.986  0.00  0.00    +0.000 HD
ENDROOT
BRANCH   3   5
ATOM      5  C   UNL     1       4.238   5.487  17.399  0.00  0.00    +0.000 C 
ATOM      6  C   UNL     1       3.905   3.996  17.440  0.00  0.00    +0.000 C 
ATOM      7  C   UNL     1       4.251   3.373  18.789  0.00  0.00    +0.000 C 
ATOM      8  N   UNL     1       5.648   3.593  19.161  0.00  0.00    +0.000 NA
ATOM      9  C   UNL     1       5.986   5.015  19.195  0.00  0.00    +0.000 C 
ATOM     10  C   UNL     1       5.666   5.741  17.890  0.00  0.00    +0.000 C 
ATOM     11  H   UNL     1       6.254   3.116  18.492  0.00  0.00    +0.000 HD
ENDBRANCH   3   5
BRANCH   2  12
ATOM     12  C   UNL     1       1.990   8.246  18.728  0.00  0.00    +0.000 A 
ATOM     13  C   UNL     1       1.828   7.815  20.047  0.00  0.00    +0.000 A 
ATOM     14  C   UNL     1       1.043   8.557  20.932  0.00  0.00    +0.000 A 
ATOM     15  C   UNL     1       0.403   9.731  20.506  0.00  0.00    +0.000 A 
ATOM     16  C   UNL     1       0.514  10.119  19.161  0.00  0.00    +0.000 A 
ATOM     17  C   UNL     1       1.305   9.377  18.277  0.00  0.00    +0.000 A 
BRANCH  15  18
ATOM     18  N   UNL     1      -0.321  10.532  21.435  0.00  0.00    +0.000 N 
ATOM     19  C   UNL     1      -1.084  11.647  21.157  0.00  0.00    +0.000 A 
ATOM     20  C   UNL     1      -1.647  12.035  22.350  0.00  0.00    +0.000 A 
ATOM     21  N   UNL     1      -1.241  11.218  23.363  0.00  0.00    +0.000 NA
ATOM     22  C   UNL     1      -0.448  10.337  22.795  0.00  0.00    +0.000 A 
ENDBRANCH  15  18
ENDBRANCH   2  12
TORSDOF 3
ENDMDL
