MODEL 1
REMARK VINA RESULT:      -7.2      0.000      0.000
REMARK  Name = 
REMARK  4 active torsions:
REMARK  status: ('A' for Active; 'I' for Inactive)
REMARK    1  A    between atoms: C_2  and  C_3
REMARK    2  A    between atoms: C_6  and  C_7
REMARK    3  A    between atoms: C_10  and  C_11
REMARK    4  A    between atoms: C_11  and  C_12
REMARK                            x       y       z     vdW  Elec       q    Type
REMARK                         _______ _______ _______ _____ _____    ______ ____
ROOT
ATOM      1  C   UNL     1       3.223   6.245  18.160  0.00  0.00    +0.000 C 
ATOM      2  N   UNL     1       4.509   6.140  18.227  0.00  0.00    +0.000 NA
ATOM      3  O   UNL     1       4.862   4.858  17.762  0.00  0.00    +0.000 OA
ATOM      4  C   UNL     1       3.703   4.202  17.225  0.00  0.00    +0.000 C 
ATOM      5  C   UNL     1       2.515   5.057  17.620  0.00  0.00    +0.000 C 
ENDROOT
BRANCH   1   9
ATOM      6  C   UNL     1       1.098   9.760  19.376  0.00  0.00    +0.000 A 
ATOM      7  C   UNL     1       1.610   9.653  18.079  0.00  0.00    +0.000 A 
ATOM      8  C   UNL     1       2.308   8.506  17.696  0.00  0.00    +0.000 A 
ATOM      9  C   UNL     1       2.495   7.455  18.605  0.00  0.00    +0.000 A 
ATOM     10  C   UNL     1       1.997   7.569  19.907  0.00  0.00    +0.000 A 
ATOM     11  C   UNL     1       1.300   8.719  20.290  0.00  0.00    +0.000 A 
BRANCH   6  13
ATOM     12  N   UNL     1      -0.238  11.866  20.084  0.00  0.00    +0.000 NA
ATOM     13  C   UNL     1       0.366  10.925  19.767  0.00  0.00    +0.000 C 
ENDBRANCH   6  13
ENDBRANCH   1   9
BRANCH   4  14
ATOM     14  C   UNL     1       3.592   2.788  17.804  0.00  0.00    +0.000 C 
BRANCH  14  15
ATOM     15  C   UNL     1       2.827   2.727  19.105  0.00  0.00    +0.000 A 
ATOM     16  C   UNL     1       1.425   2.689  19.095  0.00  0.00    +0.000 A 
ATOM     17  C   UNL     1       0.707   2.648  20.290  0.00  0.00    +0.000 A 
ATOM     18  C   UNL     1       1.383   2.641  21.508  0.00  0.00    +0.000 A 
ATOM     19  C   UNL     1       2.777   2.679  21.530  0.00  0.00    +0.000 A 
ATOM     20  C   UNL     1       3.496   2.726  20.334  0.00  0.00    +0.000 A 
ENDBRANCH  14  15
ENDBRANCH   4  14
TORSDOF 4
ENDMDL
MODEL 2
REMARK VINA RESULT:      -7.2      0.188      1.098
REMARK  Name = 
REMARK  4 active torsions:
REMARK  status: ('A' for Active; 'I' for Inactive)
REMARK    1  A    between atoms: C_2  and  C_3
REMARK    2  A    between atoms: C_6  and  C_7
REMARK    3  A    between atoms: C_10  and  C_11
REMARK    4  A    between atoms: C_11  and  C_12
REMARK                            x       y       z     vdW  Elec       q    Type
REMARK                         _______ _______ _______ _____ _____    ______ ____
ROOT
ATOM      1  C   UNL     1       3.379   6.140  18.196  0.00  0.00    +0.000 C 
ATOM      2  N   UNL     1       4.641   5.999  18.432  0.00  0.00    +0.000 NA
ATOM      3  O   UNL     1       5.018   4.710  18.010  0.00  0.00    +0.000 OA
ATOM      4  C   UNL     1       3.923   4.088  17.320  0.00  0.00    +0.000 C 
ATOM      5  C   UNL     1       2.717   4.974  17.559  0.00  0.00    +0.000 C 
ENDROOT
BRANCH   1   9
ATOM      6  C   UNL     1       1.233   9.684  19.285  0.00  0.00    +0.000 A 
ATOM      7  C   UNL     1       1.374   8.631  20.196  0.00  0.00    +0.000 A 
ATOM      8  C   UNL     1       2.069   7.477  19.827  0.00  0.00    +0.000 A 
ATOM      9  C   UNL     1       2.632   7.369  18.548  0.00  0.00    +0.000 A 
ATOM     10  C   UNL     1       2.478   8.415  17.632  0.00  0.00    +0.000 A 
ATOM     11  C   UNL     1       1.779   9.569  18.001  0.00  0.00    +0.000 A 
BRANCH   6  13
ATOM     12  N   UNL     1      -0.020  11.844  19.982  0.00  0.00    +0.000 NA
ATOM     13  C   UNL     1       0.538  10.875  19.665  0.00  0.00    +0.000 C 
ENDBRANCH   6  13
ENDBRANCH   1   9
BRANCH   4  14
ATOM     14  C   UNL     1       3.698   2.675  17.870  0.00  0.00    +0.000 C 
BRANCH  14  15
ATOM     15  C   UNL     1       2.884   2.647  19.142  0.00  0.00    +0.000 A 
ATOM     16  C   UNL     1       1.484   2.579  19.080  0.00  0.00    +0.000 A 
ATOM     17  C   UNL     1       0.721   2.567  20.248  0.00  0.00    +0.000 A 
ATOM     18  C   UNL     1       1.349   2.619  21.490  0.00  0.00    +0.000 A 
ATOM     19  C   UNL     1       2.740   2.686  21.563  0.00  0.00    +0.000 A 
ATOM     20  C   UNL     1       3.505   2.704  20.395  0.00  0.00    +0.000 A 
ENDBRANCH  14  15
ENDBRANCH   4  14
TORSDOF 4
ENDMDL
MODEL 3
REMARK VINA RESULT:      -7.2      0.074      1.082
REMARK  Name = 
REMARK  4 active torsions:
REMARK  status: ('A' for Active; 'I' for Inactive)
REMARK    1  A    between atoms: C_2  and  C_3
REMARK    2  A    between atoms: C_6  and  C_7
REMARK    3  A    between atoms: C_10  and  C_11
REMARK    4  A    between atoms: C_11  and  C_12
REMARK                            x       y       z     vdW  Elec       q    Type
REMARK                         _______ _______ _______ _____ _____    ______ ____
ROOT
ATOM      1  C   UNL     1       3.265   6.223  18.184  0.00  0.00    +0.000 C 
ATOM      2  N   UNL     1       4.543   6.093  18.323  0.00  0.00    +0.000 NA
ATOM      3  O   UNL     1       4.899   4.809  17.869  0.00  0.00    +0.000 OA
ATOM      4  C   UNL     1       3.761   4.179  17.261  0.00  0.00    +0.000 C 
ATOM      5  C   UNL     1       2.568   5.052  17.593  0.00  0.00    +0.000 C 
ENDROOT
BRANCH   1   9
ATOM      6  C   UNL     1       1.136   9.766  19.306  0.00  0.00    +0.000 A 
ATOM      7  C   UNL     1       1.683   9.643  18.024  0.00  0.00    +0.000 A 
ATOM      8  C   UNL     1       2.383   8.486  17.673  0.00  0.00    +0.000 A 
ATOM      9  C   UNL     1       2.535   7.443  18.596  0.00  0.00    +0.000 A 
ATOM     10  C   UNL     1       2.002   7.573  19.882  0.00  0.00    +0.000 A 
ATOM     11  C   UNL     1       1.304   8.732  20.235  0.00  0.00    +0.000 A 
BRANCH   6  13
ATOM     12  N   UNL     1      -0.185  11.901  19.956  0.00  0.00    +0.000 NA
ATOM     13  C   UNL     1       0.402  10.941  19.665  0.00  0.00    +0.000 C 
ENDBRANCH   6  13
ENDBRANCH   1   9
BRANCH   4  14
ATOM     14  C   UNL     1       3.592   2.762  17.820  0.00  0.00    +0.000 C 
BRANCH  14  15
ATOM     15  C   UNL     1       2.817   2.715  19.116  0.00  0.00    +0.000 A 
ATOM     16  C   UNL     1       3.498   2.713  20.343  0.00  0.00    +0.000 A 
ATOM     17  C   UNL     1       2.793   2.656  21.545  0.00  0.00    +0.000 A 
ATOM     18  C   UNL     1       1.401   2.603  21.535  0.00  0.00    +0.000 A 
ATOM     19  C   UNL     1       0.715   2.604  20.321  0.00  0.00    +0.000 A 
ATOM     20  C   UNL     1       1.419   2.656  19.116  0.00  0.00    +0.000 A 
ENDBRANCH  14  15
ENDBRANCH   4  14
TORSDOF 4
ENDMDL
MODEL 4
REMARK VINA RESULT:      -7.2      0.133      1.534
REMARK  Name = 
REMARK  4 active torsions:
REMARK  status: ('A' for Active; 'I' for Inactive)
REMARK    1  A    between atoms: C_2  and  C_3
REMARK    2  A    between atoms: C_6  and  C_7
REMARK    3  A    between atoms: C_10  and  C_11
REMARK    4  A    between atoms: C_11  and  C_12
REMARK                            x       y       z     vdW  Elec       q    Type
REMARK                         _______ _______ _______ _____ _____    ______ ____
ROOT
ATOM      1  C   UNL     1       3.334   6.206  18.190  0.00  0.00    +0.000 C 
ATOM      2  N   UNL     1       4.595   6.063  18.430  0.00  0.00    +0.000 NA
ATOM      3  O   UNL     1       4.974   4.778  17.998  0.00  0.00    +0.000 OA
ATOM      4  C   UNL     1       3.884   4.162  17.298  0.00  0.00    +0.000 C 
ATOM      5  C   UNL     1       2.676   5.045  17.539  0.00  0.00    +0.000 C 
ENDROOT
BRANCH   1   9
ATOM      6  C   UNL     1       1.182   9.739  19.299  0.00  0.00    +0.000 A 
ATOM      7  C   UNL     1       1.353   8.695  20.215  0.00  0.00    +0.000 A 
ATOM      8  C   UNL     1       2.049   7.544  19.839  0.00  0.00    +0.000 A 
ATOM      9  C   UNL     1       2.584   7.431  18.549  0.00  0.00    +0.000 A 
ATOM     10  C   UNL     1       2.399   8.468  17.628  0.00  0.00    +0.000 A 
ATOM     11  C   UNL     1       1.699   9.619  18.004  0.00  0.00    +0.000 A 
BRANCH   6  13
ATOM     12  N   UNL     1      -0.080  11.890  20.009  0.00  0.00    +0.000 NA
ATOM     13  C   UNL     1       0.485  10.928  19.686  0.00  0.00    +0.000 C 
ENDBRANCH   6  13
ENDBRANCH   1   9
BRANCH   4  14
ATOM     14  C   UNL     1       3.657   2.744  17.834  0.00  0.00    +0.000 C 
BRANCH  14  15
ATOM     15  C   UNL     1       2.849   2.705  19.110  0.00  0.00    +0.000 A 
ATOM     16  C   UNL     1       3.498   2.710  20.354  0.00  0.00    +0.000 A 
ATOM     17  C   UNL     1       2.763   2.660  21.538  0.00  0.00    +0.000 A 
ATOM     18  C   UNL     1       1.372   2.607  21.492  0.00  0.00    +0.000 A 
ATOM     19  C   UNL     1       0.717   2.601  20.262  0.00  0.00    +0.000 A 
ATOM     20  C   UNL     1       1.452   2.645  19.075  0.00  0.00    +0.000 A 
ENDBRANCH  14  15
ENDBRANCH   4  14
TORSDOF 4
ENDMDL
MODEL 5
REMARK VINA RESULT:      -7.1      3.642      4.630
REMARK  Name = 
REMARK  4 active torsions:
REMARK  status: ('A' for Active; 'I' for Inactive)
REMARK    1  A    between atoms: C_2  and  C_3
REMARK    2  A    between atoms: C_6  and  C_7
REMARK    3  A    between atoms: C_10  and  C_11
REMARK    4  A    between atoms: C_11  and  C_12
REMARK                            x       y       z     vdW  Elec       q    Type
REMARK                         _______ _______ _______ _____ _____    ______ ____
ROOT
ATOM      1  C   UNL     1       5.731   5.021  17.820  0.00  0.00    +0.000 C 
ATOM      2  N   UNL     1       5.804   4.044  18.662  0.00  0.00    +0.000 NA
ATOM      3  O   UNL     1       4.848   3.080  18.288  0.00  0.00    +0.000 OA
ATOM      4  C   UNL     1       4.265   3.439  17.027  0.00  0.00    +0.000 C 
ATOM      5  C   UNL     1       4.728   4.853  16.737  0.00  0.00    +0.000 C 
ENDROOT
BRANCH   1   9
ATOM      6  C   UNL     1       8.106   8.573  18.112  0.00  0.00    +0.000 A 
ATOM      7  C   UNL     1       6.984   8.536  17.277  0.00  0.00    +0.000 A 
ATOM      8  C   UNL     1       6.222   7.369  17.184  0.00  0.00    +0.000 A 
ATOM      9  C   UNL     1       6.572   6.235  17.927  0.00  0.00    +0.000 A 
ATOM     10  C   UNL     1       7.703   6.266  18.749  0.00  0.00    +0.000 A 
ATOM     11  C   UNL     1       8.467   7.433  18.841  0.00  0.00    +0.000 A 
BRANCH   6  13
ATOM     12  N   UNL     1       9.511  10.743  18.308  0.00  0.00    +0.000 NA
ATOM     13  C   UNL     1       8.879   9.772  18.225  0.00  0.00    +0.000 C 
ENDBRANCH   6  13
ENDBRANCH   1   9
BRANCH   4  14
ATOM     14  C   UNL     1       2.738   3.357  17.118  0.00  0.00    +0.000 C 
BRANCH  14  15
ATOM     15  C   UNL     1       2.211   3.489  18.528  0.00  0.00    +0.000 A 
ATOM     16  C   UNL     1       1.838   2.345  19.249  0.00  0.00    +0.000 A 
ATOM     17  C   UNL     1       1.337   2.456  20.546  0.00  0.00    +0.000 A 
ATOM     18  C   UNL     1       1.206   3.710  21.137  0.00  0.00    +0.000 A 
ATOM     19  C   UNL     1       1.574   4.854  20.429  0.00  0.00    +0.000 A 
ATOM     20  C   UNL     1       2.071   4.745  19.129  0.00  0.00    +0.000 A 
ENDBRANCH  14  15
ENDBRANCH   4  14
TORSDOF 4
ENDMDL
MODEL 6
REMARK VINA RESULT:      -7.1      2.975      5.146
REMARK  Name = 
REMARK  4 active torsions:
REMARK  status: ('A' for Active; 'I' for Inactive)
REMARK    1  A    between atoms: C_2  and  C_3
REMARK    2  A    between atoms: C_6  and  C_7
REMARK    3  A    between atoms: C_10  and  C_11
REMARK    4  A    between atoms: C_11  and  C_12
REMARK                            x       y       z     vdW  Elec       q    Type
REMARK                         _______ _______ _______ _____ _____    ______ ____
ROOT
ATOM      1  C   UNL     1       4.026   6.230  18.082  0.00  0.00    +0.000 C 
ATOM      2  N   UNL     1       4.548   5.390  18.913  0.00  0.00    +0.000 NA
ATOM      3  O   UNL     1       5.425   4.557  18.191  0.00  0.00    +0.000 OA
ATOM      4  C   UNL     1       5.557   5.043  16.847  0.00  0.00    +0.000 C 
ATOM      5  C   UNL     1       4.489   6.105  16.677  0.00  0.00    +0.000 C 
ENDROOT
BRANCH   1   9
ATOM      6  C   UNL     1       1.140   9.138  19.331  0.00  0.00    +0.000 A 
ATOM      7  C   UNL     1       1.496   8.083  20.177  0.00  0.00    +0.000 A 
ATOM      8  C   UNL     1       2.432   7.136  19.756  0.00  0.00    +0.000 A 
ATOM      9  C   UNL     1       3.023   7.240  18.489  0.00  0.00    +0.000 A 
ATOM     10  C   UNL     1       2.655   8.286  17.637  0.00  0.00    +0.000 A 
ATOM     11  C   UNL     1       1.715   9.232  18.058  0.00  0.00    +0.000 A 
BRANCH   6  13
ATOM     12  N   UNL     1      -0.565  10.923  20.125  0.00  0.00    +0.000 NA
ATOM     13  C   UNL     1       0.195  10.121  19.765  0.00  0.00    +0.000 C 
ENDBRANCH   6  13
ENDBRANCH   1   9
BRANCH   4  14
ATOM     14  C   UNL     1       5.364   3.889  15.857  0.00  0.00    +0.000 C 
BRANCH  14  15
ATOM     15  C   UNL     1       6.062   4.107  14.535  0.00  0.00    +0.000 A 
ATOM     16  C   UNL     1       7.158   4.979  14.454  0.00  0.00    +0.000 A 
ATOM     17  C   UNL     1       7.802   5.199  13.236  0.00  0.00    +0.000 A 
ATOM     18  C   UNL     1       7.360   4.547  12.088  0.00  0.00    +0.000 A 
ATOM     19  C   UNL     1       6.272   3.678  12.157  0.00  0.00    +0.000 A 
ATOM     20  C   UNL     1       5.623   3.461  13.375  0.00  0.00    +0.000 A 
ENDBRANCH  14  15
ENDBRANCH   4  14
TORSDOF 4
ENDMDL
MODEL 7
REMARK VINA RESULT:      -7.1      3.057      6.929
REMARK  Name = 
REMARK  4 active torsions:
REMARK  status: ('A' for Active; 'I' for Inactive)
REMARK    1  A    between atoms: C_2  and  C_3
REMARK    2  A    between atoms: C_6  and  C_7
REMARK    3  A    between atoms: C_10  and  C_11
REMARK    4  A    between atoms: C_11  and  C_12
REMARK                            x       y       z     vdW  Elec       q    Type
REMARK                         _______ _______ _______ _____ _____    ______ ____
ROOT
ATOM      1  C   UNL     1       2.731   6.267  19.114  0.00  0.00    +0.000 C 
ATOM      2  N   UNL     1       2.298   5.412  19.980  0.00  0.00    +0.000 NA
ATOM      3  O   UNL     1       1.521   6.110  20.925  0.00  0.00    +0.000 OA
ATOM      4  C   UNL     1       1.345   7.469  20.497  0.00  0.00    +0.000 C 
ATOM      5  C   UNL     1       2.293   7.669  19.332  0.00  0.00    +0.000 C 
ENDROOT
BRANCH   1   9
ATOM      6  C   UNL     1       5.252   5.110  15.851  0.00  0.00    +0.000 A 
ATOM      7  C   UNL     1       4.573   4.144  16.600  0.00  0.00    +0.000 A 
ATOM      8  C   UNL     1       3.760   4.533  17.667  0.00  0.00    +0.000 A 
ATOM      9  C   UNL     1       3.616   5.888  17.989  0.00  0.00    +0.000 A 
ATOM     10  C   UNL     1       4.308   6.854  17.250  0.00  0.00    +0.000 A 
ATOM     11  C   UNL     1       5.124   6.464  16.184  0.00  0.00    +0.000 A 
BRANCH   6  13
ATOM     12  N   UNL     1       6.733   4.391  13.848  0.00  0.00    +0.000 NA
ATOM     13  C   UNL     1       6.071   4.718  14.745  0.00  0.00    +0.000 C 
ENDBRANCH   6  13
ENDBRANCH   1   9
BRANCH   4  14
ATOM     14  C   UNL     1       1.669   8.422  21.653  0.00  0.00    +0.000 C 
BRANCH  14  15
ATOM     15  C   UNL     1       0.635   9.506  21.846  0.00  0.00    +0.000 A 
ATOM     16  C   UNL     1       0.433  10.472  20.849  0.00  0.00    +0.000 A 
ATOM     17  C   UNL     1      -0.509  11.486  21.023  0.00  0.00    +0.000 A 
ATOM     18  C   UNL     1      -1.261  11.544  22.193  0.00  0.00    +0.000 A 
ATOM     19  C   UNL     1      -1.069  10.590  23.191  0.00  0.00    +0.000 A 
ATOM     20  C   UNL     1      -0.122   9.577  23.021  0.00  0.00    +0.000 A 
ENDBRANCH  14  15
ENDBRANCH   4  14
TORSDOF 4
ENDMDL
MODEL 8
REMARK VINA RESULT:      -7.1      3.032      5.080
REMARK  Name = 
REMARK  4 active torsions:
REMARK  status: ('A' for Active; 'I' for Inactive)
REMARK    1  A    between atoms: C_2  and  C_3
REMARK    2  A    between atoms: C_6  and  C_7
REMARK    3  A    between atoms: C_10  and  C_11
REMARK    4  A    between atoms: C_11  and  C_12
REMARK                            x       y       z     vdW  Elec       q    Type
REMARK                         _______ _______ _______ _____ _____    ______ ____
ROOT
ATOM      1  C   UNL     1       4.084   6.071  18.114  0.00  0.00    +0.000 C 
ATOM      2  N   UNL     1       4.577   5.171  18.899  0.00  0.00    +0.000 NA
ATOM      3  O   UNL     1       5.437   4.357  18.137  0.00  0.00    +0.000 OA
ATOM      4  C   UNL     1       5.592   4.915  16.823  0.00  0.00    +0.000 C 
ATOM      5  C   UNL     1       4.554   6.013  16.707  0.00  0.00    +0.000 C 
ENDROOT
BRANCH   1   9
ATOM      6  C   UNL     1       1.238   9.015  19.370  0.00  0.00    +0.000 A 
ATOM      7  C   UNL     1       1.872   9.125  18.128  0.00  0.00    +0.000 A 
ATOM      8  C   UNL     1       2.805   8.163  17.733  0.00  0.00    +0.000 A 
ATOM      9  C   UNL     1       3.105   7.083  18.573  0.00  0.00    +0.000 A 
ATOM     10  C   UNL     1       2.483   6.981  19.821  0.00  0.00    +0.000 A 
ATOM     11  C   UNL     1       1.552   7.945  20.218  0.00  0.00    +0.000 A 
BRANCH   6  13
ATOM     12  N   UNL     1      -0.527  10.771  20.094  0.00  0.00    +0.000 NA
ATOM     13  C   UNL     1       0.268   9.987  19.771  0.00  0.00    +0.000 C 
ENDBRANCH   6  13
ENDBRANCH   1   9
BRANCH   4  14
ATOM     14  C   UNL     1       5.375   3.825  15.768  0.00  0.00    +0.000 C 
BRANCH  14  15
ATOM     15  C   UNL     1       6.104   4.089  14.471  0.00  0.00    +0.000 A 
ATOM     16  C   UNL     1       7.139   5.034  14.426  0.00  0.00    +0.000 A 
ATOM     17  C   UNL     1       7.809   5.297  13.231  0.00  0.00    +0.000 A 
ATOM     18  C   UNL     1       7.454   4.616  12.069  0.00  0.00    +0.000 A 
ATOM     19  C   UNL     1       6.426   3.674  12.103  0.00  0.00    +0.000 A 
ATOM     20  C   UNL     1       5.750   3.414  13.297  0.00  0.00    +0.000 A 
ENDBRANCH  14  15
ENDBRANCH   4  14
TORSDOF 4
ENDMDL
MODEL 9
REMARK VINA RESULT:      -7.1      3.058      6.865
REMARK  Name = 
REMARK  4 active torsions:
REMARK  status: ('A' for Active; 'I' for Inactive)
REMARK    1  A    between atoms: C_2  and  C_3
REMARK    2  A    between atoms: C_6  and  C_7
REMARK    3  A    between atoms: C_10  and  C_11
REMARK    4  A    between atoms: C_11  and  C_12
REMARK                            x       y       z     vdW  Elec       q    Type
REMARK                         _______ _______ _______ _____ _____    ______ ____
ROOT
ATOM      1  C   UNL     1       2.695   6.232  19.101  0.00  0.00    +0.000 C 
ATOM      2  N   UNL     1       2.255   5.378  19.964  0.00  0.00    +0.000 NA
ATOM      3  O   UNL     1       1.483   6.078  20.910  0.00  0.00    +0.000 OA
ATOM      4  C   UNL     1       1.318   7.440  20.488  0.00  0.00    +0.000 C 
ATOM      5  C   UNL     1       2.268   7.637  19.323  0.00  0.00    +0.000 C 
ENDROOT
BRANCH   1   9
ATOM      6  C   UNL     1       5.286   5.190  15.854  0.00  0.00    +0.000 A 
ATOM      7  C   UNL     1       5.118   6.528  16.226  0.00  0.00    +0.000 A 
ATOM      8  C   UNL     1       4.264   6.856  17.282  0.00  0.00    +0.000 A 
ATOM      9  C   UNL     1       3.577   5.851  17.975  0.00  0.00    +0.000 A 
ATOM     10  C   UNL     1       3.733   4.515  17.592  0.00  0.00    +0.000 A 
ATOM     11  C   UNL     1       4.586   4.187  16.534  0.00  0.00    +0.000 A 
BRANCH   6  13
ATOM     12  N   UNL     1       6.894   4.577  13.914  0.00  0.00    +0.000 NA
ATOM     13  C   UNL     1       6.175   4.847  14.786  0.00  0.00    +0.000 C 
ENDBRANCH   6  13
ENDBRANCH   1   9
BRANCH   4  14
ATOM     14  C   UNL     1       1.649   8.386  21.647  0.00  0.00    +0.000 C 
BRANCH  14  15
ATOM     15  C   UNL     1       0.625   9.480  21.842  0.00  0.00    +0.000 A 
ATOM     16  C   UNL     1       0.438  10.453  20.849  0.00  0.00    +0.000 A 
ATOM     17  C   UNL     1      -0.494  11.476  21.024  0.00  0.00    +0.000 A 
ATOM     18  C   UNL     1      -1.251  11.536  22.192  0.00  0.00    +0.000 A 
ATOM     19  C   UNL     1      -1.073  10.574  23.185  0.00  0.00    +0.000 A 
ATOM     20  C   UNL     1      -0.136   9.552  23.014  0.00  0.00    +0.000 A 
ENDBRANCH  14  15
ENDBRANCH   4  14
TORSDOF 4
ENDMDL
