MODEL 1
REMARK VINA RESULT:      -8.9      0.000      0.000
REMARK  Name = 
REMARK  7 active torsions:
REMARK  status: ('A' for Active; 'I' for Inactive)
REMARK    1  A    between atoms: N_2  and  C_4
REMARK    2  A    between atoms: C_11  and  N_12
REMARK    3  A    between atoms: N_12  and  C_13
REMARK    4  A    between atoms: C_13  and  C_14
REMARK    5  A    between atoms: C_17  and  O_18
REMARK    6  A    between atoms: O_18  and  C_19
REMARK    7  A    between atoms: C_19  and  C_20
REMARK                            x       y       z     vdW  Elec       q    Type
REMARK                         _______ _______ _______ _____ _____    ______ ____
ROOT
ATOM      1  C   UNL     1       2.716   5.528  19.894  0.00  0.00    +0.000 C 
ENDROOT
BRANCH   1   2
ATOM      2  C   UNL     1       2.241   6.942  19.655  0.00  0.00    +0.000 A 
ATOM      3  C   UNL     1       2.398   7.543  18.396  0.00  0.00    +0.000 A 
ATOM      4  C   UNL     1       1.934   8.838  18.174  0.00  0.00    +0.000 A 
ATOM      5  C   UNL     1       1.261   9.534  19.185  0.00  0.00    +0.000 A 
ATOM      6  C   UNL     1       1.133   8.957  20.445  0.00  0.00    +0.000 A 
ATOM      7  C   UNL     1       1.616   7.670  20.680  0.00  0.00    +0.000 A 
BRANCH   5   8
ATOM      8  O   UNL     1       0.682  10.763  19.006  0.00  0.00    +0.000 OA
BRANCH   8   9
ATOM      9  C   UNL     1      -0.645  10.859  19.530  0.00  0.00    +0.000 C 
BRANCH   9  10
ATOM     10  C   UNL     1      -1.683  10.814  18.439  0.00  0.00    +0.000 A 
ATOM     11  C   UNL     1      -1.559   9.955  17.336  0.00  0.00    +0.000 A 
ATOM     12  C   UNL     1      -2.542   9.943  16.350  0.00  0.00    +0.000 A 
ATOM     13  C   UNL     1      -3.653  10.771  16.469  0.00  0.00    +0.000 A 
ATOM     14  F   UNL     1      -4.588  10.766  15.515  0.00  0.00    +0.000 F 
ATOM     15  C   UNL     1      -3.807  11.606  17.571  0.00  0.00    +0.000 A 
ATOM     16  C   UNL     1      -2.826  11.622  18.558  0.00  0.00    +0.000 A 
ENDBRANCH   9  10
ENDBRANCH   8   9
ENDBRANCH   5   8
ENDBRANCH   1   2
BRANCH   1  17
ATOM     17  N   UNL     1       2.919   4.823  18.626  0.00  0.00    +0.000 NA
ATOM     18  H   UNL     1       2.263   4.046  18.581  0.00  0.00    +0.000 HD
BRANCH  17  26
ATOM     19  C   UNL     1       6.805   4.884  14.618  0.00  0.00    +0.000 A 
ATOM     20  C   UNL     1       5.682   4.122  14.881  0.00  0.00    +0.000 A 
ATOM     21  N   UNL     1       5.438   4.344  16.206  0.00  0.00    +0.000 N 
ATOM     22  C   UNL     1       6.409   5.164  16.691  0.00  0.00    +0.000 A 
ATOM     23  N   UNL     1       7.257   5.524  15.759  0.00  0.00    +0.000 NA
ATOM     24  O   UNL     1       6.555   5.437  17.977  0.00  0.00    +0.000 OA
ATOM     25  C   UNL     1       5.370   5.409  18.765  0.00  0.00    +0.000 C 
ATOM     26  C   UNL     1       4.303   4.331  18.432  0.00  0.00    +0.000 C 
ATOM     27  C   UNL     1       4.426   3.731  17.018  0.00  0.00    +0.000 C 
BRANCH  19  29
ATOM     28  O   UNL     1       7.121   4.252  12.442  0.00  0.00    +0.000 OA
ATOM     29  N   UNL     1       7.511   4.990  13.357  0.00  0.00    +0.000 N 
ATOM     30  O   UNL     1       8.441   5.806  13.283  0.00  0.00    +0.000 OA
ENDBRANCH  19  29
ENDBRANCH  17  26
ENDBRANCH   1  17
TORSDOF 7
ENDMDL
MODEL 2
REMARK VINA RESULT:      -8.9      0.257      1.418
REMARK  Name = 
REMARK  7 active torsions:
REMARK  status: ('A' for Active; 'I' for Inactive)
REMARK    1  A    between atoms: N_2  and  C_4
REMARK    2  A    between atoms: C_11  and  N_12
REMARK    3  A    between atoms: N_12  and  C_13
REMARK    4  A    between atoms: C_13  and  C_14
REMARK    5  A    between atoms: C_17  and  O_18
REMARK    6  A    between atoms: O_18  and  C_19
REMARK    7  A    between atoms: C_19  and  C_20
REMARK                            x       y       z     vdW  Elec       q    Type
REMARK                         _______ _______ _______ _____ _____    ______ ____
ROOT
ATOM      1  C   UNL     1       3.018   5.464  19.749  0.00  0.00    +0.000 C 
ENDROOT
BRANCH   1   2
ATOM      2  C   UNL     1       2.366   6.814  19.563  0.00  0.00    +0.000 A 
ATOM      3  C   UNL     1       1.712   7.442  20.634  0.00  0.00    +0.000 A 
ATOM      4  C   UNL     1       1.135   8.700  20.464  0.00  0.00    +0.000 A 
ATOM      5  C   UNL     1       1.247   9.371  19.241  0.00  0.00    +0.000 A 
ATOM      6  C   UNL     1       1.864   8.739  18.166  0.00  0.00    +0.000 A 
ATOM      7  C   UNL     1       2.422   7.472  18.324  0.00  0.00    +0.000 A 
BRANCH   5   8
ATOM      8  O   UNL     1       0.803  10.651  19.033  0.00  0.00    +0.000 OA
BRANCH   8   9
ATOM      9  C   UNL     1      -0.488  10.913  19.590  0.00  0.00    +0.000 C 
BRANCH   9  10
ATOM     10  C   UNL     1      -1.571  10.856  18.544  0.00  0.00    +0.000 A 
ATOM     11  C   UNL     1      -2.718  11.660  18.623  0.00  0.00    +0.000 A 
ATOM     12  C   UNL     1      -3.694  11.578  17.633  0.00  0.00    +0.000 A 
ATOM     13  C   UNL     1      -3.521  10.711  16.560  0.00  0.00    +0.000 A 
ATOM     14  F   UNL     1      -4.466  10.625  15.619  0.00  0.00    +0.000 F 
ATOM     15  C   UNL     1      -2.377   9.928  16.450  0.00  0.00    +0.000 A 
ATOM     16  C   UNL     1      -1.399  10.006  17.437  0.00  0.00    +0.000 A 
ENDBRANCH   9  10
ENDBRANCH   8   9
ENDBRANCH   5   8
ENDBRANCH   1   2
BRANCH   1  17
ATOM     17  N   UNL     1       3.182   4.780  18.465  0.00  0.00    +0.000 NA
ATOM     18  H   UNL     1       2.517   4.010  18.423  0.00  0.00    +0.000 HD
BRANCH  17  26
ATOM     19  C   UNL     1       6.995   4.946  14.390  0.00  0.00    +0.000 A 
ATOM     20  C   UNL     1       5.866   4.189  14.645  0.00  0.00    +0.000 A 
ATOM     21  N   UNL     1       5.649   4.363  15.981  0.00  0.00    +0.000 N 
ATOM     22  C   UNL     1       6.640   5.150  16.480  0.00  0.00    +0.000 A 
ATOM     23  N   UNL     1       7.476   5.535  15.546  0.00  0.00    +0.000 NA
ATOM     24  O   UNL     1       6.814   5.371  17.773  0.00  0.00    +0.000 OA
ATOM     25  C   UNL     1       5.642   5.328  18.581  0.00  0.00    +0.000 C 
ATOM     26  C   UNL     1       4.555   4.277  18.226  0.00  0.00    +0.000 C 
ATOM     27  C   UNL     1       4.644   3.731  16.787  0.00  0.00    +0.000 C 
BRANCH  19  29
ATOM     28  O   UNL     1       8.608   5.910  13.085  0.00  0.00    +0.000 OA
ATOM     29  N   UNL     1       7.679   5.092  13.122  0.00  0.00    +0.000 N 
ATOM     30  O   UNL     1       7.294   4.392  12.173  0.00  0.00    +0.000 OA
ENDBRANCH  19  29
ENDBRANCH  17  26
ENDBRANCH   1  17
TORSDOF 7
ENDMDL
MODEL 3
REMARK VINA RESULT:      -8.7      0.867      1.125
REMARK  Name = 
REMARK  7 active torsions:
REMARK  status: ('A' for Active; 'I' for Inactive)
REMARK    1  A    between atoms: N_2  and  C_4
REMARK    2  A    between atoms: C_11  and  N_12
REMARK    3  A    between atoms: N_12  and  C_13
REMARK    4  A    between atoms: C_13  and  C_14
REMARK    5  A    between atoms: C_17  and  O_18
REMARK    6  A    between atoms: O_18  and  C_19
REMARK    7  A    between atoms: C_19  and  C_20
REMARK                            x       y       z     vdW  Elec       q    Type
REMARK                         _______ _______ _______ _____ _____    ______ ____
ROOT
ATOM      1  C   UNL     1       2.914   5.383  18.183  0.00  0.00    +0.000 C 
ENDROOT
BRANCH   1   2
ATOM      2  C   UNL     1       2.428   6.739  18.637  0.00  0.00    +0.000 A 
ATOM      3  C   UNL     1       2.349   7.807  17.730  0.00  0.00    +0.000 A 
ATOM      4  C   UNL     1       1.874   9.049  18.148  0.00  0.00    +0.000 A 
ATOM      5  C   UNL     1       1.422   9.231  19.460  0.00  0.00    +0.000 A 
ATOM      6  C   UNL     1       1.531   8.186  20.372  0.00  0.00    +0.000 A 
ATOM      7  C   UNL     1       2.027   6.948  19.966  0.00  0.00    +0.000 A 
BRANCH   5   8
ATOM      8  O   UNL     1       0.842  10.388  19.911  0.00  0.00    +0.000 OA
BRANCH   8   9
ATOM      9  C   UNL     1       0.417  11.267  18.867  0.00  0.00    +0.000 C 
BRANCH   9  10
ATOM     10  C   UNL     1      -1.048  11.099  18.555  0.00  0.00    +0.000 A 
ATOM     11  C   UNL     1      -1.510  10.089  17.698  0.00  0.00    +0.000 A 
ATOM     12  C   UNL     1      -2.873   9.966  17.439  0.00  0.00    +0.000 A 
ATOM     13  C   UNL     1      -3.774  10.836  18.044  0.00  0.00    +0.000 A 
ATOM     14  F   UNL     1      -5.079  10.724  17.782  0.00  0.00    +0.000 F 
ATOM     15  C   UNL     1      -3.336  11.823  18.920  0.00  0.00    +0.000 A 
ATOM     16  C   UNL     1      -1.975  11.950  19.181  0.00  0.00    +0.000 A 
ENDBRANCH   9  10
ENDBRANCH   8   9
ENDBRANCH   5   8
ENDBRANCH   1   2
BRANCH   1  17
ATOM     17  N   UNL     1       3.616   4.689  19.265  0.00  0.00    +0.000 NA
ATOM     18  H   UNL     1       3.585   5.275  20.097  0.00  0.00    +0.000 HD
BRANCH  17  26
ATOM     19  C   UNL     1       7.006   4.887  14.834  0.00  0.00    +0.000 A 
ATOM     20  C   UNL     1       6.017   4.026  15.273  0.00  0.00    +0.000 A 
ATOM     21  N   UNL     1       5.895   4.317  16.601  0.00  0.00    +0.000 N 
ATOM     22  C   UNL     1       6.808   5.274  16.919  0.00  0.00    +0.000 A 
ATOM     23  N   UNL     1       7.500   5.656  15.873  0.00  0.00    +0.000 NA
ATOM     24  O   UNL     1       7.060   5.656  18.160  0.00  0.00    +0.000 OA
ATOM     25  C   UNL     1       5.980   5.553  19.081  0.00  0.00    +0.000 C 
ATOM     26  C   UNL     1       5.020   4.341  18.941  0.00  0.00    +0.000 C 
ATOM     27  C   UNL     1       5.058   3.656  17.561  0.00  0.00    +0.000 C 
BRANCH  19  29
ATOM     28  O   UNL     1       8.501   5.757  13.337  0.00  0.00    +0.000 OA
ATOM     29  N   UNL     1       7.552   4.978  13.496  0.00  0.00    +0.000 N 
ATOM     30  O   UNL     1       7.040   4.273  12.613  0.00  0.00    +0.000 OA
ENDBRANCH  19  29
ENDBRANCH  17  26
ENDBRANCH   1  17
TORSDOF 7
ENDMDL
MODEL 4
REMARK VINA RESULT:      -8.5      0.955      1.503
REMARK  Name = 
REMARK  7 active torsions:
REMARK  status: ('A' for Active; 'I' for Inactive)
REMARK    1  A    between atoms: N_2  and  C_4
REMARK    2  A    between atoms: C_11  and  N_12
REMARK    3  A    between atoms: N_12  and  C_13
REMARK    4  A    between atoms: C_13  and  C_14
REMARK    5  A    between atoms: C_17  and  O_18
REMARK    6  A    between atoms: O_18  and  C_19
REMARK    7  A    between atoms: C_19  and  C_20
REMARK                            x       y       z     vdW  Elec       q    Type
REMARK                         _______ _______ _______ _____ _____    ______ ____
ROOT
ATOM      1  C   UNL     1       3.122   6.670  18.091  0.00  0.00    +0.000 C 
ENDROOT
BRANCH   1   2
ATOM      2  C   UNL     1       2.330   7.824  18.659  0.00  0.00    +0.000 A 
ATOM      3  C   UNL     1       2.044   8.948  17.869  0.00  0.00    +0.000 A 
ATOM      4  C   UNL     1       1.289   9.998  18.390  0.00  0.00    +0.000 A 
ATOM      5  C   UNL     1       0.765   9.920  19.685  0.00  0.00    +0.000 A 
ATOM      6  C   UNL     1       1.075   8.824  20.485  0.00  0.00    +0.000 A 
ATOM      7  C   UNL     1       1.848   7.782  19.977  0.00  0.00    +0.000 A 
BRANCH   5   8
ATOM      8  O   UNL     1      -0.074  10.861  20.224  0.00  0.00    +0.000 OA
BRANCH   8   9
ATOM      9  C   UNL     1      -0.417  11.915  19.320  0.00  0.00    +0.000 C 
BRANCH   9  10
ATOM     10  C   UNL     1      -1.812  11.753  18.775  0.00  0.00    +0.000 A 
ATOM     11  C   UNL     1      -2.943  12.126  19.517  0.00  0.00    +0.000 A 
ATOM     12  C   UNL     1      -4.215  11.963  18.975  0.00  0.00    +0.000 A 
ATOM     13  C   UNL     1      -4.361  11.444  17.693  0.00  0.00    +0.000 A 
ATOM     14  F   UNL     1      -5.583  11.276  17.181  0.00  0.00    +0.000 F 
ATOM     15  C   UNL     1      -3.249  11.098  16.932  0.00  0.00    +0.000 A 
ATOM     16  C   UNL     1      -1.976  11.259  17.470  0.00  0.00    +0.000 A 
ENDBRANCH   9  10
ENDBRANCH   8   9
ENDBRANCH   5   8
ENDBRANCH   1   2
BRANCH   1  17
ATOM     17  N   UNL     1       3.573   5.769  19.155  0.00  0.00    +0.000 NA
ATOM     18  H   UNL     1       3.972   6.331  19.904  0.00  0.00    +0.000 HD
BRANCH  17  26
ATOM     19  C   UNL     1       6.842   4.865  14.721  0.00  0.00    +0.000 A 
ATOM     20  C   UNL     1       5.506   4.658  15.011  0.00  0.00    +0.000 A 
ATOM     21  N   UNL     1       5.457   4.697  16.375  0.00  0.00    +0.000 N 
ATOM     22  C   UNL     1       6.721   4.873  16.847  0.00  0.00    +0.000 A 
ATOM     23  N   UNL     1       7.594   4.989  15.877  0.00  0.00    +0.000 NA
ATOM     24  O   UNL     1       7.037   4.788  18.129  0.00  0.00    +0.000 OA
ATOM     25  C   UNL     1       6.015   5.142  19.054  0.00  0.00    +0.000 C 
ATOM     26  C   UNL     1       4.553   4.754  18.703  0.00  0.00    +0.000 C 
ATOM     27  C   UNL     1       4.314   4.460  17.210  0.00  0.00    +0.000 C 
BRANCH  19  29
ATOM     28  O   UNL     1       8.395   5.681  13.253  0.00  0.00    +0.000 OA
ATOM     29  N   UNL     1       7.456   4.889  13.409  0.00  0.00    +0.000 N 
ATOM     30  O   UNL     1       7.006   4.121  12.546  0.00  0.00    +0.000 OA
ENDBRANCH  19  29
ENDBRANCH  17  26
ENDBRANCH   1  17
TORSDOF 7
ENDMDL
MODEL 5
REMARK VINA RESULT:      -8.5      2.535      3.145
REMARK  Name = 
REMARK  7 active torsions:
REMARK  status: ('A' for Active; 'I' for Inactive)
REMARK    1  A    between atoms: N_2  and  C_4
REMARK    2  A    between atoms: C_11  and  N_12
REMARK    3  A    between atoms: N_12  and  C_13
REMARK    4  A    between atoms: C_13  and  C_14
REMARK    5  A    between atoms: C_17  and  O_18
REMARK    6  A    between atoms: O_18  and  C_19
REMARK    7  A    between atoms: C_19  and  C_20
REMARK                            x       y       z     vdW  Elec       q    Type
REMARK                         _______ _______ _______ _____ _____    ______ ____
ROOT
ATOM      1  C   UNL     1       2.893   5.683  19.000  0.00  0.00    +0.000 C 
ENDROOT
BRANCH   1   2
ATOM      2  C   UNL     1       2.249   7.041  19.154  0.00  0.00    +0.000 A 
ATOM      3  C   UNL     1       1.750   7.454  20.400  0.00  0.00    +0.000 A 
ATOM      4  C   UNL     1       1.181   8.718  20.543  0.00  0.00    +0.000 A 
ATOM      5  C   UNL     1       1.147   9.607  19.463  0.00  0.00    +0.000 A 
ATOM      6  C   UNL     1       1.608   9.190  18.218  0.00  0.00    +0.000 A 
ATOM      7  C   UNL     1       2.157   7.918  18.063  0.00  0.00    +0.000 A 
BRANCH   5   8
ATOM      8  O   UNL     1       0.705  10.902  19.556  0.00  0.00    +0.000 OA
BRANCH   8   9
ATOM      9  C   UNL     1       0.907  11.490  20.844  0.00  0.00    +0.000 C 
BRANCH   9  10
ATOM     10  C   UNL     1      -0.394  11.909  21.477  0.00  0.00    +0.000 A 
ATOM     11  C   UNL     1      -1.189  12.928  20.929  0.00  0.00    +0.000 A 
ATOM     12  C   UNL     1      -2.386  13.283  21.544  0.00  0.00    +0.000 A 
ATOM     13  C   UNL     1      -2.799  12.617  22.693  0.00  0.00    +0.000 A 
ATOM     14  F   UNL     1      -3.942  12.969  23.288  0.00  0.00    +0.000 F 
ATOM     15  C   UNL     1      -2.039  11.584  23.233  0.00  0.00    +0.000 A 
ATOM     16  C   UNL     1      -0.842  11.226  22.621  0.00  0.00    +0.000 A 
ENDBRANCH   9  10
ENDBRANCH   8   9
ENDBRANCH   5   8
ENDBRANCH   1   2
BRANCH   1  17
ATOM     17  N   UNL     1       4.166   5.622  19.721  0.00  0.00    +0.000 NA
ATOM     18  H   UNL     1       4.580   6.552  19.724  0.00  0.00    +0.000 HD
BRANCH  17  26
ATOM     19  C   UNL     1       6.715   4.662  14.848  0.00  0.00    +0.000 A 
ATOM     20  C   UNL     1       5.462   4.394  15.367  0.00  0.00    +0.000 A 
ATOM     21  N   UNL     1       5.635   4.507  16.716  0.00  0.00    +0.000 N 
ATOM     22  C   UNL     1       6.945   4.783  16.961  0.00  0.00    +0.000 A 
ATOM     23  N   UNL     1       7.637   4.895  15.854  0.00  0.00    +0.000 NA
ATOM     24  O   UNL     1       7.473   4.789  18.174  0.00  0.00    +0.000 OA
ATOM     25  C   UNL     1       6.595   5.135  19.240  0.00  0.00    +0.000 C 
ATOM     26  C   UNL     1       5.125   4.642  19.158  0.00  0.00    +0.000 C 
ATOM     27  C   UNL     1       4.664   4.250  17.741  0.00  0.00    +0.000 C 
BRANCH  19  29
ATOM     28  O   UNL     1       7.902   5.522  13.091  0.00  0.00    +0.000 OA
ATOM     29  N   UNL     1       7.102   4.648  13.452  0.00  0.00    +0.000 N 
ATOM     30  O   UNL     1       6.614   3.770  12.725  0.00  0.00    +0.000 OA
ENDBRANCH  19  29
ENDBRANCH  17  26
ENDBRANCH   1  17
TORSDOF 7
ENDMDL
MODEL 6
REMARK VINA RESULT:      -8.5      1.110      1.676
REMARK  Name = 
REMARK  7 active torsions:
REMARK  status: ('A' for Active; 'I' for Inactive)
REMARK    1  A    between atoms: N_2  and  C_4
REMARK    2  A    between atoms: C_11  and  N_12
REMARK    3  A    between atoms: N_12  and  C_13
REMARK    4  A    between atoms: C_13  and  C_14
REMARK    5  A    between atoms: C_17  and  O_18
REMARK    6  A    between atoms: O_18  and  C_19
REMARK    7  A    between atoms: C_19  and  C_20
REMARK                            x       y       z     vdW  Elec       q    Type
REMARK                         _______ _______ _______ _____ _____    ______ ____
ROOT
ATOM      1  C   UNL     1       3.350   6.304  17.884  0.00  0.00    +0.000 C 
ENDROOT
BRANCH   1   2
ATOM      2  C   UNL     1       2.496   7.351  18.559  0.00  0.00    +0.000 A 
ATOM      3  C   UNL     1       2.177   7.239  19.922  0.00  0.00    +0.000 A 
ATOM      4  C   UNL     1       1.411   8.221  20.546  0.00  0.00    +0.000 A 
ATOM      5  C   UNL     1       0.996   9.354  19.837  0.00  0.00    +0.000 A 
ATOM      6  C   UNL     1       1.280   9.454  18.478  0.00  0.00    +0.000 A 
ATOM      7  C   UNL     1       2.026   8.463  17.843  0.00  0.00    +0.000 A 
BRANCH   5   8
ATOM      8  O   UNL     1       0.337  10.411  20.410  0.00  0.00    +0.000 OA
BRANCH   8   9
ATOM      9  C   UNL     1       0.046  11.474  19.499  0.00  0.00    +0.000 C 
BRANCH   9  10
ATOM     10  C   UNL     1      -1.430  11.579  19.214  0.00  0.00    +0.000 A 
ATOM     11  C   UNL     1      -2.035  10.860  18.173  0.00  0.00    +0.000 A 
ATOM     12  C   UNL     1      -3.403  10.983  17.946  0.00  0.00    +0.000 A 
ATOM     13  C   UNL     1      -4.170  11.807  18.762  0.00  0.00    +0.000 A 
ATOM     14  F   UNL     1      -5.480  11.934  18.533  0.00  0.00    +0.000 F 
ATOM     15  C   UNL     1      -3.592  12.504  19.818  0.00  0.00    +0.000 A 
ATOM     16  C   UNL     1      -2.225  12.384  20.049  0.00  0.00    +0.000 A 
ENDBRANCH   9  10
ENDBRANCH   8   9
ENDBRANCH   5   8
ENDBRANCH   1   2
BRANCH   1  17
ATOM     17  N   UNL     1       3.772   5.276  18.838  0.00  0.00    +0.000 NA
ATOM     18  H   UNL     1       4.026   5.732  19.712  0.00  0.00    +0.000 HD
BRANCH  17  26
ATOM     19  C   UNL     1       6.864   4.766  14.219  0.00  0.00    +0.000 A 
ATOM     20  C   UNL     1       5.612   4.332  14.611  0.00  0.00    +0.000 A 
ATOM     21  N   UNL     1       5.643   4.430  15.973  0.00  0.00    +0.000 N 
ATOM     22  C   UNL     1       6.878   4.861  16.345  0.00  0.00    +0.000 A 
ATOM     23  N   UNL     1       7.651   5.086  15.311  0.00  0.00    +0.000 NA
ATOM     24  O   UNL     1       7.286   4.900  17.603  0.00  0.00    +0.000 OA
ATOM     25  C   UNL     1       6.276   5.106  18.586  0.00  0.00    +0.000 C 
ATOM     26  C   UNL     1       4.894   4.438  18.356  0.00  0.00    +0.000 C 
ATOM     27  C   UNL     1       4.621   4.028  16.896  0.00  0.00    +0.000 C 
BRANCH  19  29
ATOM     28  O   UNL     1       8.141   5.779  12.612  0.00  0.00    +0.000 OA
ATOM     29  N   UNL     1       7.378   4.837  12.866  0.00  0.00    +0.000 N 
ATOM     30  O   UNL     1       7.026   3.956  12.067  0.00  0.00    +0.000 OA
ENDBRANCH  19  29
ENDBRANCH  17  26
ENDBRANCH   1  17
TORSDOF 7
ENDMDL
MODEL 7
REMARK VINA RESULT:      -8.5      1.013      1.493
REMARK  Name = 
REMARK  7 active torsions:
REMARK  status: ('A' for Active; 'I' for Inactive)
REMARK    1  A    between atoms: N_2  and  C_4
REMARK    2  A    between atoms: C_11  and  N_12
REMARK    3  A    between atoms: N_12  and  C_13
REMARK    4  A    between atoms: C_13  and  C_14
REMARK    5  A    between atoms: C_17  and  O_18
REMARK    6  A    between atoms: O_18  and  C_19
REMARK    7  A    between atoms: C_19  and  C_20
REMARK                            x       y       z     vdW  Elec       q    Type
REMARK                         _______ _______ _______ _____ _____    ______ ____
ROOT
ATOM      1  C   UNL     1       3.403   5.618  19.647  0.00  0.00    +0.000 C 
ENDROOT
BRANCH   1   2
ATOM      2  C   UNL     1       2.613   6.899  19.518  0.00  0.00    +0.000 A 
ATOM      3  C   UNL     1       2.548   7.574  18.289  0.00  0.00    +0.000 A 
ATOM      4  C   UNL     1       1.796   8.742  18.170  0.00  0.00    +0.000 A 
ATOM      5  C   UNL     1       1.058   9.225  19.256  0.00  0.00    +0.000 A 
ATOM      6  C   UNL     1       1.147   8.579  20.486  0.00  0.00    +0.000 A 
ATOM      7  C   UNL     1       1.916   7.424  20.618  0.00  0.00    +0.000 A 
BRANCH   5   8
ATOM      8  O   UNL     1       0.212  10.301  19.183  0.00  0.00    +0.000 OA
BRANCH   8   9
ATOM      9  C   UNL     1      -0.542  10.362  17.970  0.00  0.00    +0.000 C 
BRANCH   9  10
ATOM     10  C   UNL     1      -1.968  10.783  18.218  0.00  0.00    +0.000 A 
ATOM     11  C   UNL     1      -2.283  11.886  19.024  0.00  0.00    +0.000 A 
ATOM     12  C   UNL     1      -3.613  12.244  19.225  0.00  0.00    +0.000 A 
ATOM     13  C   UNL     1      -4.627  11.515  18.613  0.00  0.00    +0.000 A 
ATOM     14  F   UNL     1      -5.903  11.852  18.818  0.00  0.00    +0.000 F 
ATOM     15  C   UNL     1      -4.331  10.436  17.785  0.00  0.00    +0.000 A 
ATOM     16  C   UNL     1      -3.003  10.075  17.582  0.00  0.00    +0.000 A 
ENDBRANCH   9  10
ENDBRANCH   8   9
ENDBRANCH   5   8
ENDBRANCH   1   2
BRANCH   1  17
ATOM     17  N   UNL     1       3.201   4.758  18.478  0.00  0.00    +0.000 NA
ATOM     18  H   UNL     1       2.433   4.120  18.676  0.00  0.00    +0.000 HD
BRANCH  17  26
ATOM     19  C   UNL     1       6.994   4.850  14.383  0.00  0.00    +0.000 A 
ATOM     20  C   UNL     1       5.707   4.361  14.515  0.00  0.00    +0.000 A 
ATOM     21  N   UNL     1       5.521   4.289  15.866  0.00  0.00    +0.000 N 
ATOM     22  C   UNL     1       6.671   4.679  16.480  0.00  0.00    +0.000 A 
ATOM     23  N   UNL     1       7.590   5.036  15.618  0.00  0.00    +0.000 NA
ATOM     24  O   UNL     1       6.874   4.564  17.783  0.00  0.00    +0.000 OA
ATOM     25  C   UNL     1       5.718   4.639  18.609  0.00  0.00    +0.000 C 
ATOM     26  C   UNL     1       4.407   3.995  18.083  0.00  0.00    +0.000 C 
ATOM     27  C   UNL     1       4.378   3.769  16.559  0.00  0.00    +0.000 C 
BRANCH  19  29
ATOM     28  O   UNL     1       8.653   5.894  13.204  0.00  0.00    +0.000 OA
ATOM     29  N   UNL     1       7.712   5.092  13.148  0.00  0.00    +0.000 N 
ATOM     30  O   UNL     1       7.340   4.483  12.134  0.00  0.00    +0.000 OA
ENDBRANCH  19  29
ENDBRANCH  17  26
ENDBRANCH   1  17
TORSDOF 7
ENDMDL
MODEL 8
REMARK VINA RESULT:      -8.5      2.313      3.035
REMARK  Name = 
REMARK  7 active torsions:
REMARK  status: ('A' for Active; 'I' for Inactive)
REMARK    1  A    between atoms: N_2  and  C_4
REMARK    2  A    between atoms: C_11  and  N_12
REMARK    3  A    between atoms: N_12  and  C_13
REMARK    4  A    between atoms: C_13  and  C_14
REMARK    5  A    between atoms: C_17  and  O_18
REMARK    6  A    between atoms: O_18  and  C_19
REMARK    7  A    between atoms: C_19  and  C_20
REMARK                            x       y       z     vdW  Elec       q    Type
REMARK                         _______ _______ _______ _____ _____    ______ ____
ROOT
ATOM      1  C   UNL     1       2.716   5.980  18.369  0.00  0.00    +0.000 C 
ENDROOT
BRANCH   1   2
ATOM      2  C   UNL     1       2.271   7.374  18.746  0.00  0.00    +0.000 A 
ATOM      3  C   UNL     1       2.192   8.383  17.774  0.00  0.00    +0.000 A 
ATOM      4  C   UNL     1       1.757   9.660  18.123  0.00  0.00    +0.000 A 
ATOM      5  C   UNL     1       1.343   9.936  19.431  0.00  0.00    +0.000 A 
ATOM      6  C   UNL     1       1.452   8.949  20.406  0.00  0.00    +0.000 A 
ATOM      7  C   UNL     1       1.909   7.677  20.069  0.00  0.00    +0.000 A 
BRANCH   5   8
ATOM      8  O   UNL     1       0.800  11.133  19.821  0.00  0.00    +0.000 OA
BRANCH   8   9
ATOM      9  C   UNL     1      -0.601  11.246  19.558  0.00  0.00    +0.000 C 
BRANCH   9  10
ATOM     10  C   UNL     1      -1.373  11.625  20.795  0.00  0.00    +0.000 A 
ATOM     11  C   UNL     1      -2.512  12.442  20.734  0.00  0.00    +0.000 A 
ATOM     12  C   UNL     1      -3.199  12.765  21.901  0.00  0.00    +0.000 A 
ATOM     13  C   UNL     1      -2.763  12.265  23.123  0.00  0.00    +0.000 A 
ATOM     14  F   UNL     1      -3.416  12.589  24.242  0.00  0.00    +0.000 F 
ATOM     15  C   UNL     1      -1.654  11.430  23.198  0.00  0.00    +0.000 A 
ATOM     16  C   UNL     1      -0.964  11.104  22.035  0.00  0.00    +0.000 A 
ENDBRANCH   9  10
ENDBRANCH   8   9
ENDBRANCH   5   8
ENDBRANCH   1   2
BRANCH   1  17
ATOM     17  N   UNL     1       3.524   5.382  19.434  0.00  0.00    +0.000 NA
ATOM     18  H   UNL     1       3.960   6.132  19.967  0.00  0.00    +0.000 HD
BRANCH  17  26
ATOM     19  C   UNL     1       6.744   4.769  14.915  0.00  0.00    +0.000 A 
ATOM     20  C   UNL     1       5.431   4.471  15.230  0.00  0.00    +0.000 A 
ATOM     21  N   UNL     1       5.410   4.483  16.595  0.00  0.00    +0.000 N 
ATOM     22  C   UNL     1       6.670   4.733  17.042  0.00  0.00    +0.000 A 
ATOM     23  N   UNL     1       7.512   4.922  16.056  0.00  0.00    +0.000 NA
ATOM     24  O   UNL     1       7.021   4.646  18.315  0.00  0.00    +0.000 OA
ATOM     25  C   UNL     1       5.999   4.917  19.269  0.00  0.00    +0.000 C 
ATOM     26  C   UNL     1       4.558   4.441  18.943  0.00  0.00    +0.000 C 
ATOM     27  C   UNL     1       4.305   4.157  17.449  0.00  0.00    +0.000 C 
BRANCH  19  29
ATOM     28  O   UNL     1       8.240   5.677  13.442  0.00  0.00    +0.000 OA
ATOM     29  N   UNL     1       7.325   4.856  13.591  0.00  0.00    +0.000 N 
ATOM     30  O   UNL     1       6.874   4.108  12.711  0.00  0.00    +0.000 OA
ENDBRANCH  19  29
ENDBRANCH  17  26
ENDBRANCH   1  17
TORSDOF 7
ENDMDL
MODEL 9
REMARK VINA RESULT:      -8.4      1.563      2.412
REMARK  Name = 
REMARK  7 active torsions:
REMARK  status: ('A' for Active; 'I' for Inactive)
REMARK    1  A    between atoms: N_2  and  C_4
REMARK    2  A    between atoms: C_11  and  N_12
REMARK    3  A    between atoms: N_12  and  C_13
REMARK    4  A    between atoms: C_13  and  C_14
REMARK    5  A    between atoms: C_17  and  O_18
REMARK    6  A    between atoms: O_18  and  C_19
REMARK    7  A    between atoms: C_19  and  C_20
REMARK                            x       y       z     vdW  Elec       q    Type
REMARK                         _______ _______ _______ _____ _____    ______ ____
ROOT
ATOM      1  C   UNL     1       1.943   4.981  20.904  0.00  0.00    +0.000 C 
ENDROOT
BRANCH   1   2
ATOM      2  C   UNL     1       1.648   6.422  20.560  0.00  0.00    +0.000 A 
ATOM      3  C   UNL     1       0.802   7.189  21.377  0.00  0.00    +0.000 A 
ATOM      4  C   UNL     1       0.554   8.526  21.070  0.00  0.00    +0.000 A 
ATOM      5  C   UNL     1       1.184   9.132  19.977  0.00  0.00    +0.000 A 
ATOM      6  C   UNL     1       1.995   8.367  19.144  0.00  0.00    +0.000 A 
ATOM      7  C   UNL     1       2.229   7.024  19.433  0.00  0.00    +0.000 A 
BRANCH   5   8
ATOM      8  O   UNL     1       1.075  10.465  19.679  0.00  0.00    +0.000 OA
BRANCH   8   9
ATOM      9  C   UNL     1       0.642  10.726  18.342  0.00  0.00    +0.000 C 
BRANCH   9  10
ATOM     10  C   UNL     1      -0.861  10.759  18.237  0.00  0.00    +0.000 A 
ATOM     11  C   UNL     1      -1.635  11.658  18.988  0.00  0.00    +0.000 A 
ATOM     12  C   UNL     1      -3.021  11.658  18.859  0.00  0.00    +0.000 A 
ATOM     13  C   UNL     1      -3.635  10.778  17.975  0.00  0.00    +0.000 A 
ATOM     14  F   UNL     1      -4.966  10.772  17.864  0.00  0.00    +0.000 F 
ATOM     15  C   UNL     1      -2.882   9.901  17.201  0.00  0.00    +0.000 A 
ATOM     16  C   UNL     1      -1.496   9.897  17.327  0.00  0.00    +0.000 A 
ENDBRANCH   9  10
ENDBRANCH   8   9
ENDBRANCH   5   8
ENDBRANCH   1   2
BRANCH   1  17
ATOM     17  N   UNL     1       1.466   4.083  19.850  0.00  0.00    +0.000 NA
ATOM     18  H   UNL     1       0.788   3.441  20.256  0.00  0.00    +0.000 HD
BRANCH  17  26
ATOM     19  C   UNL     1       6.147   5.182  17.014  0.00  0.00    +0.000 A 
ATOM     20  C   UNL     1       4.799   5.157  16.707  0.00  0.00    +0.000 A 
ATOM     21  N   UNL     1       4.248   4.413  17.710  0.00  0.00    +0.000 N 
ATOM     22  C   UNL     1       5.247   3.992  18.532  0.00  0.00    +0.000 A 
ATOM     23  N   UNL     1       6.417   4.442  18.152  0.00  0.00    +0.000 NA
ATOM     24  O   UNL     1       5.066   3.114  19.505  0.00  0.00    +0.000 OA
ATOM     25  C   UNL     1       3.773   3.092  20.101  0.00  0.00    +0.000 C 
ATOM     26  C   UNL     1       2.546   3.323  19.178  0.00  0.00    +0.000 C 
ATOM     27  C   UNL     1       2.878   4.006  17.837  0.00  0.00    +0.000 C 
BRANCH  19  29
ATOM     28  O   UNL     1       7.663   6.869  16.716  0.00  0.00    +0.000 OA
ATOM     29  N   UNL     1       7.203   5.817  16.252  0.00  0.00    +0.000 N 
ATOM     30  O   UNL     1       7.572   5.266  15.205  0.00  0.00    +0.000 OA
ENDBRANCH  19  29
ENDBRANCH  17  26
ENDBRANCH   1  17
TORSDOF 7
ENDMDL
