MODEL 1
REMARK VINA RESULT:      -9.3      0.000      0.000
REMARK  Name = 
REMARK  4 active torsions:
REMARK  status: ('A' for Active; 'I' for Inactive)
REMARK    1  A    between atoms: C_1  and  C_2
REMARK    2  A    between atoms: C_9  and  C_10
REMARK    3  A    between atoms: C_13  and  N_14
REMARK    4  A    between atoms: N_17  and  C_18
REMARK                            x       y       z     vdW  Elec       q    Type
REMARK                         _______ _______ _______ _____ _____    ______ ____
ROOT
ATOM      1  C   UNL     1       4.839   5.088  18.042  0.00  0.00    +0.000 A 
ATOM      2  C   UNL     1       6.162   5.083  18.516  0.00  0.00    +0.000 A 
ATOM      3  C   UNL     1       7.029   6.152  18.266  0.00  0.00    +0.000 A 
ATOM      4  C   UNL     1       6.614   7.244  17.501  0.00  0.00    +0.000 A 
ATOM      5  C   UNL     1       5.296   7.284  17.052  0.00  0.00    +0.000 A 
ATOM      6  C   UNL     1       4.420   6.233  17.353  0.00  0.00    +0.000 A 
ENDROOT
BRANCH   1  15
ATOM      7  C   UNL     1       2.258   6.445  20.033  0.00  0.00    +0.000 C 
ATOM      8  C   UNL     1       2.072   4.973  19.924  0.00  0.00    +0.000 A 
ATOM      9  C   UNL     1       1.056   4.278  20.570  0.00  0.00    +0.000 A 
ATOM     10  N   UNL     1       1.121   2.969  20.195  0.00  0.00    +0.000 N 
ATOM     11  C   UNL     1       2.161   2.788  19.330  0.00  0.00    +0.000 A 
ATOM     12  N   UNL     1       2.452   1.607  18.765  0.00  0.00    +0.000 NA
ATOM     13  C   UNL     1       3.511   1.697  17.951  0.00  0.00    +0.000 A 
ATOM     14  N   UNL     1       4.264   2.780  17.702  0.00  0.00    +0.000 NA
ATOM     15  C   UNL     1       3.950   3.955  18.321  0.00  0.00    +0.000 A 
ATOM     16  C   UNL     1       2.820   4.004  19.162  0.00  0.00    +0.000 A 
ATOM     17  H   UNL     1       0.499   2.228  20.481  0.00  0.00    +0.000 HD
ENDBRANCH   1  15
BRANCH   4  18
ATOM     18  N   UNL     1       7.459   8.336  17.213  0.00  0.00    +0.000 N 
ATOM     19  C   UNL     1       8.352   8.888  18.108  0.00  0.00    +0.000 C 
ATOM     20  O   UNL     1       8.674   8.377  19.178  0.00  0.00    +0.000 OA
ATOM     21  N   UNL     1       8.822  10.117  17.667  0.00  0.00    +0.000 N 
ATOM     22  H   UNL     1       7.613   8.562  16.240  0.00  0.00    +0.000 HD
ATOM     23  H   UNL     1       8.155  10.645  17.123  0.00  0.00    +0.000 HD
BRANCH  21  24
ATOM     24  C   UNL     1       9.765  10.855  18.417  0.00  0.00    +0.000 A 
ATOM     25  C   UNL     1      10.996  11.240  17.868  0.00  0.00    +0.000 A 
ATOM     26  C   UNL     1      11.927  11.947  18.632  0.00  0.00    +0.000 A 
ATOM     27  C   UNL     1      11.634  12.263  19.955  0.00  0.00    +0.000 A 
ATOM     28  C   UNL     1      10.410  11.879  20.494  0.00  0.00    +0.000 A 
ATOM     29  F   UNL     1      10.144  12.157  21.777  0.00  0.00    +0.000 F 
ATOM     30  C   UNL     1       9.464  11.196  19.734  0.00  0.00    +0.000 A 
ENDBRANCH  21  24
ENDBRANCH   4  18
TORSDOF 3
ENDMDL
MODEL 2
REMARK VINA RESULT:      -9.1      0.944      1.296
REMARK  Name = 
REMARK  4 active torsions:
REMARK  status: ('A' for Active; 'I' for Inactive)
REMARK    1  A    between atoms: C_1  and  C_2
REMARK    2  A    between atoms: C_9  and  C_10
REMARK    3  A    between atoms: C_13  and  N_14
REMARK    4  A    between atoms: N_17  and  C_18
REMARK                            x       y       z     vdW  Elec       q    Type
REMARK                         _______ _______ _______ _____ _____    ______ ____
ROOT
ATOM      1  C   UNL     1       4.748   5.023  18.040  0.00  0.00    +0.000 A 
ATOM      2  C   UNL     1       5.986   5.137  18.695  0.00  0.00    +0.000 A 
ATOM      3  C   UNL     1       6.855   6.200  18.428  0.00  0.00    +0.000 A 
ATOM      4  C   UNL     1       6.530   7.164  17.472  0.00  0.00    +0.000 A 
ATOM      5  C   UNL     1       5.293   7.088  16.838  0.00  0.00    +0.000 A 
ATOM      6  C   UNL     1       4.407   6.049  17.150  0.00  0.00    +0.000 A 
ENDROOT
BRANCH   1  15
ATOM      7  C   UNL     1       2.180   6.423  20.020  0.00  0.00    +0.000 C 
ATOM      8  C   UNL     1       1.987   4.950  19.934  0.00  0.00    +0.000 A 
ATOM      9  C   UNL     1       0.971   4.270  20.595  0.00  0.00    +0.000 A 
ATOM     10  N   UNL     1       1.028   2.955  20.240  0.00  0.00    +0.000 N 
ATOM     11  C   UNL     1       2.064   2.755  19.374  0.00  0.00    +0.000 A 
ATOM     12  N   UNL     1       2.347   1.565  18.827  0.00  0.00    +0.000 NA
ATOM     13  C   UNL     1       3.403   1.637  18.007  0.00  0.00    +0.000 A 
ATOM     14  N   UNL     1       4.161   2.712  17.739  0.00  0.00    +0.000 NA
ATOM     15  C   UNL     1       3.854   3.899  18.340  0.00  0.00    +0.000 A 
ATOM     16  C   UNL     1       2.727   3.965  19.184  0.00  0.00    +0.000 A 
ATOM     17  H   UNL     1       0.403   2.221  20.540  0.00  0.00    +0.000 HD
ENDBRANCH   1  15
BRANCH   4  18
ATOM     18  N   UNL     1       7.383   8.245  17.162  0.00  0.00    +0.000 N 
ATOM     19  C   UNL     1       8.255   8.831  18.056  0.00  0.00    +0.000 C 
ATOM     20  O   UNL     1       8.552   8.361  19.152  0.00  0.00    +0.000 OA
ATOM     21  N   UNL     1       8.736  10.042  17.579  0.00  0.00    +0.000 N 
ATOM     22  H   UNL     1       7.560   8.434  16.185  0.00  0.00    +0.000 HD
ATOM     23  H   UNL     1       8.082  10.550  17.000  0.00  0.00    +0.000 HD
BRANCH  21  24
ATOM     24  C   UNL     1       9.662  10.809  18.323  0.00  0.00    +0.000 A 
ATOM     25  C   UNL     1       9.654  10.808  19.724  0.00  0.00    +0.000 A 
ATOM     26  C   UNL     1      10.559  11.592  20.443  0.00  0.00    +0.000 A 
ATOM     27  C   UNL     1      11.471  12.390  19.760  0.00  0.00    +0.000 A 
ATOM     28  C   UNL     1      11.475  12.387  18.369  0.00  0.00    +0.000 A 
ATOM     29  F   UNL     1      12.333  13.180  17.714  0.00  0.00    +0.000 F 
ATOM     30  C   UNL     1      10.594  11.589  17.642  0.00  0.00    +0.000 A 
ENDBRANCH  21  24
ENDBRANCH   4  18
TORSDOF 3
ENDMDL
MODEL 3
REMARK VINA RESULT:      -8.8      3.781     10.640
REMARK  Name = 
REMARK  4 active torsions:
REMARK  status: ('A' for Active; 'I' for Inactive)
REMARK    1  A    between atoms: C_1  and  C_2
REMARK    2  A    between atoms: C_9  and  C_10
REMARK    3  A    between atoms: C_13  and  N_14
REMARK    4  A    between atoms: N_17  and  C_18
REMARK                            x       y       z     vdW  Elec       q    Type
REMARK                         _______ _______ _______ _____ _____    ______ ____
ROOT
ATOM      1  C   UNL     1       9.346  12.737  18.932  0.00  0.00    +0.000 A 
ATOM      2  C   UNL     1       9.681  11.955  20.051  0.00  0.00    +0.000 A 
ATOM      3  C   UNL     1       9.521  10.565  20.042  0.00  0.00    +0.000 A 
ATOM      4  C   UNL     1       8.986   9.916  18.928  0.00  0.00    +0.000 A 
ATOM      5  C   UNL     1       8.680  10.668  17.797  0.00  0.00    +0.000 A 
ATOM      6  C   UNL     1       8.893  12.053  17.797  0.00  0.00    +0.000 A 
ENDROOT
BRANCH   1  15
ATOM      7  C   UNL     1      12.070  13.354  16.773  0.00  0.00    +0.000 C 
ATOM      8  C   UNL     1      11.662  14.627  17.426  0.00  0.00    +0.000 A 
ATOM      9  C   UNL     1      12.319  15.836  17.226  0.00  0.00    +0.000 A 
ATOM     10  N   UNL     1      11.646  16.811  17.900  0.00  0.00    +0.000 N 
ATOM     11  C   UNL     1      10.573  16.268  18.546  0.00  0.00    +0.000 A 
ATOM     12  N   UNL     1       9.703  16.991  19.266  0.00  0.00    +0.000 NA
ATOM     13  C   UNL     1       8.737  16.225  19.788  0.00  0.00    +0.000 A 
ATOM     14  N   UNL     1       8.601  14.894  19.686  0.00  0.00    +0.000 NA
ATOM     15  C   UNL     1       9.526  14.192  18.967  0.00  0.00    +0.000 A 
ATOM     16  C   UNL     1      10.563  14.894  18.319  0.00  0.00    +0.000 A 
ATOM     17  H   UNL     1      11.870  17.794  17.923  0.00  0.00    +0.000 HD
ENDBRANCH   1  15
BRANCH   4  18
ATOM     18  N   UNL     1       8.794   8.519  18.882  0.00  0.00    +0.000 N 
ATOM     19  C   UNL     1       7.893   7.883  18.051  0.00  0.00    +0.000 C 
ATOM     20  O   UNL     1       7.309   8.420  17.114  0.00  0.00    +0.000 OA
ATOM     21  N   UNL     1       7.701   6.561  18.426  0.00  0.00    +0.000 N 
ATOM     22  H   UNL     1       9.519   7.935  19.276  0.00  0.00    +0.000 HD
ATOM     23  H   UNL     1       7.780   6.395  19.419  0.00  0.00    +0.000 HD
BRANCH  21  24
ATOM     24  C   UNL     1       6.834   5.711  17.703  0.00  0.00    +0.000 A 
ATOM     25  C   UNL     1       7.300   4.920  16.644  0.00  0.00    +0.000 A 
ATOM     26  C   UNL     1       6.425   4.105  15.923  0.00  0.00    +0.000 A 
ATOM     27  C   UNL     1       5.073   4.087  16.252  0.00  0.00    +0.000 A 
ATOM     28  C   UNL     1       4.615   4.874  17.304  0.00  0.00    +0.000 A 
ATOM     29  F   UNL     1       3.309   4.879  17.598  0.00  0.00    +0.000 F 
ATOM     30  C   UNL     1       5.484   5.670  18.047  0.00  0.00    +0.000 A 
ENDBRANCH  21  24
ENDBRANCH   4  18
TORSDOF 3
ENDMDL
MODEL 4
REMARK VINA RESULT:      -8.6      0.912      1.021
REMARK  Name = 
REMARK  4 active torsions:
REMARK  status: ('A' for Active; 'I' for Inactive)
REMARK    1  A    between atoms: C_1  and  C_2
REMARK    2  A    between atoms: C_9  and  C_10
REMARK    3  A    between atoms: C_13  and  N_14
REMARK    4  A    between atoms: N_17  and  C_18
REMARK                            x       y       z     vdW  Elec       q    Type
REMARK                         _______ _______ _______ _____ _____    ______ ____
ROOT
ATOM      1  C   UNL     1       5.030   5.105  18.091  0.00  0.00    +0.000 A 
ATOM      2  C   UNL     1       6.265   5.177  18.758  0.00  0.00    +0.000 A 
ATOM      3  C   UNL     1       7.185   6.193  18.479  0.00  0.00    +0.000 A 
ATOM      4  C   UNL     1       6.915   7.150  17.498  0.00  0.00    +0.000 A 
ATOM      5  C   UNL     1       5.682   7.116  16.851  0.00  0.00    +0.000 A 
ATOM      6  C   UNL     1       4.746   6.125  17.175  0.00  0.00    +0.000 A 
ENDROOT
BRANCH   1  15
ATOM      7  C   UNL     1       2.435   6.692  19.885  0.00  0.00    +0.000 C 
ATOM      8  C   UNL     1       2.190   5.225  19.862  0.00  0.00    +0.000 A 
ATOM      9  C   UNL     1       1.121   4.615  20.508  0.00  0.00    +0.000 A 
ATOM     10  N   UNL     1       1.144   3.283  20.220  0.00  0.00    +0.000 N 
ATOM     11  C   UNL     1       2.207   3.004  19.412  0.00  0.00    +0.000 A 
ATOM     12  N   UNL     1       2.468   1.778  18.935  0.00  0.00    +0.000 NA
ATOM     13  C   UNL     1       3.560   1.772  18.161  0.00  0.00    +0.000 A 
ATOM     14  N   UNL     1       4.369   2.804  17.875  0.00  0.00    +0.000 NA
ATOM     15  C   UNL     1       4.082   4.030  18.405  0.00  0.00    +0.000 A 
ATOM     16  C   UNL     1       2.924   4.178  19.194  0.00  0.00    +0.000 A 
ATOM     17  H   UNL     1       0.480   2.588  20.527  0.00  0.00    +0.000 HD
ENDBRANCH   1  15
BRANCH   4  18
ATOM     18  N   UNL     1       7.820   8.183  17.175  0.00  0.00    +0.000 N 
ATOM     19  C   UNL     1       8.309   9.102  18.080  0.00  0.00    +0.000 C 
ATOM     20  O   UNL     1       8.190   9.012  19.299  0.00  0.00    +0.000 OA
ATOM     21  N   UNL     1       8.926  10.168  17.441  0.00  0.00    +0.000 N 
ATOM     22  H   UNL     1       8.337   8.096  16.311  0.00  0.00    +0.000 HD
ATOM     23  H   UNL     1       8.525  10.404  16.545  0.00  0.00    +0.000 HD
BRANCH  21  24
ATOM     24  C   UNL     1       9.519  11.221  18.174  0.00  0.00    +0.000 A 
ATOM     25  C   UNL     1       9.030  12.532  18.096  0.00  0.00    +0.000 A 
ATOM     26  C   UNL     1       9.645  13.565  18.807  0.00  0.00    +0.000 A 
ATOM     27  C   UNL     1      10.760  13.291  19.593  0.00  0.00    +0.000 A 
ATOM     28  C   UNL     1      11.240  11.988  19.667  0.00  0.00    +0.000 A 
ATOM     29  F   UNL     1      12.333  11.734  20.398  0.00  0.00    +0.000 F 
ATOM     30  C   UNL     1      10.620  10.945  18.982  0.00  0.00    +0.000 A 
ENDBRANCH  21  24
ENDBRANCH   4  18
TORSDOF 3
ENDMDL
MODEL 5
REMARK VINA RESULT:      -8.6      6.034      8.439
REMARK  Name = 
REMARK  4 active torsions:
REMARK  status: ('A' for Active; 'I' for Inactive)
REMARK    1  A    between atoms: C_1  and  C_2
REMARK    2  A    between atoms: C_9  and  C_10
REMARK    3  A    between atoms: C_13  and  N_14
REMARK    4  A    between atoms: N_17  and  C_18
REMARK                            x       y       z     vdW  Elec       q    Type
REMARK                         _______ _______ _______ _____ _____    ______ ____
ROOT
ATOM      1  C   UNL     1       2.630   6.547  18.585  0.00  0.00    +0.000 A 
ATOM      2  C   UNL     1       2.381   7.642  17.740  0.00  0.00    +0.000 A 
ATOM      3  C   UNL     1       1.880   8.849  18.240  0.00  0.00    +0.000 A 
ATOM      4  C   UNL     1       1.576   8.987  19.596  0.00  0.00    +0.000 A 
ATOM      5  C   UNL     1       1.848   7.926  20.455  0.00  0.00    +0.000 A 
ATOM      6  C   UNL     1       2.399   6.740  19.953  0.00  0.00    +0.000 A 
ENDROOT
BRANCH   1  15
ATOM      7  C   UNL     1       0.691   4.016  20.103  0.00  0.00    +0.000 C 
ATOM      8  C   UNL     1       1.762   3.389  19.283  0.00  0.00    +0.000 A 
ATOM      9  C   UNL     1       1.962   2.016  19.203  0.00  0.00    +0.000 A 
ATOM     10  N   UNL     1       2.964   1.776  18.310  0.00  0.00    +0.000 N 
ATOM     11  C   UNL     1       3.431   2.957  17.813  0.00  0.00    +0.000 A 
ATOM     12  N   UNL     1       4.398   3.036  16.887  0.00  0.00    +0.000 NA
ATOM     13  C   UNL     1       4.668   4.306  16.562  0.00  0.00    +0.000 A 
ATOM     14  N   UNL     1       4.118   5.418  17.073  0.00  0.00    +0.000 NA
ATOM     15  C   UNL     1       3.157   5.294  18.035  0.00  0.00    +0.000 A 
ATOM     16  C   UNL     1       2.744   4.003  18.424  0.00  0.00    +0.000 A 
ATOM     17  H   UNL     1       3.315   0.874  18.025  0.00  0.00    +0.000 HD
ENDBRANCH   1  15
BRANCH   4  18
ATOM     18  N   UNL     1       1.056  10.181  20.140  0.00  0.00    +0.000 N 
ATOM     19  C   UNL     1      -0.243  10.336  20.579  0.00  0.00    +0.000 C 
ATOM     20  O   UNL     1      -1.038   9.414  20.748  0.00  0.00    +0.000 OA
ATOM     21  N   UNL     1      -0.558  11.673  20.776  0.00  0.00    +0.000 N 
ATOM     22  H   UNL     1       1.718  10.871  20.467  0.00  0.00    +0.000 HD
ATOM     23  H   UNL     1      -0.085  12.308  20.149  0.00  0.00    +0.000 HD
BRANCH  21  24
ATOM     24  C   UNL     1      -1.832  12.066  21.246  0.00  0.00    +0.000 A 
ATOM     25  C   UNL     1      -2.822  12.532  20.370  0.00  0.00    +0.000 A 
ATOM     26  C   UNL     1      -4.066  12.942  20.854  0.00  0.00    +0.000 A 
ATOM     27  C   UNL     1      -4.322  12.896  22.221  0.00  0.00    +0.000 A 
ATOM     28  C   UNL     1      -3.336  12.432  23.085  0.00  0.00    +0.000 A 
ATOM     29  F   UNL     1      -3.573  12.420  24.403  0.00  0.00    +0.000 F 
ATOM     30  C   UNL     1      -2.100  11.997  22.611  0.00  0.00    +0.000 A 
ENDBRANCH  21  24
ENDBRANCH   4  18
TORSDOF 3
ENDMDL
MODEL 6
REMARK VINA RESULT:      -8.6      6.395      9.188
REMARK  Name = 
REMARK  4 active torsions:
REMARK  status: ('A' for Active; 'I' for Inactive)
REMARK    1  A    between atoms: C_1  and  C_2
REMARK    2  A    between atoms: C_9  and  C_10
REMARK    3  A    between atoms: C_13  and  N_14
REMARK    4  A    between atoms: N_17  and  C_18
REMARK                            x       y       z     vdW  Elec       q    Type
REMARK                         _______ _______ _______ _____ _____    ______ ____
ROOT
ATOM      1  C   UNL     1       2.816   7.089  18.957  0.00  0.00    +0.000 A 
ATOM      2  C   UNL     1       2.582   7.885  17.822  0.00  0.00    +0.000 A 
ATOM      3  C   UNL     1       1.727   8.991  17.873  0.00  0.00    +0.000 A 
ATOM      4  C   UNL     1       1.049   9.315  19.049  0.00  0.00    +0.000 A 
ATOM      5  C   UNL     1       1.294   8.561  20.193  0.00  0.00    +0.000 A 
ATOM      6  C   UNL     1       2.192   7.486  20.146  0.00  0.00    +0.000 A 
ENDROOT
BRANCH   1  15
ATOM      7  C   UNL     1       1.024   4.444  20.460  0.00  0.00    +0.000 C 
ATOM      8  C   UNL     1       2.397   3.979  20.125  0.00  0.00    +0.000 A 
ATOM      9  C   UNL     1       2.871   2.707  20.427  0.00  0.00    +0.000 A 
ATOM     10  N   UNL     1       4.128   2.581  19.913  0.00  0.00    +0.000 N 
ATOM     11  C   UNL     1       4.491   3.742  19.294  0.00  0.00    +0.000 A 
ATOM     12  N   UNL     1       5.664   3.904  18.665  0.00  0.00    +0.000 NA
ATOM     13  C   UNL     1       5.773   5.128  18.133  0.00  0.00    +0.000 A 
ATOM     14  N   UNL     1       4.889   6.135  18.203  0.00  0.00    +0.000 NA
ATOM     15  C   UNL     1       3.719   5.936  18.878  0.00  0.00    +0.000 A 
ATOM     16  C   UNL     1       3.460   4.667  19.437  0.00  0.00    +0.000 A 
ATOM     17  H   UNL     1       4.716   1.763  19.952  0.00  0.00    +0.000 HD
ENDBRANCH   1  15
BRANCH   4  18
ATOM     18  N   UNL     1       0.167  10.413  19.140  0.00  0.00    +0.000 N 
ATOM     19  C   UNL     1      -1.180  10.357  18.848  0.00  0.00    +0.000 C 
ATOM     20  O   UNL     1      -1.815   9.318  18.682  0.00  0.00    +0.000 OA
ATOM     21  N   UNL     1      -1.730  11.625  18.731  0.00  0.00    +0.000 N 
ATOM     22  H   UNL     1       0.467  11.208  19.688  0.00  0.00    +0.000 HD
ATOM     23  H   UNL     1      -1.094  12.322  18.369  0.00  0.00    +0.000 HD
BRANCH  21  24
ATOM     24  C   UNL     1      -3.104  11.808  18.455  0.00  0.00    +0.000 A 
ATOM     25  C   UNL     1      -3.641  11.521  17.192  0.00  0.00    +0.000 A 
ATOM     26  C   UNL     1      -4.996  11.733  16.929  0.00  0.00    +0.000 A 
ATOM     27  C   UNL     1      -5.819  12.243  17.927  0.00  0.00    +0.000 A 
ATOM     28  C   UNL     1      -5.281  12.525  19.179  0.00  0.00    +0.000 A 
ATOM     29  F   UNL     1      -6.069  13.047  20.128  0.00  0.00    +0.000 F 
ATOM     30  C   UNL     1      -3.937  12.294  19.460  0.00  0.00    +0.000 A 
ENDBRANCH  21  24
ENDBRANCH   4  18
TORSDOF 3
ENDMDL
MODEL 7
REMARK VINA RESULT:      -8.6      5.803      8.035
REMARK  Name = 
REMARK  4 active torsions:
REMARK  status: ('A' for Active; 'I' for Inactive)
REMARK    1  A    between atoms: C_1  and  C_2
REMARK    2  A    between atoms: C_9  and  C_10
REMARK    3  A    between atoms: C_13  and  N_14
REMARK    4  A    between atoms: N_17  and  C_18
REMARK                            x       y       z     vdW  Elec       q    Type
REMARK                         _______ _______ _______ _____ _____    ______ ____
ROOT
ATOM      1  C   UNL     1       3.075   6.936  18.880  0.00  0.00    +0.000 A 
ATOM      2  C   UNL     1       2.300   6.996  20.051  0.00  0.00    +0.000 A 
ATOM      3  C   UNL     1       1.375   8.024  20.260  0.00  0.00    +0.000 A 
ATOM      4  C   UNL     1       1.220   9.046  19.322  0.00  0.00    +0.000 A 
ATOM      5  C   UNL     1       1.953   8.986  18.139  0.00  0.00    +0.000 A 
ATOM      6  C   UNL     1       2.839   7.924  17.916  0.00  0.00    +0.000 A 
ENDROOT
BRANCH   1  15
ATOM      7  C   UNL     1       1.142   4.242  17.669  0.00  0.00    +0.000 C 
ATOM      8  C   UNL     1       2.541   3.784  17.885  0.00  0.00    +0.000 A 
ATOM      9  C   UNL     1       2.960   2.475  17.680  0.00  0.00    +0.000 A 
ATOM     10  N   UNL     1       4.306   2.414  17.887  0.00  0.00    +0.000 N 
ATOM     11  C   UNL     1       4.775   3.648  18.234  0.00  0.00    +0.000 A 
ATOM     12  N   UNL     1       6.070   3.904  18.468  0.00  0.00    +0.000 NA
ATOM     13  C   UNL     1       6.270   5.190  18.782  0.00  0.00    +0.000 A 
ATOM     14  N   UNL     1       5.348   6.157  18.905  0.00  0.00    +0.000 NA
ATOM     15  C   UNL     1       4.037   5.846  18.685  0.00  0.00    +0.000 A 
ATOM     16  C   UNL     1       3.703   4.534  18.293  0.00  0.00    +0.000 A 
ATOM     17  H   UNL     1       4.896   1.601  17.789  0.00  0.00    +0.000 HD
ENDBRANCH   1  15
BRANCH   4  18
ATOM     18  N   UNL     1       0.309  10.109  19.498  0.00  0.00    +0.000 N 
ATOM     19  C   UNL     1       0.233  10.890  20.633  0.00  0.00    +0.000 C 
ATOM     20  O   UNL     1       1.072  10.900  21.531  0.00  0.00    +0.000 OA
ATOM     21  N   UNL     1      -0.931  11.644  20.656  0.00  0.00    +0.000 N 
ATOM     22  H   UNL     1      -0.130  10.489  18.671  0.00  0.00    +0.000 HD
ATOM     23  H   UNL     1      -1.722  11.201  20.212  0.00  0.00    +0.000 HD
BRANCH  21  24
ATOM     24  C   UNL     1      -1.209  12.535  21.718  0.00  0.00    +0.000 A 
ATOM     25  C   UNL     1      -0.425  13.675  21.940  0.00  0.00    +0.000 A 
ATOM     26  C   UNL     1      -0.698  14.531  23.010  0.00  0.00    +0.000 A 
ATOM     27  C   UNL     1      -1.753  14.241  23.870  0.00  0.00    +0.000 A 
ATOM     28  C   UNL     1      -2.528  13.108  23.644  0.00  0.00    +0.000 A 
ATOM     29  F   UNL     1      -3.522  12.815  24.492  0.00  0.00    +0.000 F 
ATOM     30  C   UNL     1      -2.281  12.262  22.565  0.00  0.00    +0.000 A 
ENDBRANCH  21  24
ENDBRANCH   4  18
TORSDOF 3
ENDMDL
MODEL 8
REMARK VINA RESULT:      -8.5      5.750      8.519
REMARK  Name = 
REMARK  4 active torsions:
REMARK  status: ('A' for Active; 'I' for Inactive)
REMARK    1  A    between atoms: C_1  and  C_2
REMARK    2  A    between atoms: C_9  and  C_10
REMARK    3  A    between atoms: C_13  and  N_14
REMARK    4  A    between atoms: N_17  and  C_18
REMARK                            x       y       z     vdW  Elec       q    Type
REMARK                         _______ _______ _______ _____ _____    ______ ____
ROOT
ATOM      1  C   UNL     1       2.544   6.315  18.622  0.00  0.00    +0.000 A 
ATOM      2  C   UNL     1       2.328   7.336  17.680  0.00  0.00    +0.000 A 
ATOM      3  C   UNL     1       1.860   8.596  18.067  0.00  0.00    +0.000 A 
ATOM      4  C   UNL     1       1.558   8.866  19.404  0.00  0.00    +0.000 A 
ATOM      5  C   UNL     1       1.798   7.879  20.356  0.00  0.00    +0.000 A 
ATOM      6  C   UNL     1       2.317   6.637  19.966  0.00  0.00    +0.000 A 
ENDROOT
BRANCH   1  15
ATOM      7  C   UNL     1       5.729   6.966  17.244  0.00  0.00    +0.000 C 
ATOM      8  C   UNL     1       5.391   5.531  17.044  0.00  0.00    +0.000 A 
ATOM      9  C   UNL     1       6.211   4.637  16.364  0.00  0.00    +0.000 A 
ATOM     10  N   UNL     1       5.650   3.397  16.433  0.00  0.00    +0.000 N 
ATOM     11  C   UNL     1       4.478   3.459  17.130  0.00  0.00    +0.000 A 
ATOM     12  N   UNL     1       3.717   2.386  17.389  0.00  0.00    +0.000 NA
ATOM     13  C   UNL     1       2.627   2.712  18.095  0.00  0.00    +0.000 A 
ATOM     14  N   UNL     1       2.248   3.934  18.500  0.00  0.00    +0.000 NA
ATOM     15  C   UNL     1       3.038   5.003  18.190  0.00  0.00    +0.000 A 
ATOM     16  C   UNL     1       4.245   4.782  17.496  0.00  0.00    +0.000 A 
ATOM     17  H   UNL     1       6.027   2.541  16.054  0.00  0.00    +0.000 HD
ENDBRANCH   1  15
BRANCH   4  18
ATOM     18  N   UNL     1       1.071  10.117  19.836  0.00  0.00    +0.000 N 
ATOM     19  C   UNL     1      -0.185  10.322  20.371  0.00  0.00    +0.000 C 
ATOM     20  O   UNL     1      -0.944   9.427  20.732  0.00  0.00    +0.000 OA
ATOM     21  N   UNL     1      -0.502  11.672  20.423  0.00  0.00    +0.000 N 
ATOM     22  H   UNL     1       1.748  10.847  20.007  0.00  0.00    +0.000 HD
ATOM     23  H   UNL     1      -0.100  12.222  19.677  0.00  0.00    +0.000 HD
BRANCH  21  24
ATOM     24  C   UNL     1      -1.733  12.117  20.955  0.00  0.00    +0.000 A 
ATOM     25  C   UNL     1      -2.772  12.560  20.124  0.00  0.00    +0.000 A 
ATOM     26  C   UNL     1      -3.972  13.022  20.668  0.00  0.00    +0.000 A 
ATOM     27  C   UNL     1      -4.135  13.052  22.049  0.00  0.00    +0.000 A 
ATOM     28  C   UNL     1      -3.102  12.610  22.869  0.00  0.00    +0.000 A 
ATOM     29  F   UNL     1      -3.249  12.671  24.199  0.00  0.00    +0.000 F 
ATOM     30  C   UNL     1      -1.910  12.124  22.337  0.00  0.00    +0.000 A 
ENDBRANCH  21  24
ENDBRANCH   4  18
TORSDOF 3
ENDMDL
MODEL 9
REMARK VINA RESULT:      -8.5      5.849      8.563
REMARK  Name = 
REMARK  4 active torsions:
REMARK  status: ('A' for Active; 'I' for Inactive)
REMARK    1  A    between atoms: C_1  and  C_2
REMARK    2  A    between atoms: C_9  and  C_10
REMARK    3  A    between atoms: C_13  and  N_14
REMARK    4  A    between atoms: N_17  and  C_18
REMARK                            x       y       z     vdW  Elec       q    Type
REMARK                         _______ _______ _______ _____ _____    ______ ____
ROOT
ATOM      1  C   UNL     1       2.541   6.299  18.624  0.00  0.00    +0.000 A 
ATOM      2  C   UNL     1       2.253   6.528  19.981  0.00  0.00    +0.000 A 
ATOM      3  C   UNL     1       1.769   7.763  20.423  0.00  0.00    +0.000 A 
ATOM      4  C   UNL     1       1.592   8.822  19.530  0.00  0.00    +0.000 A 
ATOM      5  C   UNL     1       1.838   8.605  18.177  0.00  0.00    +0.000 A 
ATOM      6  C   UNL     1       2.273   7.348  17.736  0.00  0.00    +0.000 A 
ENDROOT
BRANCH   1  15
ATOM      7  C   UNL     1       5.707   6.989  17.221  0.00  0.00    +0.000 C 
ATOM      8  C   UNL     1       5.384   5.550  17.021  0.00  0.00    +0.000 A 
ATOM      9  C   UNL     1       6.208   4.667  16.333  0.00  0.00    +0.000 A 
ATOM     10  N   UNL     1       5.662   3.420  16.405  0.00  0.00    +0.000 N 
ATOM     11  C   UNL     1       4.496   3.468  17.111  0.00  0.00    +0.000 A 
ATOM     12  N   UNL     1       3.750   2.385  17.375  0.00  0.00    +0.000 NA
ATOM     13  C   UNL     1       2.662   2.698  18.090  0.00  0.00    +0.000 A 
ATOM     14  N   UNL     1       2.272   3.914  18.501  0.00  0.00    +0.000 NA
ATOM     15  C   UNL     1       3.046   4.994  18.186  0.00  0.00    +0.000 A 
ATOM     16  C   UNL     1       4.250   4.788  17.482  0.00  0.00    +0.000 A 
ATOM     17  H   UNL     1       6.047   2.570  16.021  0.00  0.00    +0.000 HD
ENDBRANCH   1  15
BRANCH   4  18
ATOM     18  N   UNL     1       1.119  10.088  19.936  0.00  0.00    +0.000 N 
ATOM     19  C   UNL     1      -0.058  10.296  20.626  0.00  0.00    +0.000 C 
ATOM     20  O   UNL     1      -0.725   9.409  21.152  0.00  0.00    +0.000 OA
ATOM     21  N   UNL     1      -0.418  11.636  20.625  0.00  0.00    +0.000 N 
ATOM     22  H   UNL     1       1.784  10.848  19.958  0.00  0.00    +0.000 HD
ATOM     23  H   UNL     1      -0.145  12.139  19.793  0.00  0.00    +0.000 HD
BRANCH  21  24
ATOM     24  C   UNL     1      -1.582  12.084  21.291  0.00  0.00    +0.000 A 
ATOM     25  C   UNL     1      -1.661  12.105  22.691  0.00  0.00    +0.000 A 
ATOM     26  C   UNL     1      -2.827  12.527  23.332  0.00  0.00    +0.000 A 
ATOM     27  C   UNL     1      -3.926  12.920  22.574  0.00  0.00    +0.000 A 
ATOM     28  C   UNL     1      -3.842  12.897  21.186  0.00  0.00    +0.000 A 
ATOM     29  F   UNL     1      -4.912  13.245  20.459  0.00  0.00    +0.000 F 
ATOM     30  C   UNL     1      -2.675  12.503  20.535  0.00  0.00    +0.000 A 
ENDBRANCH  21  24
ENDBRANCH   4  18
TORSDOF 3
ENDMDL
