MODEL 1
REMARK VINA RESULT:      -7.7      0.000      0.000
REMARK  Name = 
REMARK  7 active torsions:
REMARK  status: ('A' for Active; 'I' for Inactive)
REMARK    1  A    between atoms: C_1  and  O_2
REMARK    2  A    between atoms: O_2  and  C_3
REMARK    3  A    between atoms: C_8  and  C_9
REMARK    4  A    between atoms: C_12  and  C_13
REMARK    5  A    between atoms: C_13  and  C_14
REMARK    6  A    between atoms: C_14  and  C_15
REMARK    7  A    between atoms: N_17  and  C_18
REMARK                            x       y       z     vdW  Elec       q    Type
REMARK                         _______ _______ _______ _____ _____    ______ ____
ROOT
ATOM      1  C   UNL     1       4.769   4.150  19.210  0.00  0.00    +0.000 A 
ATOM      2  N   UNL     1       5.246   3.460  18.161  0.00  0.00    +0.000 NA
ATOM      3  O   UNL     1       6.412   4.137  17.812  0.00  0.00    +0.000 OA
ATOM      4  C   UNL     1       6.533   5.174  18.684  0.00  0.00    +0.000 A 
ATOM      5  N   UNL     1       5.572   5.223  19.571  0.00  0.00    +0.000 NA
ENDROOT
BRANCH   1  11
ATOM      6  C   UNL     1       2.376   4.790  19.754  0.00  0.00    +0.000 A 
ATOM      7  C   UNL     1       1.189   4.488  20.441  0.00  0.00    +0.000 A 
ATOM      8  C   UNL     1       1.106   3.367  21.269  0.00  0.00    +0.000 A 
ATOM      9  C   UNL     1       2.196   2.519  21.400  0.00  0.00    +0.000 A 
ATOM     10  C   UNL     1       3.368   2.791  20.698  0.00  0.00    +0.000 A 
ATOM     11  C   UNL     1       3.482   3.925  19.867  0.00  0.00    +0.000 A 
BRANCH   6  13
ATOM     12  C   UNL     1       2.339   7.144  19.550  0.00  0.00    +0.000 C 
ATOM     13  O   UNL     1       2.461   5.873  18.916  0.00  0.00    +0.000 OA
ENDBRANCH   6  13
ENDBRANCH   1  11
BRANCH   4  14
ATOM     14  C   UNL     1       7.634   6.126  18.436  0.00  0.00    +0.000 C 
BRANCH  14  15
ATOM     15  C   UNL     1       7.251   7.236  17.458  0.00  0.00    +0.000 C 
BRANCH  15  16
ATOM     16  C   UNL     1       6.667   6.612  16.209  0.00  0.00    +0.000 C 
ATOM     17  O   UNL     1       5.519   6.870  15.852  0.00  0.00    +0.000 OA
ATOM     18  N   UNL     1       7.536   5.756  15.558  0.00  0.00    +0.000 N 
ATOM     19  H   UNL     1       8.401   5.517  16.029  0.00  0.00    +0.000 HD
BRANCH  18  20
ATOM     20  C   UNL     1       7.233   5.031  14.379  0.00  0.00    +0.000 A 
ATOM     21  C   UNL     1       7.804   5.301  13.136  0.00  0.00    +0.000 A 
ATOM     22  C   UNL     1       7.399   4.589  12.009  0.00  0.00    +0.000 A 
ATOM     23  C   UNL     1       6.437   3.605  12.162  0.00  0.00    +0.000 A 
ATOM     24  N   UNL     1       5.890   3.278  13.353  0.00  0.00    +0.000 NA
ATOM     25  C   UNL     1       6.306   3.992  14.429  0.00  0.00    +0.000 A 
ENDBRANCH  18  20
ENDBRANCH  15  16
ENDBRANCH  14  15
ENDBRANCH   4  14
TORSDOF 6
ENDMDL
MODEL 2
REMARK VINA RESULT:      -7.6      3.727      5.784
REMARK  Name = 
REMARK  7 active torsions:
REMARK  status: ('A' for Active; 'I' for Inactive)
REMARK    1  A    between atoms: C_1  and  O_2
REMARK    2  A    between atoms: O_2  and  C_3
REMARK    3  A    between atoms: C_8  and  C_9
REMARK    4  A    between atoms: C_12  and  C_13
REMARK    5  A    between atoms: C_13  and  C_14
REMARK    6  A    between atoms: C_14  and  C_15
REMARK    7  A    between atoms: N_17  and  C_18
REMARK                            x       y       z     vdW  Elec       q    Type
REMARK                         _______ _______ _______ _____ _____    ______ ____
ROOT
ATOM      1  C   UNL     1       4.676   4.659  19.128  0.00  0.00    +0.000 A 
ATOM      2  N   UNL     1       5.776   3.901  19.267  0.00  0.00    +0.000 NA
ATOM      3  O   UNL     1       6.797   4.687  18.737  0.00  0.00    +0.000 OA
ATOM      4  C   UNL     1       6.218   5.850  18.328  0.00  0.00    +0.000 A 
ATOM      5  N   UNL     1       4.930   5.898  18.558  0.00  0.00    +0.000 NA
ENDROOT
BRANCH   1  11
ATOM      6  C   UNL     1       2.649   3.184  18.738  0.00  0.00    +0.000 A 
ATOM      7  C   UNL     1       1.324   2.868  19.078  0.00  0.00    +0.000 A 
ATOM      8  C   UNL     1       0.634   3.607  20.041  0.00  0.00    +0.000 A 
ATOM      9  C   UNL     1       1.266   4.653  20.696  0.00  0.00    +0.000 A 
ATOM     10  C   UNL     1       2.592   4.956  20.391  0.00  0.00    +0.000 A 
ATOM     11  C   UNL     1       3.305   4.234  19.411  0.00  0.00    +0.000 A 
BRANCH   6  13
ATOM     12  C   UNL     1       3.773   1.162  18.258  0.00  0.00    +0.000 C 
ATOM     13  O   UNL     1       3.346   2.448  17.814  0.00  0.00    +0.000 OA
ENDBRANCH   6  13
ENDBRANCH   1  11
BRANCH   4  14
ATOM     14  C   UNL     1       7.082   6.805  17.607  0.00  0.00    +0.000 C 
BRANCH  14  15
ATOM     15  C   UNL     1       8.223   7.343  18.469  0.00  0.00    +0.000 C 
BRANCH  15  16
ATOM     16  C   UNL     1       8.307   8.844  18.295  0.00  0.00    +0.000 C 
ATOM     17  O   UNL     1       7.568   9.431  17.507  0.00  0.00    +0.000 OA
ATOM     18  N   UNL     1       9.273   9.441  19.085  0.00  0.00    +0.000 N 
ATOM     19  H   UNL     1       9.913   8.833  19.585  0.00  0.00    +0.000 HD
BRANCH  18  20
ATOM     20  C   UNL     1       9.569  10.827  19.100  0.00  0.00    +0.000 A 
ATOM     21  C   UNL     1      10.109  11.515  18.015  0.00  0.00    +0.000 A 
ATOM     22  C   UNL     1      10.439  12.864  18.135  0.00  0.00    +0.000 A 
ATOM     23  C   UNL     1      10.201  13.495  19.343  0.00  0.00    +0.000 A 
ATOM     24  N   UNL     1       9.637  12.881  20.405  0.00  0.00    +0.000 NA
ATOM     25  C   UNL     1       9.330  11.568  20.255  0.00  0.00    +0.000 A 
ENDBRANCH  18  20
ENDBRANCH  15  16
ENDBRANCH  14  15
ENDBRANCH   4  14
TORSDOF 6
ENDMDL
MODEL 3
REMARK VINA RESULT:      -7.6      4.634      6.591
REMARK  Name = 
REMARK  7 active torsions:
REMARK  status: ('A' for Active; 'I' for Inactive)
REMARK    1  A    between atoms: C_1  and  O_2
REMARK    2  A    between atoms: O_2  and  C_3
REMARK    3  A    between atoms: C_8  and  C_9
REMARK    4  A    between atoms: C_12  and  C_13
REMARK    5  A    between atoms: C_13  and  C_14
REMARK    6  A    between atoms: C_14  and  C_15
REMARK    7  A    between atoms: N_17  and  C_18
REMARK                            x       y       z     vdW  Elec       q    Type
REMARK                         _______ _______ _______ _____ _____    ______ ____
ROOT
ATOM      1  C   UNL     1       5.782   5.603  17.241  0.00  0.00    +0.000 A 
ATOM      2  N   UNL     1       6.437   5.793  16.084  0.00  0.00    +0.000 NA
ATOM      3  O   UNL     1       7.501   6.622  16.430  0.00  0.00    +0.000 OA
ATOM      4  C   UNL     1       7.392   6.855  17.767  0.00  0.00    +0.000 A 
ATOM      5  N   UNL     1       6.373   6.245  18.319  0.00  0.00    +0.000 NA
ENDROOT
BRANCH   1  11
ATOM      6  C   UNL     1       3.315   5.529  17.829  0.00  0.00    +0.000 A 
ATOM      7  C   UNL     1       2.145   4.765  17.957  0.00  0.00    +0.000 A 
ATOM      8  C   UNL     1       2.152   3.392  17.702  0.00  0.00    +0.000 A 
ATOM      9  C   UNL     1       3.321   2.770  17.290  0.00  0.00    +0.000 A 
ATOM     10  C   UNL     1       4.482   3.524  17.128  0.00  0.00    +0.000 A 
ATOM     11  C   UNL     1       4.503   4.909  17.394  0.00  0.00    +0.000 A 
BRANCH   6  13
ATOM     12  C   UNL     1       2.439   7.330  19.084  0.00  0.00    +0.000 C 
ATOM     13  O   UNL     1       3.314   6.883  18.050  0.00  0.00    +0.000 OA
ENDBRANCH   6  13
ENDBRANCH   1  11
BRANCH   4  14
ATOM     14  C   UNL     1       8.341   7.822  18.354  0.00  0.00    +0.000 C 
BRANCH  14  15
ATOM     15  C   UNL     1       8.157   9.239  17.811  0.00  0.00    +0.000 C 
BRANCH  15  16
ATOM     16  C   UNL     1       9.011  10.192  18.619  0.00  0.00    +0.000 C 
ATOM     17  O   UNL     1       9.265   9.964  19.800  0.00  0.00    +0.000 OA
ATOM     18  N   UNL     1       9.440  11.296  17.905  0.00  0.00    +0.000 N 
ATOM     19  H   UNL     1       9.044  11.440  16.982  0.00  0.00    +0.000 HD
BRANCH  18  20
ATOM     20  C   UNL     1      10.234  12.345  18.428  0.00  0.00    +0.000 A 
ATOM     21  C   UNL     1      11.627  12.313  18.474  0.00  0.00    +0.000 A 
ATOM     22  C   UNL     1      12.333  13.355  19.072  0.00  0.00    +0.000 A 
ATOM     23  C   UNL     1      11.619  14.418  19.596  0.00  0.00    +0.000 A 
ATOM     24  N   UNL     1      10.273  14.514  19.534  0.00  0.00    +0.000 NA
ATOM     25  C   UNL     1       9.617  13.482  18.947  0.00  0.00    +0.000 A 
ENDBRANCH  18  20
ENDBRANCH  15  16
ENDBRANCH  14  15
ENDBRANCH   4  14
TORSDOF 6
ENDMDL
MODEL 4
REMARK VINA RESULT:      -7.6      2.191      6.744
REMARK  Name = 
REMARK  7 active torsions:
REMARK  status: ('A' for Active; 'I' for Inactive)
REMARK    1  A    between atoms: C_1  and  O_2
REMARK    2  A    between atoms: O_2  and  C_3
REMARK    3  A    between atoms: C_8  and  C_9
REMARK    4  A    between atoms: C_12  and  C_13
REMARK    5  A    between atoms: C_13  and  C_14
REMARK    6  A    between atoms: C_14  and  C_15
REMARK    7  A    between atoms: N_17  and  C_18
REMARK                            x       y       z     vdW  Elec       q    Type
REMARK                         _______ _______ _______ _____ _____    ______ ____
ROOT
ATOM      1  C   UNL     1       4.090   3.599  17.480  0.00  0.00    +0.000 A 
ATOM      2  N   UNL     1       2.927   3.087  17.044  0.00  0.00    +0.000 NA
ATOM      3  O   UNL     1       2.279   2.681  18.207  0.00  0.00    +0.000 OA
ATOM      4  C   UNL     1       3.110   2.986  19.241  0.00  0.00    +0.000 A 
ATOM      5  N   UNL     1       4.221   3.565  18.861  0.00  0.00    +0.000 NA
ENDROOT
BRANCH   1  11
ATOM      6  C   UNL     1       6.399   4.589  17.131  0.00  0.00    +0.000 A 
ATOM      7  C   UNL     1       7.394   5.001  16.230  0.00  0.00    +0.000 A 
ATOM      8  C   UNL     1       7.192   4.919  14.851  0.00  0.00    +0.000 A 
ATOM      9  C   UNL     1       6.006   4.400  14.354  0.00  0.00    +0.000 A 
ATOM     10  C   UNL     1       5.024   3.958  15.239  0.00  0.00    +0.000 A 
ATOM     11  C   UNL     1       5.198   4.045  16.635  0.00  0.00    +0.000 A 
BRANCH   6  13
ATOM     12  C   UNL     1       7.620   5.533  18.921  0.00  0.00    +0.000 C 
ATOM     13  O   UNL     1       6.597   4.638  18.488  0.00  0.00    +0.000 OA
ENDBRANCH   6  13
ENDBRANCH   1  11
BRANCH   4  14
ATOM     14  C   UNL     1       2.697   2.530  20.583  0.00  0.00    +0.000 C 
BRANCH  14  15
ATOM     15  C   UNL     1       2.438   3.685  21.550  0.00  0.00    +0.000 C 
BRANCH  15  16
ATOM     16  C   UNL     1       1.745   4.806  20.804  0.00  0.00    +0.000 C 
ATOM     17  O   UNL     1       0.551   4.732  20.520  0.00  0.00    +0.000 OA
ATOM     18  N   UNL     1       2.580   5.863  20.492  0.00  0.00    +0.000 N 
ATOM     19  H   UNL     1       3.573   5.741  20.655  0.00  0.00    +0.000 HD
BRANCH  18  20
ATOM     20  C   UNL     1       2.190   7.027  19.784  0.00  0.00    +0.000 A 
ATOM     21  C   UNL     1       2.449   7.232  18.430  0.00  0.00    +0.000 A 
ATOM     22  C   UNL     1       2.095   8.436  17.823  0.00  0.00    +0.000 A 
ATOM     23  C   UNL     1       1.470   9.402  18.592  0.00  0.00    +0.000 A 
ATOM     24  N   UNL     1       1.158   9.229  19.894  0.00  0.00    +0.000 NA
ATOM     25  C   UNL     1       1.518   8.047  20.454  0.00  0.00    +0.000 A 
ENDBRANCH  18  20
ENDBRANCH  15  16
ENDBRANCH  14  15
ENDBRANCH   4  14
TORSDOF 6
ENDMDL
MODEL 5
REMARK VINA RESULT:      -7.5      0.940      1.281
REMARK  Name = 
REMARK  7 active torsions:
REMARK  status: ('A' for Active; 'I' for Inactive)
REMARK    1  A    between atoms: C_1  and  O_2
REMARK    2  A    between atoms: O_2  and  C_3
REMARK    3  A    between atoms: C_8  and  C_9
REMARK    4  A    between atoms: C_12  and  C_13
REMARK    5  A    between atoms: C_13  and  C_14
REMARK    6  A    between atoms: C_14  and  C_15
REMARK    7  A    between atoms: N_17  and  C_18
REMARK                            x       y       z     vdW  Elec       q    Type
REMARK                         _______ _______ _______ _____ _____    ______ ____
ROOT
ATOM      1  C   UNL     1       4.616   3.833  19.114  0.00  0.00    +0.000 A 
ATOM      2  N   UNL     1       4.875   3.400  17.869  0.00  0.00    +0.000 NA
ATOM      3  O   UNL     1       6.059   4.047  17.525  0.00  0.00    +0.000 OA
ATOM      4  C   UNL     1       6.408   4.811  18.596  0.00  0.00    +0.000 A 
ATOM      5  N   UNL     1       5.576   4.707  19.602  0.00  0.00    +0.000 NA
ENDROOT
BRANCH   1  11
ATOM      6  C   UNL     1       2.160   4.174  19.651  0.00  0.00    +0.000 A 
ATOM      7  C   UNL     1       1.061   3.841  20.458  0.00  0.00    +0.000 A 
ATOM      8  C   UNL     1       1.193   2.937  21.513  0.00  0.00    +0.000 A 
ATOM      9  C   UNL     1       2.417   2.333  21.759  0.00  0.00    +0.000 A 
ATOM     10  C   UNL     1       3.508   2.630  20.944  0.00  0.00    +0.000 A 
ATOM     11  C   UNL     1       3.403   3.552  19.881  0.00  0.00    +0.000 A 
BRANCH   6  13
ATOM     12  C   UNL     1       1.474   4.477  17.409  0.00  0.00    +0.000 C 
ATOM     13  O   UNL     1       2.036   5.039  18.593  0.00  0.00    +0.000 OA
ENDBRANCH   6  13
ENDBRANCH   1  11
BRANCH   4  14
ATOM     14  C   UNL     1       7.573   5.702  18.426  0.00  0.00    +0.000 C 
BRANCH  14  15
ATOM     15  C   UNL     1       7.264   6.927  17.564  0.00  0.00    +0.000 C 
BRANCH  15  16
ATOM     16  C   UNL     1       6.649   6.469  16.259  0.00  0.00    +0.000 C 
ATOM     17  O   UNL     1       5.558   6.898  15.890  0.00  0.00    +0.000 OA
ATOM     18  N   UNL     1       7.423   5.550  15.573  0.00  0.00    +0.000 N 
ATOM     19  H   UNL     1       8.233   5.169  16.050  0.00  0.00    +0.000 HD
BRANCH  18  20
ATOM     20  C   UNL     1       7.072   4.951  14.339  0.00  0.00    +0.000 A 
ATOM     21  C   UNL     1       6.021   4.048  14.188  0.00  0.00    +0.000 A 
ATOM     22  C   UNL     1       5.784   3.446  12.954  0.00  0.00    +0.000 A 
ATOM     23  C   UNL     1       6.604   3.782  11.890  0.00  0.00    +0.000 A 
ATOM     24  N   UNL     1       7.604   4.685  11.978  0.00  0.00    +0.000 NA
ATOM     25  C   UNL     1       7.808   5.250  13.194  0.00  0.00    +0.000 A 
ENDBRANCH  18  20
ENDBRANCH  15  16
ENDBRANCH  14  15
ENDBRANCH   4  14
TORSDOF 6
ENDMDL
MODEL 6
REMARK VINA RESULT:      -7.5      0.734      1.089
REMARK  Name = 
REMARK  7 active torsions:
REMARK  status: ('A' for Active; 'I' for Inactive)
REMARK    1  A    between atoms: C_1  and  O_2
REMARK    2  A    between atoms: O_2  and  C_3
REMARK    3  A    between atoms: C_8  and  C_9
REMARK    4  A    between atoms: C_12  and  C_13
REMARK    5  A    between atoms: C_13  and  C_14
REMARK    6  A    between atoms: C_14  and  C_15
REMARK    7  A    between atoms: N_17  and  C_18
REMARK                            x       y       z     vdW  Elec       q    Type
REMARK                         _______ _______ _______ _____ _____    ______ ____
ROOT
ATOM      1  C   UNL     1       4.881   4.260  19.341  0.00  0.00    +0.000 A 
ATOM      2  N   UNL     1       5.584   3.357  18.638  0.00  0.00    +0.000 NA
ATOM      3  O   UNL     1       6.768   4.019  18.323  0.00  0.00    +0.000 OA
ATOM      4  C   UNL     1       6.672   5.263  18.867  0.00  0.00    +0.000 A 
ATOM      5  N   UNL     1       5.552   5.462  19.516  0.00  0.00    +0.000 NA
ENDROOT
BRANCH   1  11
ATOM      6  C   UNL     1       2.623   5.178  20.044  0.00  0.00    +0.000 A 
ATOM      7  C   UNL     1       1.319   4.916  20.492  0.00  0.00    +0.000 A 
ATOM      8  C   UNL     1       0.892   3.609  20.734  0.00  0.00    +0.000 A 
ATOM      9  C   UNL     1       1.753   2.545  20.506  0.00  0.00    +0.000 A 
ATOM     10  C   UNL     1       3.040   2.791  20.031  0.00  0.00    +0.000 A 
ATOM     11  C   UNL     1       3.499   4.103  19.793  0.00  0.00    +0.000 A 
BRANCH   6  13
ATOM     12  C   UNL     1       2.192   7.210  18.918  0.00  0.00    +0.000 C 
ATOM     13  O   UNL     1       3.045   6.455  19.776  0.00  0.00    +0.000 OA
ENDBRANCH   6  13
ENDBRANCH   1  11
BRANCH   4  14
ATOM     14  C   UNL     1       7.761   6.211  18.558  0.00  0.00    +0.000 C 
BRANCH  14  15
ATOM     15  C   UNL     1       7.335   7.306  17.579  0.00  0.00    +0.000 C 
BRANCH  15  16
ATOM     16  C   UNL     1       6.650   6.666  16.391  0.00  0.00    +0.000 C 
ATOM     17  O   UNL     1       5.479   6.928  16.122  0.00  0.00    +0.000 OA
ATOM     18  N   UNL     1       7.458   5.791  15.689  0.00  0.00    +0.000 N 
ATOM     19  H   UNL     1       8.356   5.553  16.095  0.00  0.00    +0.000 HD
BRANCH  18  20
ATOM     20  C   UNL     1       7.058   5.050  14.550  0.00  0.00    +0.000 A 
ATOM     21  C   UNL     1       6.036   4.101  14.564  0.00  0.00    +0.000 A 
ATOM     22  C   UNL     1       5.751   3.361  13.418  0.00  0.00    +0.000 A 
ATOM     23  C   UNL     1       6.491   3.607  12.275  0.00  0.00    +0.000 A 
ATOM     24  N   UNL     1       7.458   4.547  12.202  0.00  0.00    +0.000 NA
ATOM     25  C   UNL     1       7.711   5.247  13.336  0.00  0.00    +0.000 A 
ENDBRANCH  18  20
ENDBRANCH  15  16
ENDBRANCH  14  15
ENDBRANCH   4  14
TORSDOF 6
ENDMDL
MODEL 7
REMARK VINA RESULT:      -7.5      4.155      7.865
REMARK  Name = 
REMARK  7 active torsions:
REMARK  status: ('A' for Active; 'I' for Inactive)
REMARK    1  A    between atoms: C_1  and  O_2
REMARK    2  A    between atoms: O_2  and  C_3
REMARK    3  A    between atoms: C_8  and  C_9
REMARK    4  A    between atoms: C_12  and  C_13
REMARK    5  A    between atoms: C_13  and  C_14
REMARK    6  A    between atoms: C_14  and  C_15
REMARK    7  A    between atoms: N_17  and  C_18
REMARK                            x       y       z     vdW  Elec       q    Type
REMARK                         _______ _______ _______ _____ _____    ______ ____
ROOT
ATOM      1  C   UNL     1       8.703   9.651  18.444  0.00  0.00    +0.000 A 
ATOM      2  N   UNL     1       7.699   9.849  17.574  0.00  0.00    +0.000 NA
ATOM      3  O   UNL     1       7.185   8.574  17.353  0.00  0.00    +0.000 OA
ATOM      4  C   UNL     1       7.927   7.721  18.112  0.00  0.00    +0.000 A 
ATOM      5  N   UNL     1       8.854   8.323  18.814  0.00  0.00    +0.000 NA
ENDROOT
BRANCH   1  11
ATOM      6  C   UNL     1       9.694  11.185  20.205  0.00  0.00    +0.000 A 
ATOM      7  C   UNL     1      10.641  12.169  20.530  0.00  0.00    +0.000 A 
ATOM      8  C   UNL     1      11.513  12.672  19.563  0.00  0.00    +0.000 A 
ATOM      9  C   UNL     1      11.470  12.180  18.267  0.00  0.00    +0.000 A 
ATOM     10  C   UNL     1      10.557  11.179  17.940  0.00  0.00    +0.000 A 
ATOM     11  C   UNL     1       9.655  10.666  18.896  0.00  0.00    +0.000 A 
BRANCH   6  13
ATOM     12  C   UNL     1       8.494  11.554  22.207  0.00  0.00    +0.000 C 
ATOM     13  O   UNL     1       8.851  10.662  21.153  0.00  0.00    +0.000 OA
ENDBRANCH   6  13
ENDBRANCH   1  11
BRANCH   4  14
ATOM     14  C   UNL     1       7.656   6.279  17.949  0.00  0.00    +0.000 C 
BRANCH  14  15
ATOM     15  C   UNL     1       7.116   5.628  19.222  0.00  0.00    +0.000 C 
BRANCH  15  16
ATOM     16  C   UNL     1       5.683   5.201  18.987  0.00  0.00    +0.000 C 
ATOM     17  O   UNL     1       4.826   6.019  18.661  0.00  0.00    +0.000 OA
ATOM     18  N   UNL     1       5.469   3.848  19.182  0.00  0.00    +0.000 N 
ATOM     19  H   UNL     1       6.224   3.307  19.588  0.00  0.00    +0.000 HD
BRANCH  18  20
ATOM     20  C   UNL     1       4.219   3.195  19.046  0.00  0.00    +0.000 A 
ATOM     21  C   UNL     1       3.692   2.778  17.825  0.00  0.00    +0.000 A 
ATOM     22  C   UNL     1       2.422   2.207  17.767  0.00  0.00    +0.000 A 
ATOM     23  C   UNL     1       1.716   2.053  18.947  0.00  0.00    +0.000 A 
ATOM     24  N   UNL     1       2.204   2.399  20.157  0.00  0.00    +0.000 NA
ATOM     25  C   UNL     1       3.442   2.954  20.177  0.00  0.00    +0.000 A 
ENDBRANCH  18  20
ENDBRANCH  15  16
ENDBRANCH  14  15
ENDBRANCH   4  14
TORSDOF 6
ENDMDL
MODEL 8
REMARK VINA RESULT:      -7.4      2.012      6.528
REMARK  Name = 
REMARK  7 active torsions:
REMARK  status: ('A' for Active; 'I' for Inactive)
REMARK    1  A    between atoms: C_1  and  O_2
REMARK    2  A    between atoms: O_2  and  C_3
REMARK    3  A    between atoms: C_8  and  C_9
REMARK    4  A    between atoms: C_12  and  C_13
REMARK    5  A    between atoms: C_13  and  C_14
REMARK    6  A    between atoms: C_14  and  C_15
REMARK    7  A    between atoms: N_17  and  C_18
REMARK                            x       y       z     vdW  Elec       q    Type
REMARK                         _______ _______ _______ _____ _____    ______ ____
ROOT
ATOM      1  C   UNL     1       6.452   5.756  15.187  0.00  0.00    +0.000 A 
ATOM      2  N   UNL     1       5.578   6.728  15.495  0.00  0.00    +0.000 NA
ATOM      3  O   UNL     1       6.021   7.205  16.726  0.00  0.00    +0.000 OA
ATOM      4  C   UNL     1       7.125   6.477  17.049  0.00  0.00    +0.000 A 
ATOM      5  N   UNL     1       7.447   5.591  16.140  0.00  0.00    +0.000 NA
ENDROOT
BRANCH   1  11
ATOM      6  C   UNL     1       7.328   4.728  13.040  0.00  0.00    +0.000 A 
ATOM      7  C   UNL     1       7.124   3.832  11.979  0.00  0.00    +0.000 A 
ATOM      8  C   UNL     1       5.947   3.088  11.886  0.00  0.00    +0.000 A 
ATOM      9  C   UNL     1       4.971   3.209  12.864  0.00  0.00    +0.000 A 
ATOM     10  C   UNL     1       5.176   4.071  13.939  0.00  0.00    +0.000 A 
ATOM     11  C   UNL     1       6.350   4.845  14.047  0.00  0.00    +0.000 A 
BRANCH   6  13
ATOM     12  C   UNL     1       8.709   6.425  12.145  0.00  0.00    +0.000 C 
ATOM     13  O   UNL     1       8.493   5.445  13.158  0.00  0.00    +0.000 OA
ENDBRANCH   6  13
ENDBRANCH   1  11
BRANCH   4  14
ATOM     14  C   UNL     1       7.708   6.709  18.385  0.00  0.00    +0.000 C 
BRANCH  14  15
ATOM     15  C   UNL     1       7.477   5.542  19.345  0.00  0.00    +0.000 C 
BRANCH  15  16
ATOM     16  C   UNL     1       6.016   5.151  19.304  0.00  0.00    +0.000 C 
ATOM     17  O   UNL     1       5.149   5.902  19.746  0.00  0.00    +0.000 OA
ATOM     18  N   UNL     1       5.790   3.906  18.744  0.00  0.00    +0.000 N 
ATOM     19  H   UNL     1       6.598   3.326  18.549  0.00  0.00    +0.000 HD
BRANCH  18  20
ATOM     20  C   UNL     1       4.519   3.297  18.602  0.00  0.00    +0.000 A 
ATOM     21  C   UNL     1       3.786   3.303  17.417  0.00  0.00    +0.000 A 
ATOM     22  C   UNL     1       2.510   2.743  17.379  0.00  0.00    +0.000 A 
ATOM     23  C   UNL     1       2.008   2.173  18.535  0.00  0.00    +0.000 A 
ATOM     24  N   UNL     1       2.699   2.103  19.693  0.00  0.00    +0.000 NA
ATOM     25  C   UNL     1       3.937   2.659  19.695  0.00  0.00    +0.000 A 
ENDBRANCH  18  20
ENDBRANCH  15  16
ENDBRANCH  14  15
ENDBRANCH   4  14
TORSDOF 6
ENDMDL
MODEL 9
REMARK VINA RESULT:      -7.4      1.207      1.796
REMARK  Name = 
REMARK  7 active torsions:
REMARK  status: ('A' for Active; 'I' for Inactive)
REMARK    1  A    between atoms: C_1  and  O_2
REMARK    2  A    between atoms: O_2  and  C_3
REMARK    3  A    between atoms: C_8  and  C_9
REMARK    4  A    between atoms: C_12  and  C_13
REMARK    5  A    between atoms: C_13  and  C_14
REMARK    6  A    between atoms: C_14  and  C_15
REMARK    7  A    between atoms: N_17  and  C_18
REMARK                            x       y       z     vdW  Elec       q    Type
REMARK                         _______ _______ _______ _____ _____    ______ ____
ROOT
ATOM      1  C   UNL     1       4.966   4.472  19.170  0.00  0.00    +0.000 A 
ATOM      2  N   UNL     1       5.788   3.563  18.619  0.00  0.00    +0.000 NA
ATOM      3  O   UNL     1       6.968   4.268  18.391  0.00  0.00    +0.000 OA
ATOM      4  C   UNL     1       6.750   5.539  18.828  0.00  0.00    +0.000 A 
ATOM      5  N   UNL     1       5.555   5.718  19.331  0.00  0.00    +0.000 NA
ENDROOT
BRANCH   1  11
ATOM      6  C   UNL     1       2.741   3.293  18.860  0.00  0.00    +0.000 A 
ATOM      7  C   UNL     1       1.387   3.194  19.216  0.00  0.00    +0.000 A 
ATOM      8  C   UNL     1       0.821   4.077  20.137  0.00  0.00    +0.000 A 
ATOM      9  C   UNL     1       1.606   5.052  20.735  0.00  0.00    +0.000 A 
ATOM     10  C   UNL     1       2.959   5.140  20.414  0.00  0.00    +0.000 A 
ATOM     11  C   UNL     1       3.550   4.269  19.475  0.00  0.00    +0.000 A 
BRANCH   6  13
ATOM     12  C   UNL     1       3.534   1.099  18.484  0.00  0.00    +0.000 C 
ATOM     13  O   UNL     1       3.316   2.414  17.977  0.00  0.00    +0.000 OA
ENDBRANCH   6  13
ENDBRANCH   1  11
BRANCH   4  14
ATOM     14  C   UNL     1       7.822   6.522  18.573  0.00  0.00    +0.000 C 
BRANCH  14  15
ATOM     15  C   UNL     1       7.456   7.531  17.485  0.00  0.00    +0.000 C 
BRANCH  15  16
ATOM     16  C   UNL     1       6.768   6.803  16.350  0.00  0.00    +0.000 C 
ATOM     17  O   UNL     1       5.585   7.014  16.090  0.00  0.00    +0.000 OA
ATOM     18  N   UNL     1       7.590   5.914  15.682  0.00  0.00    +0.000 N 
ATOM     19  H   UNL     1       8.502   5.726  16.082  0.00  0.00    +0.000 HD
BRANCH  18  20
ATOM     20  C   UNL     1       7.191   5.096  14.596  0.00  0.00    +0.000 A 
ATOM     21  C   UNL     1       7.717   5.205  13.310  0.00  0.00    +0.000 A 
ATOM     22  C   UNL     1       7.219   4.411  12.279  0.00  0.00    +0.000 A 
ATOM     23  C   UNL     1       6.211   3.510  12.571  0.00  0.00    +0.000 A 
ATOM     24  N   UNL     1       5.702   3.336  13.810  0.00  0.00    +0.000 NA
ATOM     25  C   UNL     1       6.208   4.127  14.790  0.00  0.00    +0.000 A 
ENDBRANCH  18  20
ENDBRANCH  15  16
ENDBRANCH  14  15
ENDBRANCH   4  14
TORSDOF 6
ENDMDL
