MODEL 1
REMARK VINA RESULT:      -6.6      0.000      0.000
REMARK  Name = 
REMARK  13 active torsions:
REMARK  status: ('A' for Active; 'I' for Inactive)
REMARK    1  A    between atoms: C_1  and  C_2
REMARK    2  A    between atoms: C_2  and  C_3
REMARK    3  A    between atoms: C_3  and  C_4
REMARK    4  A    between atoms: C_4  and  C_5
REMARK    5  A    between atoms: C_5  and  C_6
REMARK    6  A    between atoms: C_6  and  C_7
REMARK    7  A    between atoms: C_7  and  C_8
REMARK    8  A    between atoms: C_8  and  C_9
REMARK    9  A    between atoms: C_9  and  C_10
REMARK   10  A    between atoms: C_10  and  C_11
REMARK   11  A    between atoms: C_11  and  C_12
REMARK   12  A    between atoms: N_17  and  C_18
REMARK   13  A    between atoms: N_17  and  C_19
REMARK                            x       y       z     vdW  Elec       q    Type
REMARK                         _______ _______ _______ _____ _____    ______ ____
ROOT
ATOM      1  C   UNL     1       6.194   6.507  18.001  0.00  0.00    +0.000 C 
ENDROOT
BRANCH   1   2
ATOM      2  C   UNL     1       5.932   5.127  18.563  0.00  0.00    +0.000 C 
ATOM      3  O   UNL     1       6.821   4.286  18.503  0.00  0.00    +0.000 OA
ATOM      4  N   UNL     1       4.749   4.832  19.199  0.00  0.00    +0.000 N 
ATOM      5  C   UNL     1       3.643   5.779  19.285  0.00  0.00    +0.000 C 
ATOM      6  C   UNL     1       2.363   5.105  18.758  0.00  0.00    +0.000 C 
ATOM      7  N   UNL     1       2.067   3.827  19.469  0.00  0.00    +0.000 N 
ATOM      8  C   UNL     1       1.695   4.075  20.887  0.00  0.00    +0.000 C 
ATOM      9  C   UNL     1       0.904   3.178  18.816  0.00  0.00    +0.000 C 
ATOM     10  C   UNL     1       3.242   2.908  19.360  0.00  0.00    +0.000 C 
ATOM     11  C   UNL     1       4.542   3.552  19.867  0.00  0.00    +0.000 C 
ENDBRANCH   1   2
BRANCH   1  12
ATOM     12  C   UNL     1       5.659   6.707  16.585  0.00  0.00    +0.000 C 
BRANCH  12  13
ATOM     13  C   UNL     1       6.421   5.807  15.607  0.00  0.00    +0.000 C 
BRANCH  13  14
ATOM     14  C   UNL     1       5.442   4.936  14.832  0.00  0.00    +0.000 C 
BRANCH  14  15
ATOM     15  C   UNL     1       6.164   3.792  14.106  0.00  0.00    +0.000 C 
BRANCH  15  16
ATOM     16  C   UNL     1       6.843   4.264  12.811  0.00  0.00    +0.000 C 
BRANCH  16  17
ATOM     17  C   UNL     1       6.726   3.218  11.693  0.00  0.00    +0.000 C 
BRANCH  17  18
ATOM     18  C   UNL     1       5.387   2.490  11.721  0.00  0.00    +0.000 C 
BRANCH  18  19
ATOM     19  C   UNL     1       4.256   3.516  11.589  0.00  0.00    +0.000 C 
BRANCH  19  21
ATOM     20  C   UNL     1       3.014   4.224   9.532  0.00  0.00    +0.000 C 
ATOM     21  C   UNL     1       3.241   3.094  10.530  0.00  0.00    +0.000 C 
ENDBRANCH  19  21
ENDBRANCH  18  19
ENDBRANCH  17  18
ENDBRANCH  16  17
ENDBRANCH  15  16
ENDBRANCH  14  15
ENDBRANCH  13  14
ENDBRANCH  12  13
ENDBRANCH   1  12
TORSDOF 10
ENDMDL
MODEL 2
REMARK VINA RESULT:      -6.4      1.424      2.173
REMARK  Name = 
REMARK  13 active torsions:
REMARK  status: ('A' for Active; 'I' for Inactive)
REMARK    1  A    between atoms: C_1  and  C_2
REMARK    2  A    between atoms: C_2  and  C_3
REMARK    3  A    between atoms: C_3  and  C_4
REMARK    4  A    between atoms: C_4  and  C_5
REMARK    5  A    between atoms: C_5  and  C_6
REMARK    6  A    between atoms: C_6  and  C_7
REMARK    7  A    between atoms: C_7  and  C_8
REMARK    8  A    between atoms: C_8  and  C_9
REMARK    9  A    between atoms: C_9  and  C_10
REMARK   10  A    between atoms: C_10  and  C_11
REMARK   11  A    between atoms: C_11  and  C_12
REMARK   12  A    between atoms: N_17  and  C_18
REMARK   13  A    between atoms: N_17  and  C_19
REMARK                            x       y       z     vdW  Elec       q    Type
REMARK                         _______ _______ _______ _____ _____    ______ ____
ROOT
ATOM      1  C   UNL     1       5.818   5.743  17.804  0.00  0.00    +0.000 C 
ENDROOT
BRANCH   1   2
ATOM      2  C   UNL     1       4.306   5.792  17.832  0.00  0.00    +0.000 C 
ATOM      3  O   UNL     1       3.740   6.801  17.431  0.00  0.00    +0.000 OA
ATOM      4  N   UNL     1       3.568   4.700  18.226  0.00  0.00    +0.000 N 
ATOM      5  C   UNL     1       4.179   3.477  18.735  0.00  0.00    +0.000 C 
ATOM      6  C   UNL     1       3.551   3.132  20.098  0.00  0.00    +0.000 C 
ATOM      7  N   UNL     1       2.064   3.030  20.023  0.00  0.00    +0.000 N 
ATOM      8  C   UNL     1       1.647   1.856  19.211  0.00  0.00    +0.000 C 
ATOM      9  C   UNL     1       1.533   2.830  21.392  0.00  0.00    +0.000 C 
ATOM     10  C   UNL     1       1.501   4.304  19.479  0.00  0.00    +0.000 C 
ATOM     11  C   UNL     1       2.113   4.687  18.123  0.00  0.00    +0.000 C 
ENDBRANCH   1   2
BRANCH   1  12
ATOM     12  C   UNL     1       6.384   4.730  16.812  0.00  0.00    +0.000 C 
BRANCH  12  13
ATOM     13  C   UNL     1       6.273   5.278  15.386  0.00  0.00    +0.000 C 
BRANCH  13  14
ATOM     14  C   UNL     1       5.515   4.292  14.508  0.00  0.00    +0.000 C 
BRANCH  14  15
ATOM     15  C   UNL     1       6.380   3.807  13.335  0.00  0.00    +0.000 C 
BRANCH  15  16
ATOM     16  C   UNL     1       5.592   2.913  12.365  0.00  0.00    +0.000 C 
BRANCH  16  17
ATOM     17  C   UNL     1       4.851   3.738  11.305  0.00  0.00    +0.000 C 
BRANCH  17  18
ATOM     18  C   UNL     1       3.389   3.328  11.173  0.00  0.00    +0.000 C 
BRANCH  18  19
ATOM     19  C   UNL     1       3.021   3.255   9.687  0.00  0.00    +0.000 C 
BRANCH  19  21
ATOM     20  C   UNL     1       1.765   5.267   8.880  0.00  0.00    +0.000 C 
ATOM     21  C   UNL     1       3.140   4.621   9.015  0.00  0.00    +0.000 C 
ENDBRANCH  19  21
ENDBRANCH  18  19
ENDBRANCH  17  18
ENDBRANCH  16  17
ENDBRANCH  15  16
ENDBRANCH  14  15
ENDBRANCH  13  14
ENDBRANCH  12  13
ENDBRANCH   1  12
TORSDOF 10
ENDMDL
MODEL 3
REMARK VINA RESULT:      -6.2      4.023      6.651
REMARK  Name = 
REMARK  13 active torsions:
REMARK  status: ('A' for Active; 'I' for Inactive)
REMARK    1  A    between atoms: C_1  and  C_2
REMARK    2  A    between atoms: C_2  and  C_3
REMARK    3  A    between atoms: C_3  and  C_4
REMARK    4  A    between atoms: C_4  and  C_5
REMARK    5  A    between atoms: C_5  and  C_6
REMARK    6  A    between atoms: C_6  and  C_7
REMARK    7  A    between atoms: C_7  and  C_8
REMARK    8  A    between atoms: C_8  and  C_9
REMARK    9  A    between atoms: C_9  and  C_10
REMARK   10  A    between atoms: C_10  and  C_11
REMARK   11  A    between atoms: C_11  and  C_12
REMARK   12  A    between atoms: N_17  and  C_18
REMARK   13  A    between atoms: N_17  and  C_19
REMARK                            x       y       z     vdW  Elec       q    Type
REMARK                         _______ _______ _______ _____ _____    ______ ____
ROOT
ATOM      1  C   UNL     1       3.225   7.429  17.703  0.00  0.00    +0.000 C 
ENDROOT
BRANCH   1   2
ATOM      2  C   UNL     1       2.433   7.617  18.979  0.00  0.00    +0.000 C 
ATOM      3  O   UNL     1       2.408   6.707  19.798  0.00  0.00    +0.000 OA
ATOM      4  N   UNL     1       1.811   8.812  19.259  0.00  0.00    +0.000 N 
ATOM      5  C   UNL     1       1.784   9.926  18.318  0.00  0.00    +0.000 C 
ATOM      6  C   UNL     1       0.324  10.369  18.108  0.00  0.00    +0.000 C 
ATOM      7  N   UNL     1      -0.354  10.701  19.394  0.00  0.00    +0.000 N 
ATOM      8  C   UNL     1       0.229  11.923  20.009  0.00  0.00    +0.000 C 
ATOM      9  C   UNL     1      -1.783  10.986  19.118  0.00  0.00    +0.000 C 
ATOM     10  C   UNL     1      -0.277   9.528  20.320  0.00  0.00    +0.000 C 
ATOM     11  C   UNL     1       1.166   9.050  20.545  0.00  0.00    +0.000 C 
ENDBRANCH   1   2
BRANCH   1  12
ATOM     12  C   UNL     1       4.545   6.690  17.901  0.00  0.00    +0.000 C 
BRANCH  12  13
ATOM     13  C   UNL     1       4.977   6.031  16.587  0.00  0.00    +0.000 C 
BRANCH  13  14
ATOM     14  C   UNL     1       4.639   4.547  16.614  0.00  0.00    +0.000 C 
BRANCH  14  15
ATOM     15  C   UNL     1       4.442   4.043  18.052  0.00  0.00    +0.000 C 
BRANCH  15  16
ATOM     16  C   UNL     1       3.787   2.655  18.095  0.00  0.00    +0.000 C 
BRANCH  16  17
ATOM     17  C   UNL     1       2.390   2.664  17.459  0.00  0.00    +0.000 C 
BRANCH  17  18
ATOM     18  C   UNL     1       1.424   3.581  18.200  0.00  0.00    +0.000 C 
BRANCH  18  19
ATOM     19  C   UNL     1       0.873   2.843  19.424  0.00  0.00    +0.000 C 
BRANCH  19  21
ATOM     20  C   UNL     1       2.099   2.701  21.604  0.00  0.00    +0.000 C 
ATOM     21  C   UNL     1       1.216   3.574  20.719  0.00  0.00    +0.000 C 
ENDBRANCH  19  21
ENDBRANCH  18  19
ENDBRANCH  17  18
ENDBRANCH  16  17
ENDBRANCH  15  16
ENDBRANCH  14  15
ENDBRANCH  13  14
ENDBRANCH  12  13
ENDBRANCH   1  12
TORSDOF 10
ENDMDL
MODEL 4
REMARK VINA RESULT:      -6.2      3.168      7.631
REMARK  Name = 
REMARK  13 active torsions:
REMARK  status: ('A' for Active; 'I' for Inactive)
REMARK    1  A    between atoms: C_1  and  C_2
REMARK    2  A    between atoms: C_2  and  C_3
REMARK    3  A    between atoms: C_3  and  C_4
REMARK    4  A    between atoms: C_4  and  C_5
REMARK    5  A    between atoms: C_5  and  C_6
REMARK    6  A    between atoms: C_6  and  C_7
REMARK    7  A    between atoms: C_7  and  C_8
REMARK    8  A    between atoms: C_8  and  C_9
REMARK    9  A    between atoms: C_9  and  C_10
REMARK   10  A    between atoms: C_10  and  C_11
REMARK   11  A    between atoms: C_11  and  C_12
REMARK   12  A    between atoms: N_17  and  C_18
REMARK   13  A    between atoms: N_17  and  C_19
REMARK                            x       y       z     vdW  Elec       q    Type
REMARK                         _______ _______ _______ _____ _____    ______ ____
ROOT
ATOM      1  C   UNL     1       4.335   2.152  20.514  0.00  0.00    +0.000 C 
ENDROOT
BRANCH   1   2
ATOM      2  C   UNL     1       3.917   2.399  19.080  0.00  0.00    +0.000 C 
ATOM      3  O   UNL     1       3.158   1.603  18.541  0.00  0.00    +0.000 OA
ATOM      4  N   UNL     1       4.316   3.532  18.409  0.00  0.00    +0.000 N 
ATOM      5  C   UNL     1       5.236   4.506  18.985  0.00  0.00    +0.000 C 
ATOM      6  C   UNL     1       6.403   4.733  18.007  0.00  0.00    +0.000 C 
ATOM      7  N   UNL     1       5.930   5.137  16.651  0.00  0.00    +0.000 N 
ATOM      8  C   UNL     1       5.314   6.490  16.679  0.00  0.00    +0.000 C 
ATOM      9  C   UNL     1       7.099   5.204  15.741  0.00  0.00    +0.000 C 
ATOM     10  C   UNL     1       4.979   4.110  16.124  0.00  0.00    +0.000 C 
ATOM     11  C   UNL     1       3.806   3.848  17.080  0.00  0.00    +0.000 C 
ENDBRANCH   1   2
BRANCH   1  12
ATOM     12  C   UNL     1       3.166   1.902  21.461  0.00  0.00    +0.000 C 
BRANCH  12  13
ATOM     13  C   UNL     1       2.381   3.199  21.678  0.00  0.00    +0.000 C 
BRANCH  13  14
ATOM     14  C   UNL     1       1.156   3.222  20.775  0.00  0.00    +0.000 C 
BRANCH  14  15
ATOM     15  C   UNL     1       0.908   4.625  20.201  0.00  0.00    +0.000 C 
BRANCH  15  16
ATOM     16  C   UNL     1       2.015   5.616  20.593  0.00  0.00    +0.000 C 
BRANCH  16  17
ATOM     17  C   UNL     1       2.369   6.560  19.436  0.00  0.00    +0.000 C 
BRANCH  17  18
ATOM     18  C   UNL     1       1.919   7.992  19.700  0.00  0.00    +0.000 C 
BRANCH  18  19
ATOM     19  C   UNL     1       1.284   8.068  21.092  0.00  0.00    +0.000 C 
BRANCH  19  21
ATOM     20  C   UNL     1      -0.393   9.217  22.556  0.00  0.00    +0.000 C 
ATOM     21  C   UNL     1       0.183   9.123  21.147  0.00  0.00    +0.000 C 
ENDBRANCH  19  21
ENDBRANCH  18  19
ENDBRANCH  17  18
ENDBRANCH  16  17
ENDBRANCH  15  16
ENDBRANCH  14  15
ENDBRANCH  13  14
ENDBRANCH  12  13
ENDBRANCH   1  12
TORSDOF 10
ENDMDL
MODEL 5
REMARK VINA RESULT:      -6.2      4.354      7.425
REMARK  Name = 
REMARK  13 active torsions:
REMARK  status: ('A' for Active; 'I' for Inactive)
REMARK    1  A    between atoms: C_1  and  C_2
REMARK    2  A    between atoms: C_2  and  C_3
REMARK    3  A    between atoms: C_3  and  C_4
REMARK    4  A    between atoms: C_4  and  C_5
REMARK    5  A    between atoms: C_5  and  C_6
REMARK    6  A    between atoms: C_6  and  C_7
REMARK    7  A    between atoms: C_7  and  C_8
REMARK    8  A    between atoms: C_8  and  C_9
REMARK    9  A    between atoms: C_9  and  C_10
REMARK   10  A    between atoms: C_10  and  C_11
REMARK   11  A    between atoms: C_11  and  C_12
REMARK   12  A    between atoms: N_17  and  C_18
REMARK   13  A    between atoms: N_17  and  C_19
REMARK                            x       y       z     vdW  Elec       q    Type
REMARK                         _______ _______ _______ _____ _____    ______ ____
ROOT
ATOM      1  C   UNL     1       6.175   6.223  17.232  0.00  0.00    +0.000 C 
ENDROOT
BRANCH   1   2
ATOM      2  C   UNL     1       4.702   6.291  17.572  0.00  0.00    +0.000 C 
ATOM      3  O   UNL     1       4.120   7.364  17.467  0.00  0.00    +0.000 OA
ATOM      4  N   UNL     1       4.000   5.161  17.921  0.00  0.00    +0.000 N 
ATOM      5  C   UNL     1       4.636   3.858  18.085  0.00  0.00    +0.000 C 
ATOM      6  C   UNL     1       4.271   3.293  19.470  0.00  0.00    +0.000 C 
ATOM      7  N   UNL     1       2.796   3.231  19.681  0.00  0.00    +0.000 N 
ATOM      8  C   UNL     1       2.168   2.222  18.787  0.00  0.00    +0.000 C 
ATOM      9  C   UNL     1       2.533   2.806  21.077  0.00  0.00    +0.000 C 
ATOM     10  C   UNL     1       2.202   4.589  19.482  0.00  0.00    +0.000 C 
ATOM     11  C   UNL     1       2.555   5.190  18.113  0.00  0.00    +0.000 C 
ENDBRANCH   1   2
BRANCH   1  12
ATOM     12  C   UNL     1       7.085   6.127  18.453  0.00  0.00    +0.000 C 
BRANCH  12  13
ATOM     13  C   UNL     1       8.111   7.265  18.430  0.00  0.00    +0.000 C 
BRANCH  13  14
ATOM     14  C   UNL     1       7.546   8.459  17.675  0.00  0.00    +0.000 C 
BRANCH  14  15
ATOM     15  C   UNL     1       8.476   9.678  17.776  0.00  0.00    +0.000 C 
BRANCH  15  16
ATOM     16  C   UNL     1       9.124   9.799  19.163  0.00  0.00    +0.000 C 
BRANCH  16  17
ATOM     17  C   UNL     1      10.021  11.040  19.266  0.00  0.00    +0.000 C 
BRANCH  17  18
ATOM     18  C   UNL     1      10.810  11.290  17.985  0.00  0.00    +0.000 C 
BRANCH  18  19
ATOM     19  C   UNL     1      10.482  12.691  17.460  0.00  0.00    +0.000 C 
BRANCH  19  21
ATOM     20  C   UNL     1      11.587  14.917  17.148  0.00  0.00    +0.000 C 
ATOM     21  C   UNL     1      11.368  13.752  18.107  0.00  0.00    +0.000 C 
ENDBRANCH  19  21
ENDBRANCH  18  19
ENDBRANCH  17  18
ENDBRANCH  16  17
ENDBRANCH  15  16
ENDBRANCH  14  15
ENDBRANCH  13  14
ENDBRANCH  12  13
ENDBRANCH   1  12
TORSDOF 10
ENDMDL
MODEL 6
REMARK VINA RESULT:      -6.2      4.701      8.364
REMARK  Name = 
REMARK  13 active torsions:
REMARK  status: ('A' for Active; 'I' for Inactive)
REMARK    1  A    between atoms: C_1  and  C_2
REMARK    2  A    between atoms: C_2  and  C_3
REMARK    3  A    between atoms: C_3  and  C_4
REMARK    4  A    between atoms: C_4  and  C_5
REMARK    5  A    between atoms: C_5  and  C_6
REMARK    6  A    between atoms: C_6  and  C_7
REMARK    7  A    between atoms: C_7  and  C_8
REMARK    8  A    between atoms: C_8  and  C_9
REMARK    9  A    between atoms: C_9  and  C_10
REMARK   10  A    between atoms: C_10  and  C_11
REMARK   11  A    between atoms: C_11  and  C_12
REMARK   12  A    between atoms: N_17  and  C_18
REMARK   13  A    between atoms: N_17  and  C_19
REMARK                            x       y       z     vdW  Elec       q    Type
REMARK                         _______ _______ _______ _____ _____    ______ ____
ROOT
ATOM      1  C   UNL     1       7.599   6.937  17.712  0.00  0.00    +0.000 C 
ENDROOT
BRANCH   1   2
ATOM      2  C   UNL     1       7.117   5.738  18.501  0.00  0.00    +0.000 C 
ATOM      3  O   UNL     1       7.944   5.026  19.057  0.00  0.00    +0.000 OA
ATOM      4  N   UNL     1       5.775   5.485  18.659  0.00  0.00    +0.000 N 
ATOM      5  C   UNL     1       4.741   6.280  18.005  0.00  0.00    +0.000 C 
ATOM      6  C   UNL     1       3.800   5.339  17.230  0.00  0.00    +0.000 C 
ATOM      7  N   UNL     1       3.225   4.274  18.103  0.00  0.00    +0.000 N 
ATOM      8  C   UNL     1       2.290   4.849  19.106  0.00  0.00    +0.000 C 
ATOM      9  C   UNL     1       2.444   3.338  17.258  0.00  0.00    +0.000 C 
ATOM     10  C   UNL     1       4.331   3.509  18.757  0.00  0.00    +0.000 C 
ATOM     11  C   UNL     1       5.298   4.417  19.531  0.00  0.00    +0.000 C 
ENDBRANCH   1   2
BRANCH   1  12
ATOM     12  C   UNL     1       8.476   7.891  18.518  0.00  0.00    +0.000 C 
BRANCH  12  13
ATOM     13  C   UNL     1       8.296   9.324  18.006  0.00  0.00    +0.000 C 
BRANCH  13  14
ATOM     14  C   UNL     1       9.063  10.293  18.894  0.00  0.00    +0.000 C 
BRANCH  14  15
ATOM     15  C   UNL     1       9.990  11.197  18.067  0.00  0.00    +0.000 C 
BRANCH  15  16
ATOM     16  C   UNL     1      10.901  12.060  18.953  0.00  0.00    +0.000 C 
BRANCH  16  17
ATOM     17  C   UNL     1      10.541  11.926  20.439  0.00  0.00    +0.000 C 
BRANCH  17  18
ATOM     18  C   UNL     1       9.648  13.063  20.922  0.00  0.00    +0.000 C 
BRANCH  18  19
ATOM     19  C   UNL     1       9.309  12.841  22.400  0.00  0.00    +0.000 C 
BRANCH  19  21
ATOM     20  C   UNL     1       7.872  11.616  24.045  0.00  0.00    +0.000 C 
ATOM     21  C   UNL     1       8.234  11.772  22.572  0.00  0.00    +0.000 C 
ENDBRANCH  19  21
ENDBRANCH  18  19
ENDBRANCH  17  18
ENDBRANCH  16  17
ENDBRANCH  15  16
ENDBRANCH  14  15
ENDBRANCH  13  14
ENDBRANCH  12  13
ENDBRANCH   1  12
TORSDOF 10
ENDMDL
MODEL 7
REMARK VINA RESULT:      -6.1      4.267      6.795
REMARK  Name = 
REMARK  13 active torsions:
REMARK  status: ('A' for Active; 'I' for Inactive)
REMARK    1  A    between atoms: C_1  and  C_2
REMARK    2  A    between atoms: C_2  and  C_3
REMARK    3  A    between atoms: C_3  and  C_4
REMARK    4  A    between atoms: C_4  and  C_5
REMARK    5  A    between atoms: C_5  and  C_6
REMARK    6  A    between atoms: C_6  and  C_7
REMARK    7  A    between atoms: C_7  and  C_8
REMARK    8  A    between atoms: C_8  and  C_9
REMARK    9  A    between atoms: C_9  and  C_10
REMARK   10  A    between atoms: C_10  and  C_11
REMARK   11  A    between atoms: C_11  and  C_12
REMARK   12  A    between atoms: N_17  and  C_18
REMARK   13  A    between atoms: N_17  and  C_19
REMARK                            x       y       z     vdW  Elec       q    Type
REMARK                         _______ _______ _______ _____ _____    ______ ____
ROOT
ATOM      1  C   UNL     1       3.543   6.038  19.427  0.00  0.00    +0.000 C 
ENDROOT
BRANCH   1   2
ATOM      2  C   UNL     1       3.145   7.164  18.497  0.00  0.00    +0.000 C 
ATOM      3  O   UNL     1       3.728   7.278  17.425  0.00  0.00    +0.000 OA
ATOM      4  N   UNL     1       2.101   8.004  18.804  0.00  0.00    +0.000 N 
ATOM      5  C   UNL     1       1.381   7.936  20.071  0.00  0.00    +0.000 C 
ATOM      6  C   UNL     1       1.376   9.332  20.721  0.00  0.00    +0.000 C 
ATOM      7  N   UNL     1       0.817  10.373  19.810  0.00  0.00    +0.000 N 
ATOM      8  C   UNL     1      -0.637  10.160  19.580  0.00  0.00    +0.000 C 
ATOM      9  C   UNL     1       0.971  11.700  20.455  0.00  0.00    +0.000 C 
ATOM     10  C   UNL     1       1.583  10.381  18.526  0.00  0.00    +0.000 C 
ATOM     11  C   UNL     1       1.620   9.000  17.854  0.00  0.00    +0.000 C 
ENDBRANCH   1   2
BRANCH   1  12
ATOM     12  C   UNL     1       4.975   5.550  19.227  0.00  0.00    +0.000 C 
BRANCH  12  13
ATOM     13  C   UNL     1       4.978   4.048  18.927  0.00  0.00    +0.000 C 
BRANCH  13  14
ATOM     14  C   UNL     1       4.185   3.769  17.659  0.00  0.00    +0.000 C 
BRANCH  14  15
ATOM     15  C   UNL     1       3.855   2.275  17.520  0.00  0.00    +0.000 C 
BRANCH  15  16
ATOM     16  C   UNL     1       2.402   1.964  17.908  0.00  0.00    +0.000 C 
BRANCH  16  17
ATOM     17  C   UNL     1       1.574   3.243  18.089  0.00  0.00    +0.000 C 
BRANCH  17  18
ATOM     18  C   UNL     1       0.510   3.095  19.171  0.00  0.00    +0.000 C 
BRANCH  18  19
ATOM     19  C   UNL     1       0.975   3.827  20.434  0.00  0.00    +0.000 C 
BRANCH  19  21
ATOM     20  C   UNL     1       2.869   2.573  21.492  0.00  0.00    +0.000 C 
ATOM     21  C   UNL     1       1.369   2.846  21.535  0.00  0.00    +0.000 C 
ENDBRANCH  19  21
ENDBRANCH  18  19
ENDBRANCH  17  18
ENDBRANCH  16  17
ENDBRANCH  15  16
ENDBRANCH  14  15
ENDBRANCH  13  14
ENDBRANCH  12  13
ENDBRANCH   1  12
TORSDOF 10
ENDMDL
MODEL 8
REMARK VINA RESULT:      -6.1      4.513      8.070
REMARK  Name = 
REMARK  13 active torsions:
REMARK  status: ('A' for Active; 'I' for Inactive)
REMARK    1  A    between atoms: C_1  and  C_2
REMARK    2  A    between atoms: C_2  and  C_3
REMARK    3  A    between atoms: C_3  and  C_4
REMARK    4  A    between atoms: C_4  and  C_5
REMARK    5  A    between atoms: C_5  and  C_6
REMARK    6  A    between atoms: C_6  and  C_7
REMARK    7  A    between atoms: C_7  and  C_8
REMARK    8  A    between atoms: C_8  and  C_9
REMARK    9  A    between atoms: C_9  and  C_10
REMARK   10  A    between atoms: C_10  and  C_11
REMARK   11  A    between atoms: C_11  and  C_12
REMARK   12  A    between atoms: N_17  and  C_18
REMARK   13  A    between atoms: N_17  and  C_19
REMARK                            x       y       z     vdW  Elec       q    Type
REMARK                         _______ _______ _______ _____ _____    ______ ____
ROOT
ATOM      1  C   UNL     1       6.928   7.040  17.324  0.00  0.00    +0.000 C 
ENDROOT
BRANCH   1   2
ATOM      2  C   UNL     1       6.622   5.633  17.788  0.00  0.00    +0.000 C 
ATOM      3  O   UNL     1       7.494   4.777  17.697  0.00  0.00    +0.000 OA
ATOM      4  N   UNL     1       5.416   5.325  18.373  0.00  0.00    +0.000 N 
ATOM      5  C   UNL     1       4.328   6.289  18.491  0.00  0.00    +0.000 C 
ATOM      6  C   UNL     1       3.049   5.680  17.888  0.00  0.00    +0.000 C 
ATOM      7  N   UNL     1       2.707   4.366  18.507  0.00  0.00    +0.000 N 
ATOM      8  C   UNL     1       2.301   4.531  19.928  0.00  0.00    +0.000 C 
ATOM      9  C   UNL     1       1.549   3.788  17.783  0.00  0.00    +0.000 C 
ATOM     10  C   UNL     1       3.864   3.429  18.369  0.00  0.00    +0.000 C 
ATOM     11  C   UNL     1       5.163   4.009  18.950  0.00  0.00    +0.000 C 
ENDBRANCH   1   2
BRANCH   1  12
ATOM     12  C   UNL     1       7.974   7.755  18.175  0.00  0.00    +0.000 C 
BRANCH  12  13
ATOM     13  C   UNL     1       8.094   9.218  17.736  0.00  0.00    +0.000 C 
BRANCH  13  14
ATOM     14  C   UNL     1       8.936   9.994  18.739  0.00  0.00    +0.000 C 
BRANCH  14  15
ATOM     15  C   UNL     1       9.864  10.995  18.036  0.00  0.00    +0.000 C 
BRANCH  15  16
ATOM     16  C   UNL     1       9.189  12.357  17.816  0.00  0.00    +0.000 C 
BRANCH  16  17
ATOM     17  C   UNL     1       8.920  13.080  19.142  0.00  0.00    +0.000 C 
BRANCH  17  18
ATOM     18  C   UNL     1      10.197  13.318  19.940  0.00  0.00    +0.000 C 
BRANCH  18  19
ATOM     19  C   UNL     1      10.148  12.485  21.224  0.00  0.00    +0.000 C 
BRANCH  19  21
ATOM     20  C   UNL     1       8.227  11.717  22.636  0.00  0.00    +0.000 C 
ATOM     21  C   UNL     1       9.007  12.928  22.135  0.00  0.00    +0.000 C 
ENDBRANCH  19  21
ENDBRANCH  18  19
ENDBRANCH  17  18
ENDBRANCH  16  17
ENDBRANCH  15  16
ENDBRANCH  14  15
ENDBRANCH  13  14
ENDBRANCH  12  13
ENDBRANCH   1  12
TORSDOF 10
ENDMDL
MODEL 9
REMARK VINA RESULT:      -6.1      3.545      4.608
REMARK  Name = 
REMARK  13 active torsions:
REMARK  status: ('A' for Active; 'I' for Inactive)
REMARK    1  A    between atoms: C_1  and  C_2
REMARK    2  A    between atoms: C_2  and  C_3
REMARK    3  A    between atoms: C_3  and  C_4
REMARK    4  A    between atoms: C_4  and  C_5
REMARK    5  A    between atoms: C_5  and  C_6
REMARK    6  A    between atoms: C_6  and  C_7
REMARK    7  A    between atoms: C_7  and  C_8
REMARK    8  A    between atoms: C_8  and  C_9
REMARK    9  A    between atoms: C_9  and  C_10
REMARK   10  A    between atoms: C_10  and  C_11
REMARK   11  A    between atoms: C_11  and  C_12
REMARK   12  A    between atoms: N_17  and  C_18
REMARK   13  A    between atoms: N_17  and  C_19
REMARK                            x       y       z     vdW  Elec       q    Type
REMARK                         _______ _______ _______ _____ _____    ______ ____
ROOT
ATOM      1  C   UNL     1       3.057   5.890  18.438  0.00  0.00    +0.000 C 
ENDROOT
BRANCH   1   2
ATOM      2  C   UNL     1       2.317   6.526  19.595  0.00  0.00    +0.000 C 
ATOM      3  O   UNL     1       2.068   5.847  20.583  0.00  0.00    +0.000 OA
ATOM      4  N   UNL     1       1.990   7.862  19.580  0.00  0.00    +0.000 N 
ATOM      5  C   UNL     1       2.236   8.721  18.426  0.00  0.00    +0.000 C 
ATOM      6  C   UNL     1       0.925   9.427  18.037  0.00  0.00    +0.000 C 
ATOM      7  N   UNL     1       0.329  10.177  19.181  0.00  0.00    +0.000 N 
ATOM      8  C   UNL     1       1.176  11.338  19.561  0.00  0.00    +0.000 C 
ATOM      9  C   UNL     1      -0.990  10.712  18.763  0.00  0.00    +0.000 C 
ATOM     10  C   UNL     1       0.117   9.249  20.334  0.00  0.00    +0.000 C 
ATOM     11  C   UNL     1       1.404   8.516  20.744  0.00  0.00    +0.000 C 
ENDBRANCH   1   2
BRANCH   1  12
ATOM     12  C   UNL     1       2.799   4.393  18.291  0.00  0.00    +0.000 C 
BRANCH  12  13
ATOM     13  C   UNL     1       3.770   3.793  17.270  0.00  0.00    +0.000 C 
BRANCH  13  14
ATOM     14  C   UNL     1       4.577   4.901  16.607  0.00  0.00    +0.000 C 
BRANCH  14  15
ATOM     15  C   UNL     1       6.085   4.627  16.699  0.00  0.00    +0.000 C 
BRANCH  15  16
ATOM     16  C   UNL     1       6.736   4.493  15.314  0.00  0.00    +0.000 C 
BRANCH  16  17
ATOM     17  C   UNL     1       5.767   3.891  14.287  0.00  0.00    +0.000 C 
BRANCH  17  18
ATOM     18  C   UNL     1       6.429   3.665  12.932  0.00  0.00    +0.000 C 
BRANCH  18  19
ATOM     19  C   UNL     1       5.367   3.212  11.925  0.00  0.00    +0.000 C 
BRANCH  19  21
ATOM     20  C   UNL     1       7.199   1.738  11.061  0.00  0.00    +0.000 C 
ATOM     21  C   UNL     1       5.703   1.844  11.336  0.00  0.00    +0.000 C 
ENDBRANCH  19  21
ENDBRANCH  18  19
ENDBRANCH  17  18
ENDBRANCH  16  17
ENDBRANCH  15  16
ENDBRANCH  14  15
ENDBRANCH  13  14
ENDBRANCH  12  13
ENDBRANCH   1  12
TORSDOF 10
ENDMDL
