MODEL 1
REMARK VINA RESULT:      -7.0      0.000      0.000
REMARK  Name = 
REMARK  3 active torsions:
REMARK  status: ('A' for Active; 'I' for Inactive)
REMARK    1  A    between atoms: C_1  and  C_2
REMARK    2  A    between atoms: C_2  and  N_3
REMARK    3  A    between atoms: N_10  and  C_11
REMARK                            x       y       z     vdW  Elec       q    Type
REMARK                         _______ _______ _______ _____ _____    ______ ____
ROOT
ATOM      1  N   UNL     1       5.737   6.295  17.190  0.00  0.00    +0.000 N 
ATOM      2  C   UNL     1       4.441   6.703  17.564  0.00  0.00    +0.000 A 
ATOM      3  C   UNL     1       3.992   8.031  17.444  0.00  0.00    +0.000 A 
ATOM      4  C   UNL     1       2.685   8.387  17.794  0.00  0.00    +0.000 A 
ATOM      5  C   UNL     1       1.813   7.429  18.302  0.00  0.00    +0.000 A 
ATOM      6  C   UNL     1       2.254   6.119  18.463  0.00  0.00    +0.000 A 
ATOM      7  C   UNL     1       3.546   5.754  18.070  0.00  0.00    +0.000 A 
ATOM      8  N   UNL     1       3.956   4.409  18.212  0.00  0.00    +0.000 N 
ATOM      9  C   UNL     1       3.819   3.774  19.508  0.00  0.00    +0.000 C 
ATOM     10  C   UNL     1       4.436   3.632  17.161  0.00  0.00    +0.000 C 
ATOM     11  O   UNL     1       4.312   2.402  17.182  0.00  0.00    +0.000 OA
ATOM     12  C   UNL     1       5.176   4.221  16.014  0.00  0.00    +0.000 A 
ATOM     13  C   UNL     1       5.356   3.402  14.882  0.00  0.00    +0.000 A 
ATOM     14  C   UNL     1       6.269   3.765  13.903  0.00  0.00    +0.000 A 
ATOM     15  C   UNL     1       6.972   4.935  14.088  0.00  0.00    +0.000 A 
ATOM     16  F   UNL     1       7.902   5.274  13.184  0.00  0.00    +0.000 F 
ATOM     17  N   UNL     1       6.805   5.758  15.142  0.00  0.00    +0.000 NA
ATOM     18  C   UNL     1       5.909   5.414  16.108  0.00  0.00    +0.000 A 
ENDROOT
BRANCH   1  20
ATOM     19  C   UNL     1       7.806   6.574  18.506  0.00  0.00    +0.000 C 
ATOM     20  C   UNL     1       6.885   7.179  17.449  0.00  0.00    +0.000 C 
ENDBRANCH   1  20
TORSDOF 1
ENDMDL
MODEL 2
REMARK VINA RESULT:      -6.4      2.722      5.009
REMARK  Name = 
REMARK  3 active torsions:
REMARK  status: ('A' for Active; 'I' for Inactive)
REMARK    1  A    between atoms: C_1  and  C_2
REMARK    2  A    between atoms: C_2  and  N_3
REMARK    3  A    between atoms: N_10  and  C_11
REMARK                            x       y       z     vdW  Elec       q    Type
REMARK                         _______ _______ _______ _____ _____    ______ ____
ROOT
ATOM      1  N   UNL     1       4.656   6.622  17.253  0.00  0.00    +0.000 N 
ATOM      2  C   UNL     1       5.849   6.365  17.957  0.00  0.00    +0.000 A 
ATOM      3  C   UNL     1       7.061   7.022  17.675  0.00  0.00    +0.000 A 
ATOM      4  C   UNL     1       8.215   6.763  18.423  0.00  0.00    +0.000 A 
ATOM      5  C   UNL     1       8.187   5.818  19.444  0.00  0.00    +0.000 A 
ATOM      6  C   UNL     1       7.006   5.132  19.710  0.00  0.00    +0.000 A 
ATOM      7  C   UNL     1       5.841   5.424  18.993  0.00  0.00    +0.000 A 
ATOM      8  N   UNL     1       4.647   4.736  19.307  0.00  0.00    +0.000 N 
ATOM      9  C   UNL     1       4.663   3.287  19.324  0.00  0.00    +0.000 C 
ATOM     10  C   UNL     1       3.459   5.372  19.659  0.00  0.00    +0.000 C 
ATOM     11  O   UNL     1       2.632   4.802  20.379  0.00  0.00    +0.000 OA
ATOM     12  C   UNL     1       3.095   6.716  19.138  0.00  0.00    +0.000 A 
ATOM     13  C   UNL     1       2.030   7.381  19.776  0.00  0.00    +0.000 A 
ATOM     14  C   UNL     1       1.447   8.489  19.178  0.00  0.00    +0.000 A 
ATOM     15  C   UNL     1       1.948   8.894  17.960  0.00  0.00    +0.000 A 
ATOM     16  F   UNL     1       1.360   9.925  17.337  0.00  0.00    +0.000 F 
ATOM     17  N   UNL     1       2.983   8.300  17.334  0.00  0.00    +0.000 NA
ATOM     18  C   UNL     1       3.566   7.215  17.913  0.00  0.00    +0.000 A 
ENDROOT
BRANCH   1  20
ATOM     19  C   UNL     1       5.299   5.672  15.067  0.00  0.00    +0.000 C 
ATOM     20  C   UNL     1       4.702   6.870  15.803  0.00  0.00    +0.000 C 
ENDBRANCH   1  20
TORSDOF 1
ENDMDL
MODEL 3
REMARK VINA RESULT:      -6.1      9.537     12.158
REMARK  Name = 
REMARK  3 active torsions:
REMARK  status: ('A' for Active; 'I' for Inactive)
REMARK    1  A    between atoms: C_1  and  C_2
REMARK    2  A    between atoms: C_2  and  N_3
REMARK    3  A    between atoms: N_10  and  C_11
REMARK                            x       y       z     vdW  Elec       q    Type
REMARK                         _______ _______ _______ _____ _____    ______ ____
ROOT
ATOM      1  N   UNL     1      -5.327  12.285  18.166  0.00  0.00    +0.000 N 
ATOM      2  C   UNL     1      -5.941  12.194  19.431  0.00  0.00    +0.000 A 
ATOM      3  C   UNL     1      -7.212  11.623  19.626  0.00  0.00    +0.000 A 
ATOM      4  C   UNL     1      -7.771  11.521  20.906  0.00  0.00    +0.000 A 
ATOM      5  C   UNL     1      -7.084  12.018  22.009  0.00  0.00    +0.000 A 
ATOM      6  C   UNL     1      -5.842  12.621  21.827  0.00  0.00    +0.000 A 
ATOM      7  C   UNL     1      -5.265  12.682  20.556  0.00  0.00    +0.000 A 
ATOM      8  N   UNL     1      -3.988  13.269  20.405  0.00  0.00    +0.000 N 
ATOM      9  C   UNL     1      -3.771  14.605  20.924  0.00  0.00    +0.000 C 
ATOM     10  C   UNL     1      -2.899  12.616  19.834  0.00  0.00    +0.000 C 
ATOM     11  O   UNL     1      -1.745  12.923  20.152  0.00  0.00    +0.000 OA
ATOM     12  C   UNL     1      -3.060  11.585  18.775  0.00  0.00    +0.000 A 
ATOM     13  C   UNL     1      -1.935  10.790  18.480  0.00  0.00    +0.000 A 
ATOM     14  C   UNL     1      -1.914  10.019  17.328  0.00  0.00    +0.000 A 
ATOM     15  C   UNL     1      -3.020  10.068  16.507  0.00  0.00    +0.000 A 
ATOM     16  F   UNL     1      -2.996   9.377  15.359  0.00  0.00    +0.000 F 
ATOM     17  N   UNL     1      -4.125  10.793  16.771  0.00  0.00    +0.000 NA
ATOM     18  C   UNL     1      -4.158  11.551  17.901  0.00  0.00    +0.000 A 
ENDROOT
BRANCH   1  20
ATOM     19  C   UNL     1      -6.712  14.005  17.064  0.00  0.00    +0.000 C 
ATOM     20  C   UNL     1      -6.141  12.592  16.979  0.00  0.00    +0.000 C 
ENDBRANCH   1  20
TORSDOF 1
ENDMDL
MODEL 4
REMARK VINA RESULT:      -6.1      2.882      4.925
REMARK  Name = 
REMARK  3 active torsions:
REMARK  status: ('A' for Active; 'I' for Inactive)
REMARK    1  A    between atoms: C_1  and  C_2
REMARK    2  A    between atoms: C_2  and  N_3
REMARK    3  A    between atoms: N_10  and  C_11
REMARK                            x       y       z     vdW  Elec       q    Type
REMARK                         _______ _______ _______ _____ _____    ______ ____
ROOT
ATOM      1  N   UNL     1       5.947   4.830  18.540  0.00  0.00    +0.000 N 
ATOM      2  C   UNL     1       6.033   4.990  17.143  0.00  0.00    +0.000 A 
ATOM      3  C   UNL     1       7.065   4.426  16.370  0.00  0.00    +0.000 A 
ATOM      4  C   UNL     1       7.094   4.580  14.979  0.00  0.00    +0.000 A 
ATOM      5  C   UNL     1       6.111   5.329  14.340  0.00  0.00    +0.000 A 
ATOM      6  C   UNL     1       5.105   5.925  15.095  0.00  0.00    +0.000 A 
ATOM      7  C   UNL     1       5.051   5.733  16.479  0.00  0.00    +0.000 A 
ATOM      8  N   UNL     1       3.999   6.322  17.216  0.00  0.00    +0.000 N 
ATOM      9  C   UNL     1       3.763   7.745  17.077  0.00  0.00    +0.000 C 
ATOM     10  C   UNL     1       3.130   5.602  18.033  0.00  0.00    +0.000 C 
ATOM     11  O   UNL     1       1.985   6.014  18.248  0.00  0.00    +0.000 OA
ATOM     12  C   UNL     1       3.551   4.363  18.738  0.00  0.00    +0.000 A 
ATOM     13  C   UNL     1       2.530   3.566  19.293  0.00  0.00    +0.000 A 
ATOM     14  C   UNL     1       2.848   2.567  20.201  0.00  0.00    +0.000 A 
ATOM     15  C   UNL     1       4.176   2.397  20.525  0.00  0.00    +0.000 A 
ATOM     16  F   UNL     1       4.499   1.477  21.445  0.00  0.00    +0.000 F 
ATOM     17  N   UNL     1       5.181   3.120  19.992  0.00  0.00    +0.000 NA
ATOM     18  C   UNL     1       4.882   4.101  19.098  0.00  0.00    +0.000 A 
ENDROOT
BRANCH   1  20
ATOM     19  C   UNL     1       7.953   6.138  19.138  0.00  0.00    +0.000 C 
ATOM     20  C   UNL     1       7.173   4.844  19.355  0.00  0.00    +0.000 C 
ENDBRANCH   1  20
TORSDOF 1
ENDMDL
MODEL 5
REMARK VINA RESULT:      -6.1      6.553      9.260
REMARK  Name = 
REMARK  3 active torsions:
REMARK  status: ('A' for Active; 'I' for Inactive)
REMARK    1  A    between atoms: C_1  and  C_2
REMARK    2  A    between atoms: C_2  and  N_3
REMARK    3  A    between atoms: N_10  and  C_11
REMARK                            x       y       z     vdW  Elec       q    Type
REMARK                         _______ _______ _______ _____ _____    ______ ____
ROOT
ATOM      1  N   UNL     1      -0.525  10.766  18.774  0.00  0.00    +0.000 N 
ATOM      2  C   UNL     1       0.436   9.742  18.893  0.00  0.00    +0.000 A 
ATOM      3  C   UNL     1       1.149   9.230  17.794  0.00  0.00    +0.000 A 
ATOM      4  C   UNL     1       2.121   8.236  17.961  0.00  0.00    +0.000 A 
ATOM      5  C   UNL     1       2.374   7.714  19.226  0.00  0.00    +0.000 A 
ATOM      6  C   UNL     1       1.650   8.183  20.318  0.00  0.00    +0.000 A 
ATOM      7  C   UNL     1       0.712   9.207  20.157  0.00  0.00    +0.000 A 
ATOM      8  N   UNL     1       0.015   9.689  21.288  0.00  0.00    +0.000 N 
ATOM      9  C   UNL     1      -0.683   8.739  22.131  0.00  0.00    +0.000 C 
ATOM     10  C   UNL     1       0.005  11.026  21.679  0.00  0.00    +0.000 C 
ATOM     11  O   UNL     1      -0.163  11.332  22.864  0.00  0.00    +0.000 OA
ATOM     12  C   UNL     1       0.117  12.138  20.699  0.00  0.00    +0.000 A 
ATOM     13  C   UNL     1       0.387  13.420  21.216  0.00  0.00    +0.000 A 
ATOM     14  C   UNL     1       0.221  14.540  20.414  0.00  0.00    +0.000 A 
ATOM     15  C   UNL     1      -0.210  14.340  19.120  0.00  0.00    +0.000 A 
ATOM     16  F   UNL     1      -0.434  15.412  18.348  0.00  0.00    +0.000 F 
ATOM     17  N   UNL     1      -0.450  13.128  18.583  0.00  0.00    +0.000 NA
ATOM     18  C   UNL     1      -0.287  12.021  19.359  0.00  0.00    +0.000 A 
ENDROOT
BRANCH   1  20
ATOM     19  C   UNL     1      -2.712  10.030  17.899  0.00  0.00    +0.000 C 
ATOM     20  C   UNL     1      -1.422  10.793  17.608  0.00  0.00    +0.000 C 
ENDBRANCH   1  20
TORSDOF 1
ENDMDL
MODEL 6
REMARK VINA RESULT:      -5.9      3.415      5.694
REMARK  Name = 
REMARK  3 active torsions:
REMARK  status: ('A' for Active; 'I' for Inactive)
REMARK    1  A    between atoms: C_1  and  C_2
REMARK    2  A    between atoms: C_2  and  N_3
REMARK    3  A    between atoms: N_10  and  C_11
REMARK                            x       y       z     vdW  Elec       q    Type
REMARK                         _______ _______ _______ _____ _____    ______ ____
ROOT
ATOM      1  N   UNL     1       2.634   5.491  19.802  0.00  0.00    +0.000 N 
ATOM      2  C   UNL     1       2.617   4.328  19.007  0.00  0.00    +0.000 A 
ATOM      3  C   UNL     1       1.589   3.369  19.074  0.00  0.00    +0.000 A 
ATOM      4  C   UNL     1       1.594   2.245  18.241  0.00  0.00    +0.000 A 
ATOM      5  C   UNL     1       2.643   2.041  17.349  0.00  0.00    +0.000 A 
ATOM      6  C   UNL     1       3.686   2.961  17.298  0.00  0.00    +0.000 A 
ATOM      7  C   UNL     1       3.659   4.107  18.099  0.00  0.00    +0.000 A 
ATOM      8  N   UNL     1       4.715   5.041  18.002  0.00  0.00    +0.000 N 
ATOM      9  C   UNL     1       6.076   4.570  18.157  0.00  0.00    +0.000 C 
ATOM     10  C   UNL     1       4.529   6.390  17.708  0.00  0.00    +0.000 C 
ATOM     11  O   UNL     1       5.423   7.041  17.157  0.00  0.00    +0.000 OA
ATOM     12  C   UNL     1       3.298   7.124  18.102  0.00  0.00    +0.000 A 
ATOM     13  C   UNL     1       3.089   8.385  17.509  0.00  0.00    +0.000 A 
ATOM     14  C   UNL     1       2.135   9.246  18.031  0.00  0.00    +0.000 A 
ATOM     15  C   UNL     1       1.421   8.819  19.129  0.00  0.00    +0.000 A 
ATOM     16  F   UNL     1       0.537   9.658  19.685  0.00  0.00    +0.000 F 
ATOM     17  N   UNL     1       1.573   7.610  19.704  0.00  0.00    +0.000 NA
ATOM     18  C   UNL     1       2.504   6.754  19.199  0.00  0.00    +0.000 A 
ENDROOT
BRANCH   1  20
ATOM     19  C   UNL     1       2.376   4.030  21.774  0.00  0.00    +0.000 C 
ATOM     20  C   UNL     1       2.172   5.429  21.198  0.00  0.00    +0.000 C 
ENDBRANCH   1  20
TORSDOF 1
ENDMDL
MODEL 7
REMARK VINA RESULT:      -5.9      7.837     10.374
REMARK  Name = 
REMARK  3 active torsions:
REMARK  status: ('A' for Active; 'I' for Inactive)
REMARK    1  A    between atoms: C_1  and  C_2
REMARK    2  A    between atoms: C_2  and  N_3
REMARK    3  A    between atoms: N_10  and  C_11
REMARK                            x       y       z     vdW  Elec       q    Type
REMARK                         _______ _______ _______ _____ _____    ______ ____
ROOT
ATOM      1  N   UNL     1      -1.785  12.256  20.210  0.00  0.00    +0.000 N 
ATOM      2  C   UNL     1      -1.136  11.290  21.004  0.00  0.00    +0.000 A 
ATOM      3  C   UNL     1      -1.209  11.280  22.409  0.00  0.00    +0.000 A 
ATOM      4  C   UNL     1      -0.578  10.280  23.159  0.00  0.00    +0.000 A 
ATOM      5  C   UNL     1       0.163   9.291  22.520  0.00  0.00    +0.000 A 
ATOM      6  C   UNL     1       0.275   9.309  21.132  0.00  0.00    +0.000 A 
ATOM      7  C   UNL     1      -0.392  10.281  20.381  0.00  0.00    +0.000 A 
ATOM      8  N   UNL     1      -0.288  10.256  18.972  0.00  0.00    +0.000 N 
ATOM      9  C   UNL     1       1.031  10.231  18.372  0.00  0.00    +0.000 C 
ATOM     10  C   UNL     1      -1.386  10.195  18.117  0.00  0.00    +0.000 C 
ATOM     11  O   UNL     1      -1.280   9.689  16.995  0.00  0.00    +0.000 OA
ATOM     12  C   UNL     1      -2.700  10.793  18.472  0.00  0.00    +0.000 A 
ATOM     13  C   UNL     1      -3.805  10.426  17.678  0.00  0.00    +0.000 A 
ATOM     14  C   UNL     1      -4.986  11.148  17.758  0.00  0.00    +0.000 A 
ATOM     15  C   UNL     1      -5.024  12.215  18.629  0.00  0.00    +0.000 A 
ATOM     16  F   UNL     1      -6.135  12.963  18.677  0.00  0.00    +0.000 F 
ATOM     17  N   UNL     1      -3.999  12.577  19.425  0.00  0.00    +0.000 NA
ATOM     18  C   UNL     1      -2.835  11.874  19.358  0.00  0.00    +0.000 A 
ENDROOT
BRANCH   1  20
ATOM     19  C   UNL     1      -0.783  14.498  19.956  0.00  0.00    +0.000 C 
ATOM     20  C   UNL     1      -1.842  13.655  20.663  0.00  0.00    +0.000 C 
ENDBRANCH   1  20
TORSDOF 1
ENDMDL
MODEL 8
REMARK VINA RESULT:      -5.9      8.446     10.322
REMARK  Name = 
REMARK  3 active torsions:
REMARK  status: ('A' for Active; 'I' for Inactive)
REMARK    1  A    between atoms: C_1  and  C_2
REMARK    2  A    between atoms: C_2  and  N_3
REMARK    3  A    between atoms: N_10  and  C_11
REMARK                            x       y       z     vdW  Elec       q    Type
REMARK                         _______ _______ _______ _____ _____    ______ ____
ROOT
ATOM      1  N   UNL     1      -0.718  11.638  19.682  0.00  0.00    +0.000 N 
ATOM      2  C   UNL     1      -2.025  11.665  19.157  0.00  0.00    +0.000 A 
ATOM      3  C   UNL     1      -2.378  11.035  17.949  0.00  0.00    +0.000 A 
ATOM      4  C   UNL     1      -3.697  11.056  17.481  0.00  0.00    +0.000 A 
ATOM      5  C   UNL     1      -4.680  11.736  18.194  0.00  0.00    +0.000 A 
ATOM      6  C   UNL     1      -4.339  12.396  19.371  0.00  0.00    +0.000 A 
ATOM      7  C   UNL     1      -3.031  12.336  19.862  0.00  0.00    +0.000 A 
ATOM      8  N   UNL     1      -2.720  12.987  21.077  0.00  0.00    +0.000 N 
ATOM      9  C   UNL     1      -3.056  14.389  21.221  0.00  0.00    +0.000 C 
ATOM     10  C   UNL     1      -2.155  12.344  22.176  0.00  0.00    +0.000 C 
ATOM     11  O   UNL     1      -2.351  12.768  23.320  0.00  0.00    +0.000 OA
ATOM     12  C   UNL     1      -1.243  11.179  22.030  0.00  0.00    +0.000 A 
ATOM     13  C   UNL     1      -0.967  10.433  23.193  0.00  0.00    +0.000 A 
ATOM     14  C   UNL     1       0.082   9.526  23.202  0.00  0.00    +0.000 A 
ATOM     15  C   UNL     1       0.822   9.395  22.047  0.00  0.00    +0.000 A 
ATOM     16  F   UNL     1       1.877   8.568  22.053  0.00  0.00    +0.000 F 
ATOM     17  N   UNL     1       0.569  10.068  20.908  0.00  0.00    +0.000 NA
ATOM     18  C   UNL     1      -0.460  10.959  20.886  0.00  0.00    +0.000 A 
ENDROOT
BRANCH   1  20
ATOM     19  C   UNL     1       0.850  13.191  18.578  0.00  0.00    +0.000 C 
ATOM     20  C   UNL     1       0.436  11.735  18.774  0.00  0.00    +0.000 C 
ENDBRANCH   1  20
TORSDOF 1
ENDMDL
MODEL 9
REMARK VINA RESULT:      -5.8      9.536     12.226
REMARK  Name = 
REMARK  3 active torsions:
REMARK  status: ('A' for Active; 'I' for Inactive)
REMARK    1  A    between atoms: C_1  and  C_2
REMARK    2  A    between atoms: C_2  and  N_3
REMARK    3  A    between atoms: N_10  and  C_11
REMARK                            x       y       z     vdW  Elec       q    Type
REMARK                         _______ _______ _______ _____ _____    ______ ____
ROOT
ATOM      1  N   UNL     1      -4.982  12.106  18.584  0.00  0.00    +0.000 N 
ATOM      2  C   UNL     1      -5.796  12.063  19.733  0.00  0.00    +0.000 A 
ATOM      3  C   UNL     1      -6.929  11.235  19.838  0.00  0.00    +0.000 A 
ATOM      4  C   UNL     1      -7.690  11.197  21.012  0.00  0.00    +0.000 A 
ATOM      5  C   UNL     1      -7.353  12.010  22.089  0.00  0.00    +0.000 A 
ATOM      6  C   UNL     1      -6.258  12.863  21.986  0.00  0.00    +0.000 A 
ATOM      7  C   UNL     1      -5.471  12.868  20.831  0.00  0.00    +0.000 A 
ATOM      8  N   UNL     1      -4.345  13.719  20.767  0.00  0.00    +0.000 N 
ATOM      9  C   UNL     1      -4.523  15.130  21.043  0.00  0.00    +0.000 C 
ATOM     10  C   UNL     1      -3.051  13.272  20.507  0.00  0.00    +0.000 C 
ATOM     11  O   UNL     1      -2.074  13.897  20.932  0.00  0.00    +0.000 OA
ATOM     12  C   UNL     1      -2.780  12.083  19.656  0.00  0.00    +0.000 A 
ATOM     13  C   UNL     1      -1.476  11.552  19.698  0.00  0.00    +0.000 A 
ATOM     14  C   UNL     1      -1.068  10.641  18.734  0.00  0.00    +0.000 A 
ATOM     15  C   UNL     1      -1.977  10.292  17.759  0.00  0.00    +0.000 A 
ATOM     16  F   UNL     1      -1.584   9.461  16.785  0.00  0.00    +0.000 F 
ATOM     17  N   UNL     1      -3.241  10.757  17.705  0.00  0.00    +0.000 NA
ATOM     18  C   UNL     1      -3.655  11.648  18.648  0.00  0.00    +0.000 A 
ENDROOT
BRANCH   1  20
ATOM     19  C   UNL     1      -6.428  13.264  16.953  0.00  0.00    +0.000 C 
ATOM     20  C   UNL     1      -5.597  12.018  17.249  0.00  0.00    +0.000 C 
ENDBRANCH   1  20
TORSDOF 1
ENDMDL
