MODEL 1
REMARK VINA RESULT:      -7.4      0.000      0.000
REMARK  Name = 
REMARK  13 active torsions:
REMARK  status: ('A' for Active; 'I' for Inactive)
REMARK    1  A    between atoms: C_1  and  O_2
REMARK    2  A    between atoms: O_2  and  C_3
REMARK    3  A    between atoms: C_8  and  C_9
REMARK    4  A    between atoms: C_9  and  C_11
REMARK    5  A    between atoms: C_11  and  O_12
REMARK    6  A    between atoms: O_12  and  C_13
REMARK    7  A    between atoms: C_13  and  C_15
REMARK    8  A    between atoms: C_15  and  N_16
REMARK    9  A    between atoms: C_15  and  C_26
REMARK   10  A    between atoms: C_17  and  C_19
REMARK   11  A    between atoms: C_19  and  C_20
REMARK   12  A    between atoms: C_26  and  C_27
REMARK   13  A    between atoms: C_26  and  C_28
REMARK                            x       y       z     vdW  Elec       q    Type
REMARK                         _______ _______ _______ _____ _____    ______ ____
ROOT
ATOM      1  C   UNL     1       6.793   5.662  16.904  0.00  0.00    +0.000 C 
ENDROOT
BRANCH   1   2
ATOM      2  N   UNL     1       7.082   5.555  15.466  0.00  0.00    +0.000 N 
ATOM      3  C   UNL     1       6.724   4.455  14.717  0.00  0.00    +0.000 C 
ATOM      4  O   UNL     1       6.179   3.463  15.190  0.00  0.00    +0.000 OA
ATOM      5  H   UNL     1       7.407   6.384  14.984  0.00  0.00    +0.000 HD
BRANCH   3   6
ATOM      6  C   UNL     1       7.086   4.556  13.239  0.00  0.00    +0.000 C 
BRANCH   6   7
ATOM      7  C   UNL     1       6.327   3.577  12.380  0.00  0.00    +0.000 A 
ATOM      8  C   UNL     1       6.954   2.431  11.871  0.00  0.00    +0.000 A 
ATOM      9  C   UNL     1       6.247   1.538  11.062  0.00  0.00    +0.000 A 
ATOM     10  C   UNL     1       4.906   1.777  10.763  0.00  0.00    +0.000 A 
ATOM     11  C   UNL     1       4.267   2.898  11.283  0.00  0.00    +0.000 A 
ATOM     12  C   UNL     1       4.971   3.791  12.092  0.00  0.00    +0.000 A 
ENDBRANCH   6   7
ENDBRANCH   3   6
ENDBRANCH   1   2
BRANCH   1  13
ATOM     13  C   UNL     1       7.784   6.629  17.606  0.00  0.00    +0.000 C 
ATOM     14  C   UNL     1       7.312   8.085  17.504  0.00  0.00    +0.000 C 
ATOM     15  C   UNL     1       8.043   6.295  19.081  0.00  0.00    +0.000 C 
ENDBRANCH   1  13
BRANCH   1  16
ATOM     16  C   UNL     1       5.313   6.048  17.131  0.00  0.00    +0.000 C 
ATOM     17  O   UNL     1       4.684   6.844  16.443  0.00  0.00    +0.000 OA
BRANCH  16  18
ATOM     18  O   UNL     1       4.779   5.359  18.179  0.00  0.00    +0.000 OA
BRANCH  18  19
ATOM     19  C   UNL     1       4.318   6.184  19.255  0.00  0.00    +0.000 C 
BRANCH  19  20
ATOM     20  C   UNL     1       2.831   6.096  19.613  0.00  0.00    +0.000 C 
ATOM     21  O   UNL     1       2.125   7.107  19.665  0.00  0.00    +0.000 OA
BRANCH  20  27
ATOM     22  C   UNL     1       1.621   3.869  19.066  0.00  0.00    +0.000 A 
ATOM     23  C   UNL     1       1.185   2.608  19.516  0.00  0.00    +0.000 A 
ATOM     24  C   UNL     1       1.238   2.271  20.865  0.00  0.00    +0.000 A 
ATOM     25  C   UNL     1       1.764   3.172  21.777  0.00  0.00    +0.000 A 
ATOM     26  C   UNL     1       2.268   4.400  21.335  0.00  0.00    +0.000 A 
ATOM     27  C   UNL     1       2.221   4.764  19.975  0.00  0.00    +0.000 A 
BRANCH  22  29
ATOM     28  C   UNL     1       2.434   3.562  16.863  0.00  0.00    +0.000 C 
ATOM     29  O   UNL     1       1.507   4.202  17.748  0.00  0.00    +0.000 OA
ENDBRANCH  22  29
ENDBRANCH  20  27
ENDBRANCH  19  20
ENDBRANCH  18  19
ENDBRANCH  16  18
ENDBRANCH   1  16
TORSDOF 10
ENDMDL
MODEL 2
REMARK VINA RESULT:      -7.3      0.831      1.091
REMARK  Name = 
REMARK  13 active torsions:
REMARK  status: ('A' for Active; 'I' for Inactive)
REMARK    1  A    between atoms: C_1  and  O_2
REMARK    2  A    between atoms: O_2  and  C_3
REMARK    3  A    between atoms: C_8  and  C_9
REMARK    4  A    between atoms: C_9  and  C_11
REMARK    5  A    between atoms: C_11  and  O_12
REMARK    6  A    between atoms: O_12  and  C_13
REMARK    7  A    between atoms: C_13  and  C_15
REMARK    8  A    between atoms: C_15  and  N_16
REMARK    9  A    between atoms: C_15  and  C_26
REMARK   10  A    between atoms: C_17  and  C_19
REMARK   11  A    between atoms: C_19  and  C_20
REMARK   12  A    between atoms: C_26  and  C_27
REMARK   13  A    between atoms: C_26  and  C_28
REMARK                            x       y       z     vdW  Elec       q    Type
REMARK                         _______ _______ _______ _____ _____    ______ ____
ROOT
ATOM      1  C   UNL     1       7.238   4.805  17.633  0.00  0.00    +0.000 C 
ENDROOT
BRANCH   1   2
ATOM      2  N   UNL     1       7.226   5.125  16.198  0.00  0.00    +0.000 N 
ATOM      3  C   UNL     1       6.653   4.297  15.258  0.00  0.00    +0.000 C 
ATOM      4  O   UNL     1       6.147   3.213  15.529  0.00  0.00    +0.000 OA
ATOM      5  H   UNL     1       7.504   6.058  15.918  0.00  0.00    +0.000 HD
BRANCH   3   6
ATOM      6  C   UNL     1       6.719   4.828  13.829  0.00  0.00    +0.000 C 
BRANCH   6   7
ATOM      7  C   UNL     1       6.255   3.821  12.807  0.00  0.00    +0.000 A 
ATOM      8  C   UNL     1       7.165   2.945  12.198  0.00  0.00    +0.000 A 
ATOM      9  C   UNL     1       6.729   2.028  11.239  0.00  0.00    +0.000 A 
ATOM     10  C   UNL     1       5.382   1.970  10.888  0.00  0.00    +0.000 A 
ATOM     11  C   UNL     1       4.466   2.818  11.504  0.00  0.00    +0.000 A 
ATOM     12  C   UNL     1       4.898   3.735  12.463  0.00  0.00    +0.000 A 
ENDBRANCH   6   7
ENDBRANCH   3   6
ENDBRANCH   1   2
BRANCH   1  13
ATOM     13  C   UNL     1       8.062   5.848  18.436  0.00  0.00    +0.000 C 
ATOM     14  C   UNL     1       7.776   7.276  17.953  0.00  0.00    +0.000 C 
ATOM     15  C   UNL     1       7.841   5.785  19.953  0.00  0.00    +0.000 C 
ENDBRANCH   1  13
BRANCH   1  16
ATOM     16  C   UNL     1       5.795   4.640  18.163  0.00  0.00    +0.000 C 
ATOM     17  O   UNL     1       5.426   3.751  18.923  0.00  0.00    +0.000 OA
BRANCH  16  18
ATOM     18  O   UNL     1       4.986   5.637  17.707  0.00  0.00    +0.000 OA
BRANCH  18  19
ATOM     19  C   UNL     1       4.226   6.295  18.728  0.00  0.00    +0.000 C 
BRANCH  19  20
ATOM     20  C   UNL     1       2.723   6.001  18.778  0.00  0.00    +0.000 C 
ATOM     21  O   UNL     1       1.903   6.779  18.284  0.00  0.00    +0.000 OA
BRANCH  20  27
ATOM     22  C   UNL     1       1.683   3.627  18.875  0.00  0.00    +0.000 A 
ATOM     23  C   UNL     1       1.347   2.505  19.656  0.00  0.00    +0.000 A 
ATOM     24  C   UNL     1       1.435   2.545  21.044  0.00  0.00    +0.000 A 
ATOM     25  C   UNL     1       1.896   3.693  21.669  0.00  0.00    +0.000 A 
ATOM     26  C   UNL     1       2.302   4.791  20.903  0.00  0.00    +0.000 A 
ATOM     27  C   UNL     1       2.219   4.773  19.497  0.00  0.00    +0.000 A 
BRANCH  22  29
ATOM     28  C   UNL     1       2.659   3.084  16.786  0.00  0.00    +0.000 C 
ATOM     29  O   UNL     1       1.535   3.587  17.519  0.00  0.00    +0.000 OA
ENDBRANCH  22  29
ENDBRANCH  20  27
ENDBRANCH  19  20
ENDBRANCH  18  19
ENDBRANCH  16  18
ENDBRANCH   1  16
TORSDOF 10
ENDMDL
MODEL 3
REMARK VINA RESULT:      -7.2      3.533      8.508
REMARK  Name = 
REMARK  13 active torsions:
REMARK  status: ('A' for Active; 'I' for Inactive)
REMARK    1  A    between atoms: C_1  and  O_2
REMARK    2  A    between atoms: O_2  and  C_3
REMARK    3  A    between atoms: C_8  and  C_9
REMARK    4  A    between atoms: C_9  and  C_11
REMARK    5  A    between atoms: C_11  and  O_12
REMARK    6  A    between atoms: O_12  and  C_13
REMARK    7  A    between atoms: C_13  and  C_15
REMARK    8  A    between atoms: C_15  and  N_16
REMARK    9  A    between atoms: C_15  and  C_26
REMARK   10  A    between atoms: C_17  and  C_19
REMARK   11  A    between atoms: C_19  and  C_20
REMARK   12  A    between atoms: C_26  and  C_27
REMARK   13  A    between atoms: C_26  and  C_28
REMARK                            x       y       z     vdW  Elec       q    Type
REMARK                         _______ _______ _______ _____ _____    ______ ____
ROOT
ATOM      1  C   UNL     1       6.443   5.560  17.383  0.00  0.00    +0.000 C 
ENDROOT
BRANCH   1   2
ATOM      2  N   UNL     1       5.064   5.816  17.826  0.00  0.00    +0.000 N 
ATOM      3  C   UNL     1       4.064   4.876  17.722  0.00  0.00    +0.000 C 
ATOM      4  O   UNL     1       4.225   3.770  17.215  0.00  0.00    +0.000 OA
ATOM      5  H   UNL     1       4.889   6.652  18.372  0.00  0.00    +0.000 HD
BRANCH   3   6
ATOM      6  C   UNL     1       2.714   5.330  18.268  0.00  0.00    +0.000 C 
BRANCH   6   7
ATOM      7  C   UNL     1       2.190   4.431  19.360  0.00  0.00    +0.000 A 
ATOM      8  C   UNL     1       2.598   4.605  20.690  0.00  0.00    +0.000 A 
ATOM      9  C   UNL     1       2.121   3.757  21.692  0.00  0.00    +0.000 A 
ATOM     10  C   UNL     1       1.225   2.737  21.377  0.00  0.00    +0.000 A 
ATOM     11  C   UNL     1       0.794   2.571  20.064  0.00  0.00    +0.000 A 
ATOM     12  C   UNL     1       1.269   3.418  19.061  0.00  0.00    +0.000 A 
ENDBRANCH   6   7
ENDBRANCH   3   6
ENDBRANCH   1   2
BRANCH   1  13
ATOM     13  C   UNL     1       6.609   5.845  15.866  0.00  0.00    +0.000 C 
ATOM     14  C   UNL     1       6.979   4.571  15.095  0.00  0.00    +0.000 C 
ATOM     15  C   UNL     1       5.376   6.479  15.210  0.00  0.00    +0.000 C 
ENDBRANCH   1  13
BRANCH   1  16
ATOM     16  C   UNL     1       7.448   6.347  18.257  0.00  0.00    +0.000 C 
ATOM     17  O   UNL     1       8.047   5.884  19.220  0.00  0.00    +0.000 OA
BRANCH  16  18
ATOM     18  O   UNL     1       7.613   7.617  17.794  0.00  0.00    +0.000 OA
BRANCH  18  19
ATOM     19  C   UNL     1       8.566   8.395  18.531  0.00  0.00    +0.000 C 
BRANCH  19  20
ATOM     20  C   UNL     1       8.551   9.910  18.308  0.00  0.00    +0.000 C 
ATOM     21  O   UNL     1       7.695  10.443  17.598  0.00  0.00    +0.000 OA
BRANCH  20  27
ATOM     22  C   UNL     1       9.610  11.329  20.203  0.00  0.00    +0.000 A 
ATOM     23  C   UNL     1      10.736  12.025  20.683  0.00  0.00    +0.000 A 
ATOM     24  C   UNL     1      11.834  12.264  19.863  0.00  0.00    +0.000 A 
ATOM     25  C   UNL     1      11.840  11.777  18.566  0.00  0.00    +0.000 A 
ATOM     26  C   UNL     1      10.760  11.021  18.098  0.00  0.00    +0.000 A 
ATOM     27  C   UNL     1       9.636  10.770  18.909  0.00  0.00    +0.000 A 
BRANCH  22  29
ATOM     28  C   UNL     1       8.634  11.684  22.331  0.00  0.00    +0.000 C 
ATOM     29  O   UNL     1       8.519  11.155  21.004  0.00  0.00    +0.000 OA
ENDBRANCH  22  29
ENDBRANCH  20  27
ENDBRANCH  19  20
ENDBRANCH  18  19
ENDBRANCH  16  18
ENDBRANCH   1  16
TORSDOF 10
ENDMDL
MODEL 4
REMARK VINA RESULT:      -7.2      2.378      4.690
REMARK  Name = 
REMARK  13 active torsions:
REMARK  status: ('A' for Active; 'I' for Inactive)
REMARK    1  A    between atoms: C_1  and  O_2
REMARK    2  A    between atoms: O_2  and  C_3
REMARK    3  A    between atoms: C_8  and  C_9
REMARK    4  A    between atoms: C_9  and  C_11
REMARK    5  A    between atoms: C_11  and  O_12
REMARK    6  A    between atoms: O_12  and  C_13
REMARK    7  A    between atoms: C_13  and  C_15
REMARK    8  A    between atoms: C_15  and  N_16
REMARK    9  A    between atoms: C_15  and  C_26
REMARK   10  A    between atoms: C_17  and  C_19
REMARK   11  A    between atoms: C_19  and  C_20
REMARK   12  A    between atoms: C_26  and  C_27
REMARK   13  A    between atoms: C_26  and  C_28
REMARK                            x       y       z     vdW  Elec       q    Type
REMARK                         _______ _______ _______ _____ _____    ______ ____
ROOT
ATOM      1  C   UNL     1       4.080   4.078  18.019  0.00  0.00    +0.000 C 
ENDROOT
BRANCH   1   2
ATOM      2  N   UNL     1       5.312   4.004  17.220  0.00  0.00    +0.000 N 
ATOM      3  C   UNL     1       5.827   5.090  16.547  0.00  0.00    +0.000 C 
ATOM      4  O   UNL     1       5.283   6.190  16.521  0.00  0.00    +0.000 OA
ATOM      5  H   UNL     1       5.882   3.171  17.303  0.00  0.00    +0.000 HD
BRANCH   3   6
ATOM      6  C   UNL     1       7.129   4.810  15.804  0.00  0.00    +0.000 C 
BRANCH   6   7
ATOM      7  C   UNL     1       6.919   4.512  14.341  0.00  0.00    +0.000 A 
ATOM      8  C   UNL     1       7.737   5.095  13.364  0.00  0.00    +0.000 A 
ATOM      9  C   UNL     1       7.524   4.826  12.010  0.00  0.00    +0.000 A 
ATOM     10  C   UNL     1       6.499   3.965  11.621  0.00  0.00    +0.000 A 
ATOM     11  C   UNL     1       5.697   3.360  12.584  0.00  0.00    +0.000 A 
ATOM     12  C   UNL     1       5.908   3.627  13.938  0.00  0.00    +0.000 A 
ENDBRANCH   6   7
ENDBRANCH   3   6
ENDBRANCH   1   2
BRANCH   1  13
ATOM     13  C   UNL     1       2.903   3.356  17.309  0.00  0.00    +0.000 C 
ATOM     14  C   UNL     1       2.734   1.922  17.826  0.00  0.00    +0.000 C 
ATOM     15  C   UNL     1       1.559   4.087  17.427  0.00  0.00    +0.000 C 
ENDBRANCH   1  13
BRANCH   1  16
ATOM     16  C   UNL     1       4.332   3.552  19.452  0.00  0.00    +0.000 C 
ATOM     17  O   UNL     1       5.016   2.574  19.727  0.00  0.00    +0.000 OA
BRANCH  16  18
ATOM     18  O   UNL     1       3.723   4.343  20.380  0.00  0.00    +0.000 OA
BRANCH  18  19
ATOM     19  C   UNL     1       3.528   5.700  19.964  0.00  0.00    +0.000 C 
BRANCH  19  20
ATOM     20  C   UNL     1       2.136   6.302  20.178  0.00  0.00    +0.000 C 
ATOM     21  O   UNL     1       1.247   5.668  20.752  0.00  0.00    +0.000 OA
BRANCH  20  27
ATOM     22  C   UNL     1       1.112   8.681  20.310  0.00  0.00    +0.000 A 
ATOM     23  C   UNL     1       0.970   9.951  19.719  0.00  0.00    +0.000 A 
ATOM     24  C   UNL     1       1.416  10.193  18.424  0.00  0.00    +0.000 A 
ATOM     25  C   UNL     1       2.045   9.182  17.715  0.00  0.00    +0.000 A 
ATOM     26  C   UNL     1       2.258   7.936  18.315  0.00  0.00    +0.000 A 
ATOM     27  C   UNL     1       1.813   7.668  19.624  0.00  0.00    +0.000 A 
BRANCH  22  29
ATOM     28  C   UNL     1       1.086   9.327  22.588  0.00  0.00    +0.000 C 
ATOM     29  O   UNL     1       0.616   8.447  21.559  0.00  0.00    +0.000 OA
ENDBRANCH  22  29
ENDBRANCH  20  27
ENDBRANCH  19  20
ENDBRANCH  18  19
ENDBRANCH  16  18
ENDBRANCH   1  16
TORSDOF 10
ENDMDL
MODEL 5
REMARK VINA RESULT:      -7.2      4.075      6.791
REMARK  Name = 
REMARK  13 active torsions:
REMARK  status: ('A' for Active; 'I' for Inactive)
REMARK    1  A    between atoms: C_1  and  O_2
REMARK    2  A    between atoms: O_2  and  C_3
REMARK    3  A    between atoms: C_8  and  C_9
REMARK    4  A    between atoms: C_9  and  C_11
REMARK    5  A    between atoms: C_11  and  O_12
REMARK    6  A    between atoms: O_12  and  C_13
REMARK    7  A    between atoms: C_13  and  C_15
REMARK    8  A    between atoms: C_15  and  N_16
REMARK    9  A    between atoms: C_15  and  C_26
REMARK   10  A    between atoms: C_17  and  C_19
REMARK   11  A    between atoms: C_19  and  C_20
REMARK   12  A    between atoms: C_26  and  C_27
REMARK   13  A    between atoms: C_26  and  C_28
REMARK                            x       y       z     vdW  Elec       q    Type
REMARK                         _______ _______ _______ _____ _____    ______ ____
ROOT
ATOM      1  C   UNL     1       1.886   5.292  19.467  0.00  0.00    +0.000 C 
ENDROOT
BRANCH   1   2
ATOM      2  N   UNL     1       3.133   4.808  18.858  0.00  0.00    +0.000 N 
ATOM      3  C   UNL     1       3.156   4.085  17.686  0.00  0.00    +0.000 C 
ATOM      4  O   UNL     1       2.143   3.750  17.078  0.00  0.00    +0.000 OA
ATOM      5  H   UNL     1       4.009   5.157  19.229  0.00  0.00    +0.000 HD
BRANCH   3   6
ATOM      6  C   UNL     1       4.553   3.706  17.207  0.00  0.00    +0.000 C 
BRANCH   6   7
ATOM      7  C   UNL     1       5.564   4.806  17.415  0.00  0.00    +0.000 A 
ATOM      8  C   UNL     1       6.673   4.614  18.250  0.00  0.00    +0.000 A 
ATOM      9  C   UNL     1       7.595   5.644  18.450  0.00  0.00    +0.000 A 
ATOM     10  C   UNL     1       7.423   6.870  17.810  0.00  0.00    +0.000 A 
ATOM     11  C   UNL     1       6.338   7.064  16.958  0.00  0.00    +0.000 A 
ATOM     12  C   UNL     1       5.417   6.036  16.756  0.00  0.00    +0.000 A 
ENDBRANCH   6   7
ENDBRANCH   3   6
ENDBRANCH   1   2
BRANCH   1  13
ATOM     13  C   UNL     1       1.440   4.379  20.641  0.00  0.00    +0.000 C 
ATOM     14  C   UNL     1       0.545   3.234  20.148  0.00  0.00    +0.000 C 
ATOM     15  C   UNL     1       2.602   3.786  21.448  0.00  0.00    +0.000 C 
ENDBRANCH   1  13
BRANCH   1  16
ATOM     16  C   UNL     1       2.025   6.777  19.880  0.00  0.00    +0.000 C 
ATOM     17  O   UNL     1       2.528   7.651  19.183  0.00  0.00    +0.000 OA
BRANCH  16  18
ATOM     18  O   UNL     1       1.480   7.000  21.108  0.00  0.00    +0.000 OA
BRANCH  18  19
ATOM     19  C   UNL     1       0.465   8.012  21.129  0.00  0.00    +0.000 C 
BRANCH  19  20
ATOM     20  C   UNL     1       0.772   9.291  21.914  0.00  0.00    +0.000 C 
ATOM     21  O   UNL     1       1.804   9.400  22.580  0.00  0.00    +0.000 OA
BRANCH  20  27
ATOM     22  C   UNL     1      -0.472  11.313  20.869  0.00  0.00    +0.000 A 
ATOM     23  C   UNL     1      -1.509  12.258  20.977  0.00  0.00    +0.000 A 
ATOM     24  C   UNL     1      -2.232  12.399  22.158  0.00  0.00    +0.000 A 
ATOM     25  C   UNL     1      -1.954  11.571  23.234  0.00  0.00    +0.000 A 
ATOM     26  C   UNL     1      -0.974  10.579  23.118  0.00  0.00    +0.000 A 
ATOM     27  C   UNL     1      -0.229  10.421  21.933  0.00  0.00    +0.000 A 
BRANCH  22  29
ATOM     28  C   UNL     1      -0.403  10.641  18.599  0.00  0.00    +0.000 C 
ATOM     29  O   UNL     1       0.264  11.230  19.723  0.00  0.00    +0.000 OA
ENDBRANCH  22  29
ENDBRANCH  20  27
ENDBRANCH  19  20
ENDBRANCH  18  19
ENDBRANCH  16  18
ENDBRANCH   1  16
TORSDOF 10
ENDMDL
MODEL 6
REMARK VINA RESULT:      -7.1      3.866      7.043
REMARK  Name = 
REMARK  13 active torsions:
REMARK  status: ('A' for Active; 'I' for Inactive)
REMARK    1  A    between atoms: C_1  and  O_2
REMARK    2  A    between atoms: O_2  and  C_3
REMARK    3  A    between atoms: C_8  and  C_9
REMARK    4  A    between atoms: C_9  and  C_11
REMARK    5  A    between atoms: C_11  and  O_12
REMARK    6  A    between atoms: O_12  and  C_13
REMARK    7  A    between atoms: C_13  and  C_15
REMARK    8  A    between atoms: C_15  and  N_16
REMARK    9  A    between atoms: C_15  and  C_26
REMARK   10  A    between atoms: C_17  and  C_19
REMARK   11  A    between atoms: C_19  and  C_20
REMARK   12  A    between atoms: C_26  and  C_27
REMARK   13  A    between atoms: C_26  and  C_28
REMARK                            x       y       z     vdW  Elec       q    Type
REMARK                         _______ _______ _______ _____ _____    ______ ____
ROOT
ATOM      1  C   UNL     1       2.047   4.807  19.436  0.00  0.00    +0.000 C 
ENDROOT
BRANCH   1   2
ATOM      2  N   UNL     1       3.492   4.556  19.324  0.00  0.00    +0.000 N 
ATOM      3  C   UNL     1       4.092   4.186  18.141  0.00  0.00    +0.000 C 
ATOM      4  O   UNL     1       3.472   3.994  17.099  0.00  0.00    +0.000 OA
ATOM      5  H   UNL     1       4.081   4.822  20.104  0.00  0.00    +0.000 HD
BRANCH   3   6
ATOM      6  C   UNL     1       5.603   4.005  18.232  0.00  0.00    +0.000 C 
BRANCH   6   7
ATOM      7  C   UNL     1       6.359   5.304  18.106  0.00  0.00    +0.000 A 
ATOM      8  C   UNL     1       5.956   6.283  17.186  0.00  0.00    +0.000 A 
ATOM      9  C   UNL     1       6.672   7.475  17.064  0.00  0.00    +0.000 A 
ATOM     10  C   UNL     1       7.789   7.706  17.865  0.00  0.00    +0.000 A 
ATOM     11  C   UNL     1       8.183   6.752  18.799  0.00  0.00    +0.000 A 
ATOM     12  C   UNL     1       7.469   5.560  18.924  0.00  0.00    +0.000 A 
ENDBRANCH   6   7
ENDBRANCH   3   6
ENDBRANCH   1   2
BRANCH   1  13
ATOM     13  C   UNL     1       1.347   3.708  20.280  0.00  0.00    +0.000 C 
ATOM     14  C   UNL     1       0.818   2.575  19.392  0.00  0.00    +0.000 C 
ATOM     15  C   UNL     1       2.233   3.105  21.377  0.00  0.00    +0.000 C 
ENDBRANCH   1  13
BRANCH   1  16
ATOM     16  C   UNL     1       1.786   6.235  19.971  0.00  0.00    +0.000 C 
ATOM     17  O   UNL     1       1.453   6.501  21.120  0.00  0.00    +0.000 OA
BRANCH  16  18
ATOM     18  O   UNL     1       2.012   7.171  19.007  0.00  0.00    +0.000 OA
BRANCH  18  19
ATOM     19  C   UNL     1       1.849   8.525  19.449  0.00  0.00    +0.000 C 
BRANCH  19  20
ATOM     20  C   UNL     1       1.421   9.554  18.398  0.00  0.00    +0.000 C 
ATOM     21  O   UNL     1       2.169   9.869  17.469  0.00  0.00    +0.000 OA
BRANCH  20  27
ATOM     22  C   UNL     1      -0.195  11.312  19.409  0.00  0.00    +0.000 A 
ATOM     23  C   UNL     1      -1.451  11.947  19.355  0.00  0.00    +0.000 A 
ATOM     24  C   UNL     1      -2.457  11.475  18.517  0.00  0.00    +0.000 A 
ATOM     25  C   UNL     1      -2.210  10.388  17.694  0.00  0.00    +0.000 A 
ATOM     26  C   UNL     1      -0.944   9.792  17.684  0.00  0.00    +0.000 A 
ATOM     27  C   UNL     1       0.088  10.251  18.526  0.00  0.00    +0.000 A 
BRANCH  22  29
ATOM     28  C   UNL     1       1.160  13.121  20.120  0.00  0.00    +0.000 C 
ATOM     29  O   UNL     1       0.758  11.754  20.280  0.00  0.00    +0.000 OA
ENDBRANCH  22  29
ENDBRANCH  20  27
ENDBRANCH  19  20
ENDBRANCH  18  19
ENDBRANCH  16  18
ENDBRANCH   1  16
TORSDOF 10
ENDMDL
MODEL 7
REMARK VINA RESULT:      -7.1      3.277      5.729
REMARK  Name = 
REMARK  13 active torsions:
REMARK  status: ('A' for Active; 'I' for Inactive)
REMARK    1  A    between atoms: C_1  and  O_2
REMARK    2  A    between atoms: O_2  and  C_3
REMARK    3  A    between atoms: C_8  and  C_9
REMARK    4  A    between atoms: C_9  and  C_11
REMARK    5  A    between atoms: C_11  and  O_12
REMARK    6  A    between atoms: O_12  and  C_13
REMARK    7  A    between atoms: C_13  and  C_15
REMARK    8  A    between atoms: C_15  and  N_16
REMARK    9  A    between atoms: C_15  and  C_26
REMARK   10  A    between atoms: C_17  and  C_19
REMARK   11  A    between atoms: C_19  and  C_20
REMARK   12  A    between atoms: C_26  and  C_27
REMARK   13  A    between atoms: C_26  and  C_28
REMARK                            x       y       z     vdW  Elec       q    Type
REMARK                         _______ _______ _______ _____ _____    ______ ____
ROOT
ATOM      1  C   UNL     1       5.943   6.244  17.548  0.00  0.00    +0.000 C 
ENDROOT
BRANCH   1   2
ATOM      2  N   UNL     1       5.560   4.888  17.972  0.00  0.00    +0.000 N 
ATOM      3  C   UNL     1       5.018   4.623  19.210  0.00  0.00    +0.000 C 
ATOM      4  O   UNL     1       4.849   5.479  20.072  0.00  0.00    +0.000 OA
ATOM      5  H   UNL     1       5.547   4.158  17.270  0.00  0.00    +0.000 HD
BRANCH   3   6
ATOM      6  C   UNL     1       4.662   3.158  19.439  0.00  0.00    +0.000 C 
BRANCH   6   7
ATOM      7  C   UNL     1       3.181   2.933  19.612  0.00  0.00    +0.000 A 
ATOM      8  C   UNL     1       2.581   3.037  20.875  0.00  0.00    +0.000 A 
ATOM      9  C   UNL     1       1.212   2.811  21.028  0.00  0.00    +0.000 A 
ATOM     10  C   UNL     1       0.428   2.490  19.921  0.00  0.00    +0.000 A 
ATOM     11  C   UNL     1       1.008   2.409  18.659  0.00  0.00    +0.000 A 
ATOM     12  C   UNL     1       2.376   2.635  18.503  0.00  0.00    +0.000 A 
ENDBRANCH   6   7
ENDBRANCH   3   6
ENDBRANCH   1   2
BRANCH   1  13
ATOM     13  C   UNL     1       7.473   6.467  17.685  0.00  0.00    +0.000 C 
ATOM     14  C   UNL     1       7.832   7.955  17.582  0.00  0.00    +0.000 C 
ATOM     15  C   UNL     1       8.074   5.900  18.978  0.00  0.00    +0.000 C 
ENDBRANCH   1  13
BRANCH   1  16
ATOM     16  C   UNL     1       5.417   6.534  16.123  0.00  0.00    +0.000 C 
ATOM     17  O   UNL     1       5.998   6.228  15.088  0.00  0.00    +0.000 OA
BRANCH  16  18
ATOM     18  O   UNL     1       4.198   7.143  16.161  0.00  0.00    +0.000 OA
BRANCH  18  19
ATOM     19  C   UNL     1       3.867   7.719  17.431  0.00  0.00    +0.000 C 
BRANCH  19  20
ATOM     20  C   UNL     1       2.636   7.160  18.151  0.00  0.00    +0.000 C 
ATOM     21  O   UNL     1       2.166   6.060  17.852  0.00  0.00    +0.000 OA
BRANCH  20  27
ATOM     22  C   UNL     1       1.495   9.316  19.032  0.00  0.00    +0.000 A 
ATOM     23  C   UNL     1       0.761   9.941  20.058  0.00  0.00    +0.000 A 
ATOM     24  C   UNL     1       0.554   9.308  21.280  0.00  0.00    +0.000 A 
ATOM     25  C   UNL     1       1.045   8.028  21.481  0.00  0.00    +0.000 A 
ATOM     26  C   UNL     1       1.714   7.366  20.445  0.00  0.00    +0.000 A 
ATOM     27  C   UNL     1       1.937   7.989  19.202  0.00  0.00    +0.000 A 
BRANCH  22  29
ATOM     28  C   UNL     1       2.237  11.313  17.997  0.00  0.00    +0.000 C 
ATOM     29  O   UNL     1       1.736   9.976  17.863  0.00  0.00    +0.000 OA
ENDBRANCH  22  29
ENDBRANCH  20  27
ENDBRANCH  19  20
ENDBRANCH  18  19
ENDBRANCH  16  18
ENDBRANCH   1  16
TORSDOF 10
ENDMDL
MODEL 8
REMARK VINA RESULT:      -7.0      2.707      5.961
REMARK  Name = 
REMARK  13 active torsions:
REMARK  status: ('A' for Active; 'I' for Inactive)
REMARK    1  A    between atoms: C_1  and  O_2
REMARK    2  A    between atoms: O_2  and  C_3
REMARK    3  A    between atoms: C_8  and  C_9
REMARK    4  A    between atoms: C_9  and  C_11
REMARK    5  A    between atoms: C_11  and  O_12
REMARK    6  A    between atoms: O_12  and  C_13
REMARK    7  A    between atoms: C_13  and  C_15
REMARK    8  A    between atoms: C_15  and  N_16
REMARK    9  A    between atoms: C_15  and  C_26
REMARK   10  A    between atoms: C_17  and  C_19
REMARK   11  A    between atoms: C_19  and  C_20
REMARK   12  A    between atoms: C_26  and  C_27
REMARK   13  A    between atoms: C_26  and  C_28
REMARK                            x       y       z     vdW  Elec       q    Type
REMARK                         _______ _______ _______ _____ _____    ______ ____
ROOT
ATOM      1  C   UNL     1       5.754   4.938  16.889  0.00  0.00    +0.000 C 
ENDROOT
BRANCH   1   2
ATOM      2  N   UNL     1       5.113   3.946  17.767  0.00  0.00    +0.000 N 
ATOM      3  C   UNL     1       5.349   3.892  19.123  0.00  0.00    +0.000 C 
ATOM      4  O   UNL     1       6.139   4.631  19.702  0.00  0.00    +0.000 OA
ATOM      5  H   UNL     1       4.354   3.395  17.384  0.00  0.00    +0.000 HD
BRANCH   3   6
ATOM      6  C   UNL     1       4.561   2.811  19.855  0.00  0.00    +0.000 C 
BRANCH   6   7
ATOM      7  C   UNL     1       3.070   3.027  19.792  0.00  0.00    +0.000 A 
ATOM      8  C   UNL     1       2.457   4.036  20.549  0.00  0.00    +0.000 A 
ATOM      9  C   UNL     1       1.074   4.217  20.498  0.00  0.00    +0.000 A 
ATOM     10  C   UNL     1       0.291   3.400  19.683  0.00  0.00    +0.000 A 
ATOM     11  C   UNL     1       0.891   2.411  18.909  0.00  0.00    +0.000 A 
ATOM     12  C   UNL     1       2.274   2.229  18.958  0.00  0.00    +0.000 A 
ENDBRANCH   6   7
ENDBRANCH   3   6
ENDBRANCH   1   2
BRANCH   1  13
ATOM     13  C   UNL     1       6.303   4.276  15.597  0.00  0.00    +0.000 C 
ATOM     14  C   UNL     1       5.203   4.120  14.539  0.00  0.00    +0.000 C 
ATOM     15  C   UNL     1       7.491   5.017  14.971  0.00  0.00    +0.000 C 
ENDBRANCH   1  13
BRANCH   1  16
ATOM     16  C   UNL     1       4.787   6.111  16.601  0.00  0.00    +0.000 C 
ATOM     17  O   UNL     1       5.022   7.038  15.835  0.00  0.00    +0.000 OA
BRANCH  16  18
ATOM     18  O   UNL     1       3.616   5.962  17.283  0.00  0.00    +0.000 OA
BRANCH  18  19
ATOM     19  C   UNL     1       3.458   6.863  18.386  0.00  0.00    +0.000 C 
BRANCH  19  20
ATOM     20  C   UNL     1       2.485   8.031  18.198  0.00  0.00    +0.000 C 
ATOM     21  O   UNL     1       2.441   8.662  17.139  0.00  0.00    +0.000 OA
BRANCH  20  27
ATOM     22  C   UNL     1       0.601   9.456  19.268  0.00  0.00    +0.000 A 
ATOM     23  C   UNL     1      -0.223   9.697  20.383  0.00  0.00    +0.000 A 
ATOM     24  C   UNL     1       0.005   9.053  21.595  0.00  0.00    +0.000 A 
ATOM     25  C   UNL     1       1.034   8.131  21.699  0.00  0.00    +0.000 A 
ATOM     26  C   UNL     1       1.816   7.828  20.579  0.00  0.00    +0.000 A 
ATOM     27  C   UNL     1       1.605   8.470  19.343  0.00  0.00    +0.000 A 
BRANCH  22  29
ATOM     28  C   UNL     1      -0.812  10.908  18.041  0.00  0.00    +0.000 C 
ATOM     29  O   UNL     1       0.397  10.141  18.105  0.00  0.00    +0.000 OA
ENDBRANCH  22  29
ENDBRANCH  20  27
ENDBRANCH  19  20
ENDBRANCH  18  19
ENDBRANCH  16  18
ENDBRANCH   1  16
TORSDOF 10
ENDMDL
MODEL 9
REMARK VINA RESULT:      -7.0      3.874      6.841
REMARK  Name = 
REMARK  13 active torsions:
REMARK  status: ('A' for Active; 'I' for Inactive)
REMARK    1  A    between atoms: C_1  and  O_2
REMARK    2  A    between atoms: O_2  and  C_3
REMARK    3  A    between atoms: C_8  and  C_9
REMARK    4  A    between atoms: C_9  and  C_11
REMARK    5  A    between atoms: C_11  and  O_12
REMARK    6  A    between atoms: O_12  and  C_13
REMARK    7  A    between atoms: C_13  and  C_15
REMARK    8  A    between atoms: C_15  and  N_16
REMARK    9  A    between atoms: C_15  and  C_26
REMARK   10  A    between atoms: C_17  and  C_19
REMARK   11  A    between atoms: C_19  and  C_20
REMARK   12  A    between atoms: C_26  and  C_27
REMARK   13  A    between atoms: C_26  and  C_28
REMARK                            x       y       z     vdW  Elec       q    Type
REMARK                         _______ _______ _______ _____ _____    ______ ____
ROOT
ATOM      1  C   UNL     1       2.170   5.536  19.360  0.00  0.00    +0.000 C 
ENDROOT
BRANCH   1   2
ATOM      2  N   UNL     1       3.578   5.141  19.205  0.00  0.00    +0.000 N 
ATOM      3  C   UNL     1       4.039   4.453  18.105  0.00  0.00    +0.000 C 
ATOM      4  O   UNL     1       3.314   4.077  17.189  0.00  0.00    +0.000 OA
ATOM      5  H   UNL     1       4.253   5.530  19.852  0.00  0.00    +0.000 HD
BRANCH   3   6
ATOM      6  C   UNL     1       5.537   4.168  18.124  0.00  0.00    +0.000 C 
BRANCH   6   7
ATOM      7  C   UNL     1       6.375   5.422  18.074  0.00  0.00    +0.000 A 
ATOM      8  C   UNL     1       6.110   6.426  17.132  0.00  0.00    +0.000 A 
ATOM      9  C   UNL     1       6.901   7.575  17.083  0.00  0.00    +0.000 A 
ATOM     10  C   UNL     1       7.956   7.737  17.979  0.00  0.00    +0.000 A 
ATOM     11  C   UNL     1       8.213   6.758  18.935  0.00  0.00    +0.000 A 
ATOM     12  C   UNL     1       7.423   5.609  18.987  0.00  0.00    +0.000 A 
ENDBRANCH   6   7
ENDBRANCH   3   6
ENDBRANCH   1   2
BRANCH   1  13
ATOM     13  C   UNL     1       1.441   4.634  20.392  0.00  0.00    +0.000 C 
ATOM     14  C   UNL     1       0.777   3.430  19.711  0.00  0.00    +0.000 C 
ATOM     15  C   UNL     1       2.343   4.126  21.525  0.00  0.00    +0.000 C 
ENDBRANCH   1  13
BRANCH   1  16
ATOM     16  C   UNL     1       2.064   7.042  19.697  0.00  0.00    +0.000 C 
ATOM     17  O   UNL     1       1.598   7.495  20.736  0.00  0.00    +0.000 OA
BRANCH  16  18
ATOM     18  O   UNL     1       2.594   7.807  18.702  0.00  0.00    +0.000 OA
BRANCH  18  19
ATOM     19  C   UNL     1       1.626   8.547  17.947  0.00  0.00    +0.000 C 
BRANCH  19  20
ATOM     20  C   UNL     1       1.614  10.068  18.129  0.00  0.00    +0.000 C 
ATOM     21  O   UNL     1       2.487  10.779  17.626  0.00  0.00    +0.000 OA
BRANCH  20  27
ATOM     22  C   UNL     1      -0.816  10.792  18.676  0.00  0.00    +0.000 A 
ATOM     23  C   UNL     1      -1.716  11.327  19.616  0.00  0.00    +0.000 A 
ATOM     24  C   UNL     1      -1.262  11.880  20.810  0.00  0.00    +0.000 A 
ATOM     25  C   UNL     1       0.094  11.869  21.098  0.00  0.00    +0.000 A 
ATOM     26  C   UNL     1       0.993  11.276  20.206  0.00  0.00    +0.000 A 
ATOM     27  C   UNL     1       0.556  10.714  18.991  0.00  0.00    +0.000 A 
BRANCH  22  29
ATOM     28  C   UNL     1      -2.374  11.025  16.907  0.00  0.00    +0.000 C 
ATOM     29  O   UNL     1      -1.276  10.308  17.486  0.00  0.00    +0.000 OA
ENDBRANCH  22  29
ENDBRANCH  20  27
ENDBRANCH  19  20
ENDBRANCH  18  19
ENDBRANCH  16  18
ENDBRANCH   1  16
TORSDOF 10
ENDMDL
