MODEL 1
REMARK VINA RESULT:      -6.9      0.000      0.000
REMARK  Name = 
REMARK  3 active torsions:
REMARK  status: ('A' for Active; 'I' for Inactive)
REMARK    1  A    between atoms: C_1  and  C_2
REMARK    2  A    between atoms: C_4  and  C_5
REMARK    3  A    between atoms: C_14  and  C_15
REMARK                            x       y       z     vdW  Elec       q    Type
REMARK                         _______ _______ _______ _____ _____    ______ ____
ROOT
ATOM      1  C   UNL     1       0.715  13.783  20.003  0.00  0.00    +0.000 C 
ATOM      2  O   UNL     1      -0.274  14.212  20.590  0.00  0.00    +0.000 OA
ATOM      3  N   UNL     1       0.879  12.450  19.559  0.00  0.00    +0.000 N 
ATOM      4  C   UNL     1       2.096  12.013  18.879  0.00  0.00    +0.000 C 
ATOM      5  C   UNL     1       1.852  11.015  17.776  0.00  0.00    +0.000 C 
ATOM      6  C   UNL     1       1.190   9.780  18.341  0.00  0.00    +0.000 C 
ATOM      7  C   UNL     1      -0.057  10.110  19.152  0.00  0.00    +0.000 C 
ATOM      8  C   UNL     1      -1.286  10.486  18.351  0.00  0.00    +0.000 A 
ATOM      9  C   UNL     1      -1.695  10.059  17.103  0.00  0.00    +0.000 A 
ATOM     10  C   UNL     1      -2.899  10.563  16.587  0.00  0.00    +0.000 A 
ATOM     11  C   UNL     1      -3.676  11.470  17.332  0.00  0.00    +0.000 A 
ATOM     12  C   UNL     1      -3.266  11.879  18.601  0.00  0.00    +0.000 A 
ATOM     13  C   UNL     1      -2.072  11.380  19.088  0.00  0.00    +0.000 A 
ATOM     14  C   UNL     1      -1.448  11.659  20.421  0.00  0.00    +0.000 C 
ATOM     15  C   UNL     1       0.044  11.345  20.126  0.00  0.00    +0.000 C 
ENDROOT
BRANCH   1  19
ATOM     16  C   UNL     1       2.766  17.221  16.980  0.00  0.00    +0.000 C 
ATOM     17  C   UNL     1       2.806  16.438  18.256  0.00  0.00    +0.000 A 
ATOM     18  C   UNL     1       1.777  15.523  18.569  0.00  0.00    +0.000 A 
ATOM     19  C   UNL     1       1.789  14.788  19.764  0.00  0.00    +0.000 A 
ATOM     20  C   UNL     1       2.766  15.028  20.738  0.00  0.00    +0.000 A 
ATOM     21  C   UNL     1       3.813  15.870  20.384  0.00  0.00    +0.000 A 
ATOM     22  N   UNL     1       4.961  16.208  21.042  0.00  0.00    +0.000 N 
ATOM     23  C   UNL     1       5.628  17.114  20.264  0.00  0.00    +0.000 A 
ATOM     24  N   UNL     1       4.996  17.345  19.141  0.00  0.00    +0.000 NA
ATOM     25  C   UNL     1       3.858  16.574  19.186  0.00  0.00    +0.000 A 
ATOM     26  H   UNL     1       5.261  15.852  21.935  0.00  0.00    +0.000 HD
ENDBRANCH   1  19
BRANCH  10  27
ATOM     27  C   UNL     1      -3.343  10.147  15.295  0.00  0.00    +0.000 C 
ATOM     28  N   UNL     1      -3.702   9.800  14.245  0.00  0.00    +0.000 NA
ENDBRANCH  10  27
TORSDOF 2
ENDMDL
MODEL 2
REMARK VINA RESULT:      -6.8      4.491      7.907
REMARK  Name = 
REMARK  3 active torsions:
REMARK  status: ('A' for Active; 'I' for Inactive)
REMARK    1  A    between atoms: C_1  and  C_2
REMARK    2  A    between atoms: C_4  and  C_5
REMARK    3  A    between atoms: C_14  and  C_15
REMARK                            x       y       z     vdW  Elec       q    Type
REMARK                         _______ _______ _______ _____ _____    ______ ____
ROOT
ATOM      1  C   UNL     1       1.886   8.325  19.319  0.00  0.00    +0.000 C 
ATOM      2  O   UNL     1       2.196   8.699  18.193  0.00  0.00    +0.000 OA
ATOM      3  N   UNL     1       1.276   9.137  20.304  0.00  0.00    +0.000 N 
ATOM      4  C   UNL     1       0.950   8.618  21.631  0.00  0.00    +0.000 C 
ATOM      5  C   UNL     1      -0.339   9.157  22.195  0.00  0.00    +0.000 C 
ATOM      6  C   UNL     1      -0.257  10.661  22.313  0.00  0.00    +0.000 C 
ATOM      7  C   UNL     1       0.160  11.323  21.005  0.00  0.00    +0.000 C 
ATOM      8  C   UNL     1      -0.906  11.396  19.932  0.00  0.00    +0.000 A 
ATOM      9  C   UNL     1      -2.276  11.523  20.051  0.00  0.00    +0.000 A 
ATOM     10  C   UNL     1      -3.046  11.579  18.879  0.00  0.00    +0.000 A 
ATOM     11  C   UNL     1      -2.431  11.521  17.614  0.00  0.00    +0.000 A 
ATOM     12  C   UNL     1      -1.044  11.415  17.502  0.00  0.00    +0.000 A 
ATOM     13  C   UNL     1      -0.305  11.350  18.669  0.00  0.00    +0.000 A 
ATOM     14  C   UNL     1       1.185  11.257  18.794  0.00  0.00    +0.000 C 
ATOM     15  C   UNL     1       1.329  10.629  20.208  0.00  0.00    +0.000 C 
ENDROOT
BRANCH   1  19
ATOM     16  C   UNL     1       5.160   4.527  19.148  0.00  0.00    +0.000 C 
ATOM     17  C   UNL     1       3.793   5.037  19.486  0.00  0.00    +0.000 A 
ATOM     18  C   UNL     1       3.466   6.397  19.294  0.00  0.00    +0.000 A 
ATOM     19  C   UNL     1       2.195   6.897  19.615  0.00  0.00    +0.000 A 
ATOM     20  C   UNL     1       1.248   6.083  20.247  0.00  0.00    +0.000 A 
ATOM     21  C   UNL     1       1.553   4.732  20.358  0.00  0.00    +0.000 A 
ATOM     22  N   UNL     1       0.814   3.672  20.801  0.00  0.00    +0.000 N 
ATOM     23  C   UNL     1       1.612   2.562  20.742  0.00  0.00    +0.000 A 
ATOM     24  N   UNL     1       2.796   2.843  20.257  0.00  0.00    +0.000 NA
ATOM     25  C   UNL     1       2.785   4.194  20.000  0.00  0.00    +0.000 A 
ATOM     26  H   UNL     1      -0.143   3.704  21.112  0.00  0.00    +0.000 HD
ENDBRANCH   1  19
BRANCH  10  27
ATOM     27  C   UNL     1      -4.465  11.701  18.970  0.00  0.00    +0.000 C 
ATOM     28  N   UNL     1      -5.621  11.792  19.050  0.00  0.00    +0.000 NA
ENDBRANCH  10  27
TORSDOF 2
ENDMDL
MODEL 3
REMARK VINA RESULT:      -6.7      3.280      7.325
REMARK  Name = 
REMARK  3 active torsions:
REMARK  status: ('A' for Active; 'I' for Inactive)
REMARK    1  A    between atoms: C_1  and  C_2
REMARK    2  A    between atoms: C_4  and  C_5
REMARK    3  A    between atoms: C_14  and  C_15
REMARK                            x       y       z     vdW  Elec       q    Type
REMARK                         _______ _______ _______ _____ _____    ______ ____
ROOT
ATOM      1  C   UNL     1       0.847   9.653  20.883  0.00  0.00    +0.000 C 
ATOM      2  O   UNL     1       1.345   9.957  21.962  0.00  0.00    +0.000 OA
ATOM      3  N   UNL     1      -0.216  10.343  20.257  0.00  0.00    +0.000 N 
ATOM      4  C   UNL     1      -0.764   9.907  18.974  0.00  0.00    +0.000 C 
ATOM      5  C   UNL     1      -1.168  11.042  18.068  0.00  0.00    +0.000 C 
ATOM      6  C   UNL     1      -2.227  11.883  18.742  0.00  0.00    +0.000 C 
ATOM      7  C   UNL     1      -1.809  12.336  20.135  0.00  0.00    +0.000 C 
ATOM      8  C   UNL     1      -0.789  13.454  20.189  0.00  0.00    +0.000 A 
ATOM      9  C   UNL     1      -0.586  14.511  19.324  0.00  0.00    +0.000 A 
ATOM     10  C   UNL     1       0.437  15.426  19.616  0.00  0.00    +0.000 A 
ATOM     11  C   UNL     1       1.227  15.275  20.771  0.00  0.00    +0.000 A 
ATOM     12  C   UNL     1       1.001  14.216  21.652  0.00  0.00    +0.000 A 
ATOM     13  C   UNL     1      -0.004  13.319  21.341  0.00  0.00    +0.000 A 
ATOM     14  C   UNL     1      -0.437  12.129  22.141  0.00  0.00    +0.000 C 
ATOM     15  C   UNL     1      -1.105  11.256  21.043  0.00  0.00    +0.000 C 
ENDROOT
BRANCH   1  19
ATOM     16  C   UNL     1       1.758   4.720  20.960  0.00  0.00    +0.000 C 
ATOM     17  C   UNL     1       1.927   6.052  20.297  0.00  0.00    +0.000 A 
ATOM     18  C   UNL     1       1.316   7.205  20.837  0.00  0.00    +0.000 A 
ATOM     19  C   UNL     1       1.453   8.460  20.225  0.00  0.00    +0.000 A 
ATOM     20  C   UNL     1       2.105   8.585  18.992  0.00  0.00    +0.000 A 
ATOM     21  C   UNL     1       2.767   7.461  18.515  0.00  0.00    +0.000 A 
ATOM     22  N   UNL     1       3.580   7.284  17.431  0.00  0.00    +0.000 N 
ATOM     23  C   UNL     1       3.931   5.962  17.393  0.00  0.00    +0.000 A 
ATOM     24  N   UNL     1       3.424   5.298  18.402  0.00  0.00    +0.000 NA
ATOM     25  C   UNL     1       2.695   6.213  19.125  0.00  0.00    +0.000 A 
ATOM     26  H   UNL     1       3.868   7.997  16.782  0.00  0.00    +0.000 HD
ENDBRANCH   1  19
BRANCH  10  27
ATOM     27  C   UNL     1       0.676  16.523  18.736  0.00  0.00    +0.000 C 
ATOM     28  N   UNL     1       0.879  17.416  18.018  0.00  0.00    +0.000 NA
ENDBRANCH  10  27
TORSDOF 2
ENDMDL
MODEL 4
REMARK VINA RESULT:      -6.7      5.391      8.765
REMARK  Name = 
REMARK  3 active torsions:
REMARK  status: ('A' for Active; 'I' for Inactive)
REMARK    1  A    between atoms: C_1  and  C_2
REMARK    2  A    between atoms: C_4  and  C_5
REMARK    3  A    between atoms: C_14  and  C_15
REMARK                            x       y       z     vdW  Elec       q    Type
REMARK                         _______ _______ _______ _____ _____    ______ ____
ROOT
ATOM      1  C   UNL     1       2.374   8.209  18.306  0.00  0.00    +0.000 C 
ATOM      2  O   UNL     1       2.908   8.893  17.439  0.00  0.00    +0.000 OA
ATOM      3  N   UNL     1       2.636   6.837  18.531  0.00  0.00    +0.000 N 
ATOM      4  C   UNL     1       1.945   6.086  19.578  0.00  0.00    +0.000 C 
ATOM      5  C   UNL     1       2.815   5.068  20.270  0.00  0.00    +0.000 C 
ATOM      6  C   UNL     1       3.326   4.063  19.265  0.00  0.00    +0.000 C 
ATOM      7  C   UNL     1       4.000   4.728  18.071  0.00  0.00    +0.000 C 
ATOM      8  C   UNL     1       5.385   5.286  18.321  0.00  0.00    +0.000 A 
ATOM      9  C   UNL     1       6.378   4.846  19.173  0.00  0.00    +0.000 A 
ATOM     10  C   UNL     1       7.592   5.549  19.204  0.00  0.00    +0.000 A 
ATOM     11  C   UNL     1       7.795   6.667  18.373  0.00  0.00    +0.000 A 
ATOM     12  C   UNL     1       6.794   7.092  17.499  0.00  0.00    +0.000 A 
ATOM     13  C   UNL     1       5.601   6.393  17.491  0.00  0.00    +0.000 A 
ATOM     14  C   UNL     1       4.405   6.651  16.628  0.00  0.00    +0.000 C 
ATOM     15  C   UNL     1       3.278   5.995  17.473  0.00  0.00    +0.000 C 
ENDROOT
BRANCH   1  19
ATOM     16  C   UNL     1      -1.479  11.405  18.628  0.00  0.00    +0.000 C 
ATOM     17  C   UNL     1      -0.470  10.529  19.305  0.00  0.00    +0.000 A 
ATOM     18  C   UNL     1       0.443   9.766  18.545  0.00  0.00    +0.000 A 
ATOM     19  C   UNL     1       1.388   8.931  19.159  0.00  0.00    +0.000 A 
ATOM     20  C   UNL     1       1.375   8.739  20.546  0.00  0.00    +0.000 A 
ATOM     21  C   UNL     1       0.526   9.553  21.285  0.00  0.00    +0.000 A 
ATOM     22  N   UNL     1       0.366   9.701  22.633  0.00  0.00    +0.000 N 
ATOM     23  C   UNL     1      -0.642  10.607  22.829  0.00  0.00    +0.000 A 
ATOM     24  N   UNL     1      -1.104  11.068  21.694  0.00  0.00    +0.000 NA
ATOM     25  C   UNL     1      -0.386  10.430  20.709  0.00  0.00    +0.000 A 
ATOM     26  H   UNL     1       0.894   9.232  23.350  0.00  0.00    +0.000 HD
ENDBRANCH   1  19
BRANCH  10  27
ATOM     27  C   UNL     1       8.633   5.123  20.082  0.00  0.00    +0.000 C 
ATOM     28  N   UNL     1       9.479   4.767  20.796  0.00  0.00    +0.000 NA
ENDBRANCH  10  27
TORSDOF 2
ENDMDL
MODEL 5
REMARK VINA RESULT:      -6.6      3.347      7.360
REMARK  Name = 
REMARK  3 active torsions:
REMARK  status: ('A' for Active; 'I' for Inactive)
REMARK    1  A    between atoms: C_1  and  C_2
REMARK    2  A    between atoms: C_4  and  C_5
REMARK    3  A    between atoms: C_14  and  C_15
REMARK                            x       y       z     vdW  Elec       q    Type
REMARK                         _______ _______ _______ _____ _____    ______ ____
ROOT
ATOM      1  C   UNL     1       0.736   9.730  21.093  0.00  0.00    +0.000 C 
ATOM      2  O   UNL     1       1.208  10.068  22.174  0.00  0.00    +0.000 OA
ATOM      3  N   UNL     1      -0.289  10.422  20.405  0.00  0.00    +0.000 N 
ATOM      4  C   UNL     1      -0.809   9.946  19.125  0.00  0.00    +0.000 C 
ATOM      5  C   UNL     1      -1.153  11.051  18.160  0.00  0.00    +0.000 C 
ATOM      6  C   UNL     1      -2.209  11.948  18.763  0.00  0.00    +0.000 C 
ATOM      7  C   UNL     1      -1.820  12.449  20.149  0.00  0.00    +0.000 C 
ATOM      8  C   UNL     1      -0.771  13.540  20.188  0.00  0.00    +0.000 A 
ATOM      9  C   UNL     1      -0.513  14.554  19.286  0.00  0.00    +0.000 A 
ATOM     10  C   UNL     1       0.526  15.453  19.572  0.00  0.00    +0.000 A 
ATOM     11  C   UNL     1       1.275  15.330  20.757  0.00  0.00    +0.000 A 
ATOM     12  C   UNL     1       0.994  14.316  21.673  0.00  0.00    +0.000 A 
ATOM     13  C   UNL     1      -0.026  13.434  21.369  0.00  0.00    +0.000 A 
ATOM     14  C   UNL     1      -0.516  12.292  22.204  0.00  0.00    +0.000 C 
ATOM     15  C   UNL     1      -1.175  11.390  21.123  0.00  0.00    +0.000 C 
ENDROOT
BRANCH   1  19
ATOM     16  C   UNL     1       3.329   7.571  17.381  0.00  0.00    +0.000 C 
ATOM     17  C   UNL     1       2.562   7.445  18.661  0.00  0.00    +0.000 A 
ATOM     18  C   UNL     1       2.039   8.590  19.300  0.00  0.00    +0.000 A 
ATOM     19  C   UNL     1       1.328   8.495  20.506  0.00  0.00    +0.000 A 
ATOM     20  C   UNL     1       1.216   7.269  21.172  0.00  0.00    +0.000 A 
ATOM     21  C   UNL     1       1.665   6.142  20.495  0.00  0.00    +0.000 A 
ATOM     22  N   UNL     1       1.592   4.813  20.805  0.00  0.00    +0.000 N 
ATOM     23  C   UNL     1       2.234   4.125  19.812  0.00  0.00    +0.000 A 
ATOM     24  N   UNL     1       2.676   4.927  18.876  0.00  0.00    +0.000 NA
ATOM     25  C   UNL     1       2.328   6.196  19.274  0.00  0.00    +0.000 A 
ATOM     26  H   UNL     1       1.146   4.416  21.616  0.00  0.00    +0.000 HD
ENDBRANCH   1  19
BRANCH  10  27
ATOM     27  C   UNL     1       0.822  16.505  18.654  0.00  0.00    +0.000 C 
ATOM     28  N   UNL     1       1.066  17.367  17.913  0.00  0.00    +0.000 NA
ENDBRANCH  10  27
TORSDOF 2
ENDMDL
MODEL 6
REMARK VINA RESULT:      -6.6      4.189      7.280
REMARK  Name = 
REMARK  3 active torsions:
REMARK  status: ('A' for Active; 'I' for Inactive)
REMARK    1  A    between atoms: C_1  and  C_2
REMARK    2  A    between atoms: C_4  and  C_5
REMARK    3  A    between atoms: C_14  and  C_15
REMARK                            x       y       z     vdW  Elec       q    Type
REMARK                         _______ _______ _______ _____ _____    ______ ____
ROOT
ATOM      1  C   UNL     1       1.834   8.975  18.531  0.00  0.00    +0.000 C 
ATOM      2  O   UNL     1       2.038   9.518  17.450  0.00  0.00    +0.000 OA
ATOM      3  N   UNL     1       1.119   9.553  19.606  0.00  0.00    +0.000 N 
ATOM      4  C   UNL     1       0.931   8.844  20.870  0.00  0.00    +0.000 C 
ATOM      5  C   UNL     1      -0.416   9.079  21.504  0.00  0.00    +0.000 C 
ATOM      6  C   UNL     1      -0.599  10.552  21.787  0.00  0.00    +0.000 C 
ATOM      7  C   UNL     1      -0.347  11.414  20.557  0.00  0.00    +0.000 C 
ATOM      8  C   UNL     1      -1.440  11.409  19.510  0.00  0.00    +0.000 A 
ATOM      9  C   UNL     1      -2.807  11.274  19.656  0.00  0.00    +0.000 A 
ATOM     10  C   UNL     1      -3.609  11.316  18.505  0.00  0.00    +0.000 A 
ATOM     11  C   UNL     1      -3.032  11.506  17.235  0.00  0.00    +0.000 A 
ATOM     12  C   UNL     1      -1.652  11.663  17.098  0.00  0.00    +0.000 A 
ATOM     13  C   UNL     1      -0.878  11.608  18.243  0.00  0.00    +0.000 A 
ATOM     14  C   UNL     1       0.607  11.771  18.341  0.00  0.00    +0.000 C 
ATOM     15  C   UNL     1       0.903  11.032  19.675  0.00  0.00    +0.000 C 
ENDROOT
BRANCH   1  19
ATOM     16  C   UNL     1       1.762   4.514  20.825  0.00  0.00    +0.000 C 
ATOM     17  C   UNL     1       2.382   5.439  19.823  0.00  0.00    +0.000 A 
ATOM     18  C   UNL     1       1.843   6.725  19.604  0.00  0.00    +0.000 A 
ATOM     19  C   UNL     1       2.401   7.603  18.663  0.00  0.00    +0.000 A 
ATOM     20  C   UNL     1       3.441   7.181  17.825  0.00  0.00    +0.000 A 
ATOM     21  C   UNL     1       4.011   5.945  18.104  0.00  0.00    +0.000 A 
ATOM     22  N   UNL     1       5.095   5.310  17.569  0.00  0.00    +0.000 N 
ATOM     23  C   UNL     1       5.195   4.087  18.175  0.00  0.00    +0.000 A 
ATOM     24  N   UNL     1       4.267   3.922  19.084  0.00  0.00    +0.000 NA
ATOM     25  C   UNL     1       3.515   5.073  19.067  0.00  0.00    +0.000 A 
ATOM     26  H   UNL     1       5.709   5.677  16.860  0.00  0.00    +0.000 HD
ENDBRANCH   1  19
BRANCH  10  27
ATOM     27  C   UNL     1      -5.023  11.169  18.624  0.00  0.00    +0.000 C 
ATOM     28  N   UNL     1      -6.175  11.045  18.729  0.00  0.00    +0.000 NA
ENDBRANCH  10  27
TORSDOF 2
ENDMDL
MODEL 7
REMARK VINA RESULT:      -6.5      5.109      8.614
REMARK  Name = 
REMARK  3 active torsions:
REMARK  status: ('A' for Active; 'I' for Inactive)
REMARK    1  A    between atoms: C_1  and  C_2
REMARK    2  A    between atoms: C_4  and  C_5
REMARK    3  A    between atoms: C_14  and  C_15
REMARK                            x       y       z     vdW  Elec       q    Type
REMARK                         _______ _______ _______ _____ _____    ______ ____
ROOT
ATOM      1  C   UNL     1       2.104   8.476  18.384  0.00  0.00    +0.000 C 
ATOM      2  O   UNL     1       2.600   9.060  17.426  0.00  0.00    +0.000 OA
ATOM      3  N   UNL     1       2.326   7.117  18.708  0.00  0.00    +0.000 N 
ATOM      4  C   UNL     1       1.683   6.490  19.862  0.00  0.00    +0.000 C 
ATOM      5  C   UNL     1       2.559   5.494  20.578  0.00  0.00    +0.000 C 
ATOM      6  C   UNL     1       2.954   4.385  19.632  0.00  0.00    +0.000 C 
ATOM      7  C   UNL     1       3.566   4.916  18.341  0.00  0.00    +0.000 C 
ATOM      8  C   UNL     1       4.987   5.428  18.444  0.00  0.00    +0.000 A 
ATOM      9  C   UNL     1       6.021   5.016  19.261  0.00  0.00    +0.000 A 
ATOM     10  C   UNL     1       7.261   5.662  19.147  0.00  0.00    +0.000 A 
ATOM     11  C   UNL     1       7.448   6.696  18.210  0.00  0.00    +0.000 A 
ATOM     12  C   UNL     1       6.405   7.092  17.373  0.00  0.00    +0.000 A 
ATOM     13  C   UNL     1       5.187   6.451  17.509  0.00  0.00    +0.000 A 
ATOM     14  C   UNL     1       3.942   6.691  16.711  0.00  0.00    +0.000 C 
ATOM     15  C   UNL     1       2.854   6.161  17.686  0.00  0.00    +0.000 C 
ENDROOT
BRANCH   1  19
ATOM     16  C   UNL     1       0.268   9.508  22.937  0.00  0.00    +0.000 C 
ATOM     17  C   UNL     1       0.291   9.778  21.464  0.00  0.00    +0.000 A 
ATOM     18  C   UNL     1       1.167   9.066  20.617  0.00  0.00    +0.000 A 
ATOM     19  C   UNL     1       1.212   9.312  19.236  0.00  0.00    +0.000 A 
ATOM     20  C   UNL     1       0.469  10.358  18.675  0.00  0.00    +0.000 A 
ATOM     21  C   UNL     1      -0.445  10.996  19.504  0.00  0.00    +0.000 A 
ATOM     22  N   UNL     1      -1.387  11.950  19.244  0.00  0.00    +0.000 N 
ATOM     23  C   UNL     1      -1.990  12.266  20.431  0.00  0.00    +0.000 A 
ATOM     24  N   UNL     1      -1.516  11.548  21.419  0.00  0.00    +0.000 NA
ATOM     25  C   UNL     1      -0.551  10.739  20.867  0.00  0.00    +0.000 A 
ATOM     26  H   UNL     1      -1.599  12.345  18.342  0.00  0.00    +0.000 HD
ENDBRANCH   1  19
BRANCH  10  27
ATOM     27  C   UNL     1       8.345   5.263  19.985  0.00  0.00    +0.000 C 
ATOM     28  N   UNL     1       9.226   4.930  20.668  0.00  0.00    +0.000 NA
ENDBRANCH  10  27
TORSDOF 2
ENDMDL
MODEL 8
REMARK VINA RESULT:      -6.5      6.640      9.413
REMARK  Name = 
REMARK  3 active torsions:
REMARK  status: ('A' for Active; 'I' for Inactive)
REMARK    1  A    between atoms: C_1  and  C_2
REMARK    2  A    between atoms: C_4  and  C_5
REMARK    3  A    between atoms: C_14  and  C_15
REMARK                            x       y       z     vdW  Elec       q    Type
REMARK                         _______ _______ _______ _____ _____    ______ ____
ROOT
ATOM      1  C   UNL     1       3.190   5.932  18.128  0.00  0.00    +0.000 C 
ATOM      2  O   UNL     1       2.416   5.060  17.747  0.00  0.00    +0.000 OA
ATOM      3  N   UNL     1       4.601   5.831  18.098  0.00  0.00    +0.000 N 
ATOM      4  C   UNL     1       5.457   6.912  18.585  0.00  0.00    +0.000 C 
ATOM      5  C   UNL     1       6.715   7.101  17.777  0.00  0.00    +0.000 C 
ATOM      6  C   UNL     1       7.538   5.834  17.807  0.00  0.00    +0.000 C 
ATOM      7  C   UNL     1       6.730   4.609  17.397  0.00  0.00    +0.000 C 
ATOM      8  C   UNL     1       6.443   4.471  15.916  0.00  0.00    +0.000 A 
ATOM      9  C   UNL     1       7.197   4.862  14.828  0.00  0.00    +0.000 A 
ATOM     10  C   UNL     1       6.698   4.601  13.542  0.00  0.00    +0.000 A 
ATOM     11  C   UNL     1       5.466   3.943  13.371  0.00  0.00    +0.000 A 
ATOM     12  C   UNL     1       4.721   3.532  14.476  0.00  0.00    +0.000 A 
ATOM     13  C   UNL     1       5.224   3.808  15.734  0.00  0.00    +0.000 A 
ATOM     14  C   UNL     1       4.615   3.446  17.054  0.00  0.00    +0.000 C 
ATOM     15  C   UNL     1       5.273   4.499  17.987  0.00  0.00    +0.000 C 
ENDROOT
BRANCH   1  19
ATOM     16  C   UNL     1       0.986   8.339  21.937  0.00  0.00    +0.000 C 
ATOM     17  C   UNL     1       1.426   8.320  20.506  0.00  0.00    +0.000 A 
ATOM     18  C   UNL     1       2.110   7.202  19.980  0.00  0.00    +0.000 A 
ATOM     19  C   UNL     1       2.540   7.169  18.645  0.00  0.00    +0.000 A 
ATOM     20  C   UNL     1       2.406   8.296  17.825  0.00  0.00    +0.000 A 
ATOM     21  C   UNL     1       1.663   9.356  18.329  0.00  0.00    +0.000 A 
ATOM     22  N   UNL     1       1.250  10.524  17.753  0.00  0.00    +0.000 N 
ATOM     23  C   UNL     1       0.582  11.239  18.710  0.00  0.00    +0.000 A 
ATOM     24  N   UNL     1       0.514  10.585  19.842  0.00  0.00    +0.000 NA
ATOM     25  C   UNL     1       1.177   9.398  19.632  0.00  0.00    +0.000 A 
ATOM     26  H   UNL     1       1.407  10.804  16.799  0.00  0.00    +0.000 HD
ENDBRANCH   1  19
BRANCH  10  27
ATOM     27  C   UNL     1       7.451   5.002  12.398  0.00  0.00    +0.000 C 
ATOM     28  N   UNL     1       8.057   5.335  11.463  0.00  0.00    +0.000 NA
ENDBRANCH  10  27
TORSDOF 2
ENDMDL
MODEL 9
REMARK VINA RESULT:      -6.5      6.756      9.559
REMARK  Name = 
REMARK  3 active torsions:
REMARK  status: ('A' for Active; 'I' for Inactive)
REMARK    1  A    between atoms: C_1  and  C_2
REMARK    2  A    between atoms: C_4  and  C_5
REMARK    3  A    between atoms: C_14  and  C_15
REMARK                            x       y       z     vdW  Elec       q    Type
REMARK                         _______ _______ _______ _____ _____    ______ ____
ROOT
ATOM      1  C   UNL     1       3.131   5.612  18.186  0.00  0.00    +0.000 C 
ATOM      2  O   UNL     1       2.386   4.860  17.566  0.00  0.00    +0.000 OA
ATOM      3  N   UNL     1       4.532   5.452  18.300  0.00  0.00    +0.000 N 
ATOM      4  C   UNL     1       5.350   6.385  19.071  0.00  0.00    +0.000 C 
ATOM      5  C   UNL     1       6.701   6.657  18.461  0.00  0.00    +0.000 C 
ATOM      6  C   UNL     1       7.482   5.368  18.350  0.00  0.00    +0.000 C 
ATOM      7  C   UNL     1       6.698   4.276  17.633  0.00  0.00    +0.000 C 
ATOM      8  C   UNL     1       6.588   4.419  16.129  0.00  0.00    +0.000 A 
ATOM      9  C   UNL     1       7.478   4.964  15.224  0.00  0.00    +0.000 A 
ATOM     10  C   UNL     1       7.131   4.961  13.864  0.00  0.00    +0.000 A 
ATOM     11  C   UNL     1       5.912   4.404  13.435  0.00  0.00    +0.000 A 
ATOM     12  C   UNL     1       5.028   3.837  14.354  0.00  0.00    +0.000 A 
ATOM     13  C   UNL     1       5.383   3.858  15.691  0.00  0.00    +0.000 A 
ATOM     14  C   UNL     1       4.610   3.294  16.843  0.00  0.00    +0.000 C 
ATOM     15  C   UNL     1       5.177   4.130  18.023  0.00  0.00    +0.000 C 
ENDROOT
BRANCH   1  19
ATOM     16  C   UNL     1       1.251  10.249  17.826  0.00  0.00    +0.000 C 
ATOM     17  C   UNL     1       1.577   9.051  18.664  0.00  0.00    +0.000 A 
ATOM     18  C   UNL     1       2.153   7.901  18.080  0.00  0.00    +0.000 A 
ATOM     19  C   UNL     1       2.455   6.765  18.845  0.00  0.00    +0.000 A 
ATOM     20  C   UNL     1       2.084   6.695  20.194  0.00  0.00    +0.000 A 
ATOM     21  C   UNL     1       1.592   7.858  20.772  0.00  0.00    +0.000 A 
ATOM     22  N   UNL     1       1.261   8.154  22.064  0.00  0.00    +0.000 N 
ATOM     23  C   UNL     1       0.781   9.435  22.081  0.00  0.00    +0.000 A 
ATOM     24  N   UNL     1       0.820   9.981  20.892  0.00  0.00    +0.000 NA
ATOM     25  C   UNL     1       1.330   9.019  20.052  0.00  0.00    +0.000 A 
ATOM     26  H   UNL     1       1.357   7.541  22.857  0.00  0.00    +0.000 HD
ENDBRANCH   1  19
BRANCH  10  27
ATOM     27  C   UNL     1       8.026   5.526  12.906  0.00  0.00    +0.000 C 
ATOM     28  N   UNL     1       8.755   5.994  12.130  0.00  0.00    +0.000 NA
ENDBRANCH  10  27
TORSDOF 2
ENDMDL
