MODEL 1
REMARK VINA RESULT:      -7.5      0.000      0.000
REMARK  Name = 
REMARK  10 active torsions:
REMARK  status: ('A' for Active; 'I' for Inactive)
REMARK    1  A    between atoms: C_1  and  C_2
REMARK    2  A    between atoms: C_2  and  O_3
REMARK    3  A    between atoms: C_2  and  C_4
REMARK    4  A    between atoms: C_4  and  N_5
REMARK    5  A    between atoms: N_5  and  C_6
REMARK    6  A    between atoms: N_5  and  C_18
REMARK    7  A    between atoms: C_6  and  C_7
REMARK    8  A    between atoms: C_11  and  C_12
REMARK    9  A    between atoms: N_14  and  C_15
REMARK   10  A    between atoms: N_14  and  C_16
REMARK                            x       y       z     vdW  Elec       q    Type
REMARK                         _______ _______ _______ _____ _____    ______ ____
ROOT
ATOM      1  N   UNL     1       6.315   4.744  15.964  0.00  0.00    +0.000 N 
ENDROOT
BRANCH   1   2
ATOM      2  C   UNL     1       6.630   4.598  14.587  0.00  0.00    +0.000 A 
ATOM      3  C   UNL     1       5.967   3.718  13.719  0.00  0.00    +0.000 A 
ATOM      4  C   UNL     1       6.288   3.651  12.359  0.00  0.00    +0.000 A 
ATOM      5  C   UNL     1       7.294   4.462  11.837  0.00  0.00    +0.000 A 
ATOM      6  C   UNL     1       7.971   5.340  12.679  0.00  0.00    +0.000 A 
ATOM      7  C   UNL     1       7.643   5.403  14.036  0.00  0.00    +0.000 A 
ENDBRANCH   1   2
BRANCH   1   8
ATOM      8  C   UNL     1       7.370   4.352  16.928  0.00  0.00    +0.000 C 
BRANCH   8  10
ATOM      9  C   UNL     1       7.351   6.843  17.477  0.00  0.00    +0.000 C 
ATOM     10  C   UNL     1       7.640   5.442  18.000  0.00  0.00    +0.000 C 
BRANCH  10  11
ATOM     11  O   UNL     1       6.811   5.261  19.158  0.00  0.00    +0.000 OA
ATOM     12  H   UNL     1       7.348   5.372  19.957  0.00  0.00    +0.000 HD
ENDBRANCH  10  11
ENDBRANCH   8  10
ENDBRANCH   1   8
BRANCH   1  13
ATOM     13  C   UNL     1       4.963   4.185  16.212  0.00  0.00    +0.000 C 
BRANCH  13  14
ATOM     14  C   UNL     1       4.143   4.940  17.241  0.00  0.00    +0.000 A 
ATOM     15  C   UNL     1       4.006   6.334  17.182  0.00  0.00    +0.000 A 
ATOM     16  C   UNL     1       3.144   6.998  18.059  0.00  0.00    +0.000 A 
ATOM     17  C   UNL     1       2.450   6.281  19.035  0.00  0.00    +0.000 A 
ATOM     18  C   UNL     1       2.606   4.893  19.148  0.00  0.00    +0.000 A 
ATOM     19  C   UNL     1       3.405   4.228  18.209  0.00  0.00    +0.000 A 
BRANCH  18  20
ATOM     20  C   UNL     1       1.827   4.201  20.218  0.00  0.00    +0.000 C 
ATOM     21  O   UNL     1       0.716   4.667  20.473  0.00  0.00    +0.000 OA
ATOM     22  N   UNL     1       2.349   3.107  20.920  0.00  0.00    +0.000 N 
ATOM     23  C   UNL     1       3.627   2.450  20.694  0.00  0.00    +0.000 C 
ATOM     24  C   UNL     1       1.518   2.498  21.950  0.00  0.00    +0.000 C 
ENDBRANCH  18  20
ENDBRANCH  13  14
ENDBRANCH   1  13
TORSDOF 7
ENDMDL
MODEL 2
REMARK VINA RESULT:      -7.3      3.742      5.931
REMARK  Name = 
REMARK  10 active torsions:
REMARK  status: ('A' for Active; 'I' for Inactive)
REMARK    1  A    between atoms: C_1  and  C_2
REMARK    2  A    between atoms: C_2  and  O_3
REMARK    3  A    between atoms: C_2  and  C_4
REMARK    4  A    between atoms: C_4  and  N_5
REMARK    5  A    between atoms: N_5  and  C_6
REMARK    6  A    between atoms: N_5  and  C_18
REMARK    7  A    between atoms: C_6  and  C_7
REMARK    8  A    between atoms: C_11  and  C_12
REMARK    9  A    between atoms: N_14  and  C_15
REMARK   10  A    between atoms: N_14  and  C_16
REMARK                            x       y       z     vdW  Elec       q    Type
REMARK                         _______ _______ _______ _____ _____    ______ ____
ROOT
ATOM      1  N   UNL     1       3.436   5.340  18.116  0.00  0.00    +0.000 N 
ENDROOT
BRANCH   1   2
ATOM      2  C   UNL     1       4.814   5.072  17.898  0.00  0.00    +0.000 A 
ATOM      3  C   UNL     1       5.332   4.534  16.711  0.00  0.00    +0.000 A 
ATOM      4  C   UNL     1       6.706   4.337  16.535  0.00  0.00    +0.000 A 
ATOM      5  C   UNL     1       7.597   4.668  17.555  0.00  0.00    +0.000 A 
ATOM      6  C   UNL     1       7.107   5.200  18.744  0.00  0.00    +0.000 A 
ATOM      7  C   UNL     1       5.734   5.396  18.912  0.00  0.00    +0.000 A 
ENDBRANCH   1   2
BRANCH   1   8
ATOM      8  C   UNL     1       2.482   4.309  17.646  0.00  0.00    +0.000 C 
BRANCH   8  10
ATOM      9  C   UNL     1       1.076   3.232  19.481  0.00  0.00    +0.000 C 
ATOM     10  C   UNL     1       2.340   3.123  18.638  0.00  0.00    +0.000 C 
BRANCH  10  11
ATOM     11  O   UNL     1       2.263   1.866  17.950  0.00  0.00    +0.000 OA
ATOM     12  H   UNL     1       2.747   1.928  17.112  0.00  0.00    +0.000 HD
ENDBRANCH  10  11
ENDBRANCH   8  10
ENDBRANCH   1   8
BRANCH   1  13
ATOM     13  C   UNL     1       3.146   6.736  17.705  0.00  0.00    +0.000 C 
BRANCH  13  14
ATOM     14  C   UNL     1       2.320   7.531  18.700  0.00  0.00    +0.000 A 
ATOM     15  C   UNL     1       2.086   7.054  19.997  0.00  0.00    +0.000 A 
ATOM     16  C   UNL     1       1.435   7.855  20.939  0.00  0.00    +0.000 A 
ATOM     17  C   UNL     1       0.968   9.119  20.578  0.00  0.00    +0.000 A 
ATOM     18  C   UNL     1       1.145   9.601  19.274  0.00  0.00    +0.000 A 
ATOM     19  C   UNL     1       1.874   8.826  18.364  0.00  0.00    +0.000 A 
BRANCH  18  20
ATOM     20  C   UNL     1       0.616  10.965  18.970  0.00  0.00    +0.000 C 
ATOM     21  O   UNL     1       1.354  11.911  19.250  0.00  0.00    +0.000 OA
ATOM     22  N   UNL     1      -0.663  11.157  18.436  0.00  0.00    +0.000 N 
ATOM     23  C   UNL     1      -1.611  10.128  18.038  0.00  0.00    +0.000 C 
ATOM     24  C   UNL     1      -1.096  12.525  18.175  0.00  0.00    +0.000 C 
ENDBRANCH  18  20
ENDBRANCH  13  14
ENDBRANCH   1  13
TORSDOF 7
ENDMDL
MODEL 3
REMARK VINA RESULT:      -7.3      3.656      5.851
REMARK  Name = 
REMARK  10 active torsions:
REMARK  status: ('A' for Active; 'I' for Inactive)
REMARK    1  A    between atoms: C_1  and  C_2
REMARK    2  A    between atoms: C_2  and  O_3
REMARK    3  A    between atoms: C_2  and  C_4
REMARK    4  A    between atoms: C_4  and  N_5
REMARK    5  A    between atoms: N_5  and  C_6
REMARK    6  A    between atoms: N_5  and  C_18
REMARK    7  A    between atoms: C_6  and  C_7
REMARK    8  A    between atoms: C_11  and  C_12
REMARK    9  A    between atoms: N_14  and  C_15
REMARK   10  A    between atoms: N_14  and  C_16
REMARK                            x       y       z     vdW  Elec       q    Type
REMARK                         _______ _______ _______ _____ _____    ______ ____
ROOT
ATOM      1  N   UNL     1       4.040   5.346  18.190  0.00  0.00    +0.000 N 
ENDROOT
BRANCH   1   2
ATOM      2  C   UNL     1       5.379   5.805  18.307  0.00  0.00    +0.000 A 
ATOM      3  C   UNL     1       6.290   5.334  19.264  0.00  0.00    +0.000 A 
ATOM      4  C   UNL     1       7.613   5.788  19.301  0.00  0.00    +0.000 A 
ATOM      5  C   UNL     1       8.053   6.738  18.380  0.00  0.00    +0.000 A 
ATOM      6  C   UNL     1       7.166   7.224  17.423  0.00  0.00    +0.000 A 
ATOM      7  C   UNL     1       5.847   6.764  17.391  0.00  0.00    +0.000 A 
ENDBRANCH   1   2
BRANCH   1   8
ATOM      8  C   UNL     1       3.854   3.988  17.631  0.00  0.00    +0.000 C 
BRANCH   8  10
ATOM      9  C   UNL     1       2.111   2.921  19.158  0.00  0.00    +0.000 C 
ATOM     10  C   UNL     1       3.571   2.921  18.724  0.00  0.00    +0.000 C 
BRANCH  10  11
ATOM     11  O   UNL     1       3.856   1.595  18.253  0.00  0.00    +0.000 OA
ATOM     12  H   UNL     1       4.797   1.530  18.028  0.00  0.00    +0.000 HD
ENDBRANCH  10  11
ENDBRANCH   8  10
ENDBRANCH   1   8
BRANCH   1  13
ATOM     13  C   UNL     1       3.214   6.421  17.585  0.00  0.00    +0.000 C 
BRANCH  13  14
ATOM     14  C   UNL     1       2.415   7.243  18.579  0.00  0.00    +0.000 A 
ATOM     15  C   UNL     1       2.153   6.769  19.871  0.00  0.00    +0.000 A 
ATOM     16  C   UNL     1       1.528   7.590  20.814  0.00  0.00    +0.000 A 
ATOM     17  C   UNL     1       1.115   8.875  20.458  0.00  0.00    +0.000 A 
ATOM     18  C   UNL     1       1.321   9.357  19.157  0.00  0.00    +0.000 A 
ATOM     19  C   UNL     1       2.024   8.557  18.248  0.00  0.00    +0.000 A 
BRANCH  18  20
ATOM     20  C   UNL     1       0.851  10.742  18.858  0.00  0.00    +0.000 C 
ATOM     21  O   UNL     1       1.680  11.642  18.998  0.00  0.00    +0.000 OA
ATOM     22  N   UNL     1      -0.471  11.006  18.480  0.00  0.00    +0.000 N 
ATOM     23  C   UNL     1      -1.530  10.034  18.254  0.00  0.00    +0.000 C 
ATOM     24  C   UNL     1      -0.841  12.391  18.211  0.00  0.00    +0.000 C 
ENDBRANCH  18  20
ENDBRANCH  13  14
ENDBRANCH   1  13
TORSDOF 7
ENDMDL
MODEL 4
REMARK VINA RESULT:      -7.3      3.738      5.963
REMARK  Name = 
REMARK  10 active torsions:
REMARK  status: ('A' for Active; 'I' for Inactive)
REMARK    1  A    between atoms: C_1  and  C_2
REMARK    2  A    between atoms: C_2  and  O_3
REMARK    3  A    between atoms: C_2  and  C_4
REMARK    4  A    between atoms: C_4  and  N_5
REMARK    5  A    between atoms: N_5  and  C_6
REMARK    6  A    between atoms: N_5  and  C_18
REMARK    7  A    between atoms: C_6  and  C_7
REMARK    8  A    between atoms: C_11  and  C_12
REMARK    9  A    between atoms: N_14  and  C_15
REMARK   10  A    between atoms: N_14  and  C_16
REMARK                            x       y       z     vdW  Elec       q    Type
REMARK                         _______ _______ _______ _____ _____    ______ ____
ROOT
ATOM      1  N   UNL     1       3.459   5.380  18.121  0.00  0.00    +0.000 N 
ENDROOT
BRANCH   1   2
ATOM      2  C   UNL     1       4.851   5.171  17.933  0.00  0.00    +0.000 A 
ATOM      3  C   UNL     1       5.824   5.426  18.912  0.00  0.00    +0.000 A 
ATOM      4  C   UNL     1       7.178   5.156  18.687  0.00  0.00    +0.000 A 
ATOM      5  C   UNL     1       7.592   4.630  17.464  0.00  0.00    +0.000 A 
ATOM      6  C   UNL     1       6.647   4.373  16.475  0.00  0.00    +0.000 A 
ATOM      7  C   UNL     1       5.296   4.643  16.708  0.00  0.00    +0.000 A 
ENDBRANCH   1   2
BRANCH   1   8
ATOM      8  C   UNL     1       2.560   4.307  17.638  0.00  0.00    +0.000 C 
BRANCH   8  10
ATOM      9  C   UNL     1       1.091   3.437  19.534  0.00  0.00    +0.000 C 
ATOM     10  C   UNL     1       2.337   3.188  18.692  0.00  0.00    +0.000 C 
BRANCH  10  11
ATOM     11  O   UNL     1       2.159   1.906  18.072  0.00  0.00    +0.000 OA
ATOM     12  H   UNL     1       3.022   1.558  17.802  0.00  0.00    +0.000 HD
ENDBRANCH  10  11
ENDBRANCH   8  10
ENDBRANCH   1   8
BRANCH   1  13
ATOM     13  C   UNL     1       3.117   6.760  17.697  0.00  0.00    +0.000 C 
BRANCH  13  14
ATOM     14  C   UNL     1       2.298   7.549  18.702  0.00  0.00    +0.000 A 
ATOM     15  C   UNL     1       2.081   7.068  20.001  0.00  0.00    +0.000 A 
ATOM     16  C   UNL     1       1.436   7.863  20.952  0.00  0.00    +0.000 A 
ATOM     17  C   UNL     1       0.958   9.126  20.599  0.00  0.00    +0.000 A 
ATOM     18  C   UNL     1       1.118   9.611  19.294  0.00  0.00    +0.000 A 
ATOM     19  C   UNL     1       1.841   8.841  18.374  0.00  0.00    +0.000 A 
BRANCH  18  20
ATOM     20  C   UNL     1       0.578  10.972  18.998  0.00  0.00    +0.000 C 
ATOM     21  O   UNL     1       1.299  11.924  19.302  0.00  0.00    +0.000 OA
ATOM     22  N   UNL     1      -0.694  11.157  18.444  0.00  0.00    +0.000 N 
ATOM     23  C   UNL     1      -1.623  10.122  18.017  0.00  0.00    +0.000 C 
ATOM     24  C   UNL     1      -1.139  12.522  18.194  0.00  0.00    +0.000 C 
ENDBRANCH  18  20
ENDBRANCH  13  14
ENDBRANCH   1  13
TORSDOF 7
ENDMDL
MODEL 5
REMARK VINA RESULT:      -7.3      3.566      6.190
REMARK  Name = 
REMARK  10 active torsions:
REMARK  status: ('A' for Active; 'I' for Inactive)
REMARK    1  A    between atoms: C_1  and  C_2
REMARK    2  A    between atoms: C_2  and  O_3
REMARK    3  A    between atoms: C_2  and  C_4
REMARK    4  A    between atoms: C_4  and  N_5
REMARK    5  A    between atoms: N_5  and  C_6
REMARK    6  A    between atoms: N_5  and  C_18
REMARK    7  A    between atoms: C_6  and  C_7
REMARK    8  A    between atoms: C_11  and  C_12
REMARK    9  A    between atoms: N_14  and  C_15
REMARK   10  A    between atoms: N_14  and  C_16
REMARK                            x       y       z     vdW  Elec       q    Type
REMARK                         _______ _______ _______ _____ _____    ______ ____
ROOT
ATOM      1  N   UNL     1       3.089   5.563  18.008  0.00  0.00    +0.000 N 
ENDROOT
BRANCH   1   2
ATOM      2  C   UNL     1       2.418   4.567  18.767  0.00  0.00    +0.000 A 
ATOM      3  C   UNL     1       1.444   3.703  18.243  0.00  0.00    +0.000 A 
ATOM      4  C   UNL     1       0.851   2.708  19.027  0.00  0.00    +0.000 A 
ATOM      5  C   UNL     1       1.216   2.560  20.364  0.00  0.00    +0.000 A 
ATOM      6  C   UNL     1       2.177   3.407  20.908  0.00  0.00    +0.000 A 
ATOM      7  C   UNL     1       2.767   4.398  20.119  0.00  0.00    +0.000 A 
ENDBRANCH   1   2
BRANCH   1   8
ATOM      8  C   UNL     1       4.161   5.092  17.101  0.00  0.00    +0.000 C 
BRANCH   8  10
ATOM      9  C   UNL     1       6.642   5.684  17.069  0.00  0.00    +0.000 C 
ATOM     10  C   UNL     1       5.226   6.183  16.811  0.00  0.00    +0.000 C 
BRANCH  10  11
ATOM     11  O   UNL     1       5.188   6.606  15.439  0.00  0.00    +0.000 OA
ATOM     12  H   UNL     1       4.674   5.968  14.921  0.00  0.00    +0.000 HD
ENDBRANCH  10  11
ENDBRANCH   8  10
ENDBRANCH   1   8
BRANCH   1  13
ATOM     13  C   UNL     1       3.440   6.694  18.902  0.00  0.00    +0.000 C 
BRANCH  13  14
ATOM     14  C   UNL     1       2.410   7.808  18.951  0.00  0.00    +0.000 A 
ATOM     15  C   UNL     1       2.114   8.575  17.815  0.00  0.00    +0.000 A 
ATOM     16  C   UNL     1       1.075   9.508  17.843  0.00  0.00    +0.000 A 
ATOM     17  C   UNL     1       0.355   9.719  19.020  0.00  0.00    +0.000 A 
ATOM     18  C   UNL     1       0.662   9.001  20.184  0.00  0.00    +0.000 A 
ATOM     19  C   UNL     1       1.648   8.008  20.120  0.00  0.00    +0.000 A 
BRANCH  18  20
ATOM     20  C   UNL     1      -0.156   9.285  21.400  0.00  0.00    +0.000 C 
ATOM     21  O   UNL     1      -0.737   8.322  21.904  0.00  0.00    +0.000 OA
ATOM     22  N   UNL     1      -0.289  10.580  21.914  0.00  0.00    +0.000 N 
ATOM     23  C   UNL     1       0.365  11.786  21.430  0.00  0.00    +0.000 C 
ATOM     24  C   UNL     1      -1.111  10.762  23.103  0.00  0.00    +0.000 C 
ENDBRANCH  18  20
ENDBRANCH  13  14
ENDBRANCH   1  13
TORSDOF 7
ENDMDL
MODEL 6
REMARK VINA RESULT:      -7.3      3.854      6.134
REMARK  Name = 
REMARK  10 active torsions:
REMARK  status: ('A' for Active; 'I' for Inactive)
REMARK    1  A    between atoms: C_1  and  C_2
REMARK    2  A    between atoms: C_2  and  O_3
REMARK    3  A    between atoms: C_2  and  C_4
REMARK    4  A    between atoms: C_4  and  N_5
REMARK    5  A    between atoms: N_5  and  C_6
REMARK    6  A    between atoms: N_5  and  C_18
REMARK    7  A    between atoms: C_6  and  C_7
REMARK    8  A    between atoms: C_11  and  C_12
REMARK    9  A    between atoms: N_14  and  C_15
REMARK   10  A    between atoms: N_14  and  C_16
REMARK                            x       y       z     vdW  Elec       q    Type
REMARK                         _______ _______ _______ _____ _____    ______ ____
ROOT
ATOM      1  N   UNL     1       3.328   5.684  18.221  0.00  0.00    +0.000 N 
ENDROOT
BRANCH   1   2
ATOM      2  C   UNL     1       4.653   5.288  17.900  0.00  0.00    +0.000 A 
ATOM      3  C   UNL     1       5.030   4.726  16.671  0.00  0.00    +0.000 A 
ATOM      4  C   UNL     1       6.362   4.400  16.393  0.00  0.00    +0.000 A 
ATOM      5  C   UNL     1       7.351   4.621  17.350  0.00  0.00    +0.000 A 
ATOM      6  C   UNL     1       7.002   5.173  18.579  0.00  0.00    +0.000 A 
ATOM      7  C   UNL     1       5.670   5.500  18.849  0.00  0.00    +0.000 A 
ENDBRANCH   1   2
BRANCH   1   8
ATOM      8  C   UNL     1       2.242   4.784  17.767  0.00  0.00    +0.000 C 
BRANCH   8  10
ATOM      9  C   UNL     1       1.197   4.048  19.975  0.00  0.00    +0.000 C 
ATOM     10  C   UNL     1       1.987   3.608  18.748  0.00  0.00    +0.000 C 
BRANCH  10  11
ATOM     11  O   UNL     1       1.226   2.560  18.129  0.00  0.00    +0.000 OA
ATOM     12  H   UNL     1       1.800   1.793  17.980  0.00  0.00    +0.000 HD
ENDBRANCH  10  11
ENDBRANCH   8  10
ENDBRANCH   1   8
BRANCH   1  13
ATOM     13  C   UNL     1       3.162   7.123  17.896  0.00  0.00    +0.000 C 
BRANCH  13  14
ATOM     14  C   UNL     1       2.204   7.873  18.803  0.00  0.00    +0.000 A 
ATOM     15  C   UNL     1       2.038   7.508  20.146  0.00  0.00    +0.000 A 
ATOM     16  C   UNL     1       1.252   8.286  20.999  0.00  0.00    +0.000 A 
ATOM     17  C   UNL     1       0.584   9.408  20.505  0.00  0.00    +0.000 A 
ATOM     18  C   UNL     1       0.694   9.768  19.155  0.00  0.00    +0.000 A 
ATOM     19  C   UNL     1       1.553   9.030  18.330  0.00  0.00    +0.000 A 
BRANCH  18  20
ATOM     20  C   UNL     1      -0.052  10.982  18.707  0.00  0.00    +0.000 C 
ATOM     21  O   UNL     1      -1.170  10.791  18.228  0.00  0.00    +0.000 OA
ATOM     22  N   UNL     1       0.509  12.262  18.788  0.00  0.00    +0.000 N 
ATOM     23  C   UNL     1       1.799  12.620  19.355  0.00  0.00    +0.000 C 
ATOM     24  C   UNL     1      -0.292  13.388  18.322  0.00  0.00    +0.000 C 
ENDBRANCH  18  20
ENDBRANCH  13  14
ENDBRANCH   1  13
TORSDOF 7
ENDMDL
MODEL 7
REMARK VINA RESULT:      -7.2      3.836      6.075
REMARK  Name = 
REMARK  10 active torsions:
REMARK  status: ('A' for Active; 'I' for Inactive)
REMARK    1  A    between atoms: C_1  and  C_2
REMARK    2  A    between atoms: C_2  and  O_3
REMARK    3  A    between atoms: C_2  and  C_4
REMARK    4  A    between atoms: C_4  and  N_5
REMARK    5  A    between atoms: N_5  and  C_6
REMARK    6  A    between atoms: N_5  and  C_18
REMARK    7  A    between atoms: C_6  and  C_7
REMARK    8  A    between atoms: C_11  and  C_12
REMARK    9  A    between atoms: N_14  and  C_15
REMARK   10  A    between atoms: N_14  and  C_16
REMARK                            x       y       z     vdW  Elec       q    Type
REMARK                         _______ _______ _______ _____ _____    ______ ____
ROOT
ATOM      1  N   UNL     1       3.474   5.724  18.197  0.00  0.00    +0.000 N 
ENDROOT
BRANCH   1   2
ATOM      2  C   UNL     1       4.794   5.373  17.808  0.00  0.00    +0.000 A 
ATOM      3  C   UNL     1       5.927   5.556  18.615  0.00  0.00    +0.000 A 
ATOM      4  C   UNL     1       7.197   5.145  18.197  0.00  0.00    +0.000 A 
ATOM      5  C   UNL     1       7.364   4.547  16.950  0.00  0.00    +0.000 A 
ATOM      6  C   UNL     1       6.256   4.358  16.128  0.00  0.00    +0.000 A 
ATOM      7  C   UNL     1       4.990   4.769  16.553  0.00  0.00    +0.000 A 
ENDBRANCH   1   2
BRANCH   1   8
ATOM      8  C   UNL     1       2.404   4.761  17.849  0.00  0.00    +0.000 C 
BRANCH   8  10
ATOM      9  C   UNL     1       1.096   3.755  19.795  0.00  0.00    +0.000 C 
ATOM     10  C   UNL     1       2.293   3.592  18.866  0.00  0.00    +0.000 C 
BRANCH  10  11
ATOM     11  O   UNL     1       2.124   2.330  18.203  0.00  0.00    +0.000 OA
ATOM     12  H   UNL     1       1.945   1.643  18.863  0.00  0.00    +0.000 HD
ENDBRANCH  10  11
ENDBRANCH   8  10
ENDBRANCH   1   8
BRANCH   1  13
ATOM     13  C   UNL     1       3.224   7.140  17.828  0.00  0.00    +0.000 C 
BRANCH  13  14
ATOM     14  C   UNL     1       2.256   7.872  18.740  0.00  0.00    +0.000 A 
ATOM     15  C   UNL     1       2.078   7.483  20.074  0.00  0.00    +0.000 A 
ATOM     16  C   UNL     1       1.283   8.245  20.934  0.00  0.00    +0.000 A 
ATOM     17  C   UNL     1       0.618   9.375  20.454  0.00  0.00    +0.000 A 
ATOM     18  C   UNL     1       0.739   9.758  19.111  0.00  0.00    +0.000 A 
ATOM     19  C   UNL     1       1.607   9.037  18.282  0.00  0.00    +0.000 A 
BRANCH  18  20
ATOM     20  C   UNL     1      -0.004  10.979  18.677  0.00  0.00    +0.000 C 
ATOM     21  O   UNL     1      -1.113  10.794  18.175  0.00  0.00    +0.000 OA
ATOM     22  N   UNL     1       0.548  12.260  18.797  0.00  0.00    +0.000 N 
ATOM     23  C   UNL     1       1.827  12.610  19.395  0.00  0.00    +0.000 C 
ATOM     24  C   UNL     1      -0.249  13.393  18.343  0.00  0.00    +0.000 C 
ENDBRANCH  18  20
ENDBRANCH  13  14
ENDBRANCH   1  13
TORSDOF 7
ENDMDL
MODEL 8
REMARK VINA RESULT:      -7.1      3.703      6.001
REMARK  Name = 
REMARK  10 active torsions:
REMARK  status: ('A' for Active; 'I' for Inactive)
REMARK    1  A    between atoms: C_1  and  C_2
REMARK    2  A    between atoms: C_2  and  O_3
REMARK    3  A    between atoms: C_2  and  C_4
REMARK    4  A    between atoms: C_4  and  N_5
REMARK    5  A    between atoms: N_5  and  C_6
REMARK    6  A    between atoms: N_5  and  C_18
REMARK    7  A    between atoms: C_6  and  C_7
REMARK    8  A    between atoms: C_11  and  C_12
REMARK    9  A    between atoms: N_14  and  C_15
REMARK   10  A    between atoms: N_14  and  C_16
REMARK                            x       y       z     vdW  Elec       q    Type
REMARK                         _______ _______ _______ _____ _____    ______ ____
ROOT
ATOM      1  N   UNL     1       3.877   5.666  17.990  0.00  0.00    +0.000 N 
ENDROOT
BRANCH   1   2
ATOM      2  C   UNL     1       5.259   5.939  18.169  0.00  0.00    +0.000 A 
ATOM      3  C   UNL     1       5.986   6.855  17.394  0.00  0.00    +0.000 A 
ATOM      4  C   UNL     1       7.336   7.119  17.648  0.00  0.00    +0.000 A 
ATOM      5  C   UNL     1       7.995   6.460  18.684  0.00  0.00    +0.000 A 
ATOM      6  C   UNL     1       7.297   5.544  19.465  0.00  0.00    +0.000 A 
ATOM      7  C   UNL     1       5.948   5.287  19.207  0.00  0.00    +0.000 A 
ENDBRANCH   1   2
BRANCH   1   8
ATOM      8  C   UNL     1       3.539   4.405  17.290  0.00  0.00    +0.000 C 
BRANCH   8  10
ATOM      9  C   UNL     1       3.644   2.081  18.335  0.00  0.00    +0.000 C 
ATOM     10  C   UNL     1       2.843   3.371  18.215  0.00  0.00    +0.000 C 
BRANCH  10  11
ATOM     11  O   UNL     1       2.686   3.878  19.549  0.00  0.00    +0.000 OA
ATOM     12  H   UNL     1       2.736   4.846  19.532  0.00  0.00    +0.000 HD
ENDBRANCH  10  11
ENDBRANCH   8  10
ENDBRANCH   1   8
BRANCH   1  13
ATOM     13  C   UNL     1       3.204   6.891  17.491  0.00  0.00    +0.000 C 
BRANCH  13  14
ATOM     14  C   UNL     1       2.388   7.635  18.531  0.00  0.00    +0.000 A 
ATOM     15  C   UNL     1       2.179   7.101  19.810  0.00  0.00    +0.000 A 
ATOM     16  C   UNL     1       1.535   7.855  20.796  0.00  0.00    +0.000 A 
ATOM     17  C   UNL     1       1.051   9.129  20.496  0.00  0.00    +0.000 A 
ATOM     18  C   UNL     1       1.202   9.667  19.211  0.00  0.00    +0.000 A 
ATOM     19  C   UNL     1       1.924   8.938  18.258  0.00  0.00    +0.000 A 
BRANCH  18  20
ATOM     20  C   UNL     1       0.656  11.037  18.974  0.00  0.00    +0.000 C 
ATOM     21  O   UNL     1       1.355  11.977  19.355  0.00  0.00    +0.000 OA
ATOM     22  N   UNL     1      -0.599  11.239  18.388  0.00  0.00    +0.000 N 
ATOM     23  C   UNL     1      -1.500  10.220  17.873  0.00  0.00    +0.000 C 
ATOM     24  C   UNL     1      -1.051  12.612  18.199  0.00  0.00    +0.000 C 
ENDBRANCH  18  20
ENDBRANCH  13  14
ENDBRANCH   1  13
TORSDOF 7
ENDMDL
MODEL 9
REMARK VINA RESULT:      -7.1      3.533      6.183
REMARK  Name = 
REMARK  10 active torsions:
REMARK  status: ('A' for Active; 'I' for Inactive)
REMARK    1  A    between atoms: C_1  and  C_2
REMARK    2  A    between atoms: C_2  and  O_3
REMARK    3  A    between atoms: C_2  and  C_4
REMARK    4  A    between atoms: C_4  and  N_5
REMARK    5  A    between atoms: N_5  and  C_6
REMARK    6  A    between atoms: N_5  and  C_18
REMARK    7  A    between atoms: C_6  and  C_7
REMARK    8  A    between atoms: C_11  and  C_12
REMARK    9  A    between atoms: N_14  and  C_15
REMARK   10  A    between atoms: N_14  and  C_16
REMARK                            x       y       z     vdW  Elec       q    Type
REMARK                         _______ _______ _______ _____ _____    ______ ____
ROOT
ATOM      1  N   UNL     1       3.151   5.633  17.976  0.00  0.00    +0.000 N 
ENDROOT
BRANCH   1   2
ATOM      2  C   UNL     1       2.486   4.617  18.713  0.00  0.00    +0.000 A 
ATOM      3  C   UNL     1       2.629   4.429  20.096  0.00  0.00    +0.000 A 
ATOM      4  C   UNL     1       1.911   3.441  20.778  0.00  0.00    +0.000 A 
ATOM      5  C   UNL     1       1.036   2.607  20.084  0.00  0.00    +0.000 A 
ATOM      6  C   UNL     1       0.881   2.770  18.711  0.00  0.00    +0.000 A 
ATOM      7  C   UNL     1       1.599   3.761  18.037  0.00  0.00    +0.000 A 
ENDBRANCH   1   2
BRANCH   1   8
ATOM      8  C   UNL     1       4.251   5.192  17.088  0.00  0.00    +0.000 C 
BRANCH   8  10
ATOM      9  C   UNL     1       6.682   4.720  17.699  0.00  0.00    +0.000 C 
ATOM     10  C   UNL     1       5.625   5.796  17.487  0.00  0.00    +0.000 C 
BRANCH  10  11
ATOM     11  O   UNL     1       6.133   6.670  16.468  0.00  0.00    +0.000 OA
ATOM     12  H   UNL     1       7.057   6.888  16.664  0.00  0.00    +0.000 HD
ENDBRANCH  10  11
ENDBRANCH   8  10
ENDBRANCH   1   8
BRANCH   1  13
ATOM     13  C   UNL     1       3.458   6.765  18.885  0.00  0.00    +0.000 C 
BRANCH  13  14
ATOM     14  C   UNL     1       2.395   7.848  18.933  0.00  0.00    +0.000 A 
ATOM     15  C   UNL     1       2.049   8.579  17.789  0.00  0.00    +0.000 A 
ATOM     16  C   UNL     1       0.982   9.480  17.820  0.00  0.00    +0.000 A 
ATOM     17  C   UNL     1       0.283   9.695  19.009  0.00  0.00    +0.000 A 
ATOM     18  C   UNL     1       0.640   9.013  20.181  0.00  0.00    +0.000 A 
ATOM     19  C   UNL     1       1.654   8.050  20.115  0.00  0.00    +0.000 A 
BRANCH  18  20
ATOM     20  C   UNL     1      -0.159   9.299  21.410  0.00  0.00    +0.000 C 
ATOM     21  O   UNL     1      -0.712   8.334  21.939  0.00  0.00    +0.000 OA
ATOM     22  N   UNL     1      -0.305  10.599  21.908  0.00  0.00    +0.000 N 
ATOM     23  C   UNL     1       0.316  11.810  21.394  0.00  0.00    +0.000 C 
ATOM     24  C   UNL     1      -1.107  10.783  23.112  0.00  0.00    +0.000 C 
ENDBRANCH  18  20
ENDBRANCH  13  14
ENDBRANCH   1  13
TORSDOF 7
ENDMDL
