MODEL 1
REMARK VINA RESULT:      -8.3      0.000      0.000
REMARK  Name = 
REMARK  4 active torsions:
REMARK  status: ('A' for Active; 'I' for Inactive)
REMARK    1  A    between atoms: C_1  and  C_2
REMARK    2  A    between atoms: C_2  and  C_3
REMARK    3  A    between atoms: C_2  and  N_4
REMARK    4  A    between atoms: C_5  and  C_7
REMARK                            x       y       z     vdW  Elec       q    Type
REMARK                         _______ _______ _______ _____ _____    ______ ____
ROOT
ATOM      1  C   UNL     1       3.390   6.388  18.394  0.00  0.00    +0.000 A 
ATOM      2  C   UNL     1       3.321   7.423  17.396  0.00  0.00    +0.000 A 
ATOM      3  C   UNL     1       2.572   8.608  17.534  0.00  0.00    +0.000 A 
ATOM      4  C   UNL     1       1.926   8.642  18.762  0.00  0.00    +0.000 A 
ATOM      5  C   UNL     1       1.073   9.627  19.173  0.00  0.00    +0.000 A 
ATOM      6  N   UNL     1       0.708   9.258  20.453  0.00  0.00    +0.000 N 
ATOM      7  N   UNL     1       1.250   8.082  20.862  0.00  0.00    +0.000 NA
ATOM      8  C   UNL     1       1.986   7.661  19.817  0.00  0.00    +0.000 A 
ATOM      9  C   UNL     1       2.740   6.483  19.652  0.00  0.00    +0.000 A 
ATOM     10  C   UNL     1      -0.147  10.054  21.241  0.00  0.00    +0.000 A 
ATOM     11  C   UNL     1      -0.370   9.807  22.597  0.00  0.00    +0.000 A 
ATOM     12  C   UNL     1      -1.209  10.666  23.311  0.00  0.00    +0.000 A 
ATOM     13  C   UNL     1      -1.829  11.742  22.665  0.00  0.00    +0.000 A 
ATOM     14 CL   UNL     1      -2.873  12.784  23.551  0.00  0.00    +0.000 Cl
ATOM     15  C   UNL     1      -1.616  11.975  21.306  0.00  0.00    +0.000 A 
ATOM     16  C   UNL     1      -0.762  11.135  20.584  0.00  0.00    +0.000 A 
ATOM     17  C   UNL     1      -0.578  11.294  19.093  0.00  0.00    +0.000 C 
ATOM     18  O   UNL     1       0.660  10.761  18.593  0.00  0.00    +0.000 OA
ENDROOT
BRANCH   1  20
ATOM     19  N   UNL     1       5.008   5.290  16.923  0.00  0.00    +0.000 N 
ATOM     20  C   UNL     1       4.209   5.189  18.045  0.00  0.00    +0.000 C 
ATOM     21  O   UNL     1       4.178   4.197  18.765  0.00  0.00    +0.000 OA
ATOM     22  H   UNL     1       5.148   6.199  16.504  0.00  0.00    +0.000 HD
BRANCH  19  24
ATOM     23  C   UNL     1       5.936   4.060  15.027  0.00  0.00    +0.000 C 
ATOM     24  C   UNL     1       5.929   4.222  16.543  0.00  0.00    +0.000 C 
ATOM     25  C   UNL     1       7.339   4.501  17.060  0.00  0.00    +0.000 C 
ENDBRANCH  19  24
ENDBRANCH   1  20
TORSDOF 2
ENDMDL
MODEL 2
REMARK VINA RESULT:      -8.2      2.114      3.579
REMARK  Name = 
REMARK  4 active torsions:
REMARK  status: ('A' for Active; 'I' for Inactive)
REMARK    1  A    between atoms: C_1  and  C_2
REMARK    2  A    between atoms: C_2  and  C_3
REMARK    3  A    between atoms: C_2  and  N_4
REMARK    4  A    between atoms: C_5  and  C_7
REMARK                            x       y       z     vdW  Elec       q    Type
REMARK                         _______ _______ _______ _____ _____    ______ ____
ROOT
ATOM      1  C   UNL     1       5.237   5.350  16.549  0.00  0.00    +0.000 A 
ATOM      2  C   UNL     1       4.800   4.506  17.630  0.00  0.00    +0.000 A 
ATOM      3  C   UNL     1       3.862   4.893  18.607  0.00  0.00    +0.000 A 
ATOM      4  C   UNL     1       3.414   6.186  18.375  0.00  0.00    +0.000 A 
ATOM      5  C   UNL     1       2.550   6.874  19.180  0.00  0.00    +0.000 A 
ATOM      6  N   UNL     1       2.371   8.085  18.542  0.00  0.00    +0.000 N 
ATOM      7  N   UNL     1       3.097   8.220  17.402  0.00  0.00    +0.000 NA
ATOM      8  C   UNL     1       3.781   7.065  17.293  0.00  0.00    +0.000 A 
ATOM      9  C   UNL     1       4.724   6.655  16.330  0.00  0.00    +0.000 A 
ATOM     10  C   UNL     1       1.502   9.072  19.049  0.00  0.00    +0.000 A 
ATOM     11  C   UNL     1       1.154  10.214  18.325  0.00  0.00    +0.000 A 
ATOM     12  C   UNL     1       0.260  11.126  18.891  0.00  0.00    +0.000 A 
ATOM     13  C   UNL     1      -0.258  10.901  20.172  0.00  0.00    +0.000 A 
ATOM     14 CL   UNL     1      -1.347  12.039  20.867  0.00  0.00    +0.000 Cl
ATOM     15  C   UNL     1       0.106   9.766  20.898  0.00  0.00    +0.000 A 
ATOM     16  C   UNL     1       0.984   8.835  20.334  0.00  0.00    +0.000 A 
ATOM     17  C   UNL     1       1.477   7.643  21.121  0.00  0.00    +0.000 C 
ATOM     18  O   UNL     1       1.909   6.540  20.307  0.00  0.00    +0.000 OA
ENDROOT
BRANCH   1  20
ATOM     19  N   UNL     1       5.859   4.471  14.351  0.00  0.00    +0.000 N 
ATOM     20  C   UNL     1       6.267   4.770  15.636  0.00  0.00    +0.000 C 
ATOM     21  O   UNL     1       7.418   4.620  16.031  0.00  0.00    +0.000 OA
ATOM     22  H   UNL     1       4.965   4.817  14.031  0.00  0.00    +0.000 HD
BRANCH  19  24
ATOM     23  C   UNL     1       6.050   3.277  12.228  0.00  0.00    +0.000 C 
ATOM     24  C   UNL     1       6.802   3.999  13.341  0.00  0.00    +0.000 C 
ATOM     25  C   UNL     1       7.624   5.154  12.772  0.00  0.00    +0.000 C 
ENDBRANCH  19  24
ENDBRANCH   1  20
TORSDOF 2
ENDMDL
MODEL 3
REMARK VINA RESULT:      -8.1      2.338      4.142
REMARK  Name = 
REMARK  4 active torsions:
REMARK  status: ('A' for Active; 'I' for Inactive)
REMARK    1  A    between atoms: C_1  and  C_2
REMARK    2  A    between atoms: C_2  and  C_3
REMARK    3  A    between atoms: C_2  and  N_4
REMARK    4  A    between atoms: C_5  and  C_7
REMARK                            x       y       z     vdW  Elec       q    Type
REMARK                         _______ _______ _______ _____ _____    ______ ____
ROOT
ATOM      1  C   UNL     1       5.427   5.104  15.908  0.00  0.00    +0.000 A 
ATOM      2  C   UNL     1       4.913   4.027  16.712  0.00  0.00    +0.000 A 
ATOM      3  C   UNL     1       3.985   4.194  17.759  0.00  0.00    +0.000 A 
ATOM      4  C   UNL     1       3.631   5.529  17.896  0.00  0.00    +0.000 A 
ATOM      5  C   UNL     1       2.801   6.025  18.861  0.00  0.00    +0.000 A 
ATOM      6  N   UNL     1       2.717   7.376  18.585  0.00  0.00    +0.000 N 
ATOM      7  N   UNL     1       3.473   7.769  17.527  0.00  0.00    +0.000 NA
ATOM      8  C   UNL     1       4.078   6.644  17.101  0.00  0.00    +0.000 A 
ATOM      9  C   UNL     1       5.009   6.452  16.061  0.00  0.00    +0.000 A 
ATOM     10  C   UNL     1       1.908   8.242  19.347  0.00  0.00    +0.000 A 
ATOM     11  C   UNL     1       1.654   9.562  18.970  0.00  0.00    +0.000 A 
ATOM     12  C   UNL     1       0.813  10.342  19.767  0.00  0.00    +0.000 A 
ATOM     13  C   UNL     1       0.257   9.809  20.936  0.00  0.00    +0.000 A 
ATOM     14 CL   UNL     1      -0.764  10.784  21.920  0.00  0.00    +0.000 Cl
ATOM     15  C   UNL     1       0.529   8.494  21.317  0.00  0.00    +0.000 A 
ATOM     16  C   UNL     1       1.351   7.696  20.516  0.00  0.00    +0.000 A 
ATOM     17  C   UNL     1       1.746   6.300  20.940  0.00  0.00    +0.000 C 
ATOM     18  O   UNL     1       2.117   5.438  19.851  0.00  0.00    +0.000 OA
ENDROOT
BRANCH   1  20
ATOM     19  N   UNL     1       5.971   3.988  13.799  0.00  0.00    +0.000 N 
ATOM     20  C   UNL     1       6.432   4.729  14.869  0.00  0.00    +0.000 C 
ATOM     21  O   UNL     1       7.592   5.112  14.975  0.00  0.00    +0.000 OA
ATOM     22  H   UNL     1       4.973   3.892  13.666  0.00  0.00    +0.000 HD
BRANCH  19  24
ATOM     23  C   UNL     1       6.132   2.660  11.754  0.00  0.00    +0.000 C 
ATOM     24  C   UNL     1       6.837   3.652  12.673  0.00  0.00    +0.000 C 
ATOM     25  C   UNL     1       7.245   4.905  11.899  0.00  0.00    +0.000 C 
ENDBRANCH  19  24
ENDBRANCH   1  20
TORSDOF 2
ENDMDL
MODEL 4
REMARK VINA RESULT:      -8.0      1.502      1.912
REMARK  Name = 
REMARK  4 active torsions:
REMARK  status: ('A' for Active; 'I' for Inactive)
REMARK    1  A    between atoms: C_1  and  C_2
REMARK    2  A    between atoms: C_2  and  C_3
REMARK    3  A    between atoms: C_2  and  N_4
REMARK    4  A    between atoms: C_5  and  C_7
REMARK                            x       y       z     vdW  Elec       q    Type
REMARK                         _______ _______ _______ _____ _____    ______ ____
ROOT
ATOM      1  C   UNL     1       3.145   6.275  18.745  0.00  0.00    +0.000 A 
ATOM      2  C   UNL     1       3.189   7.258  17.694  0.00  0.00    +0.000 A 
ATOM      3  C   UNL     1       2.516   8.495  17.738  0.00  0.00    +0.000 A 
ATOM      4  C   UNL     1       1.821   8.636  18.931  0.00  0.00    +0.000 A 
ATOM      5  C   UNL     1       1.018   9.694  19.251  0.00  0.00    +0.000 A 
ATOM      6  N   UNL     1       0.573   9.418  20.529  0.00  0.00    +0.000 N 
ATOM      7  N   UNL     1       1.017   8.232  21.022  0.00  0.00    +0.000 NA
ATOM      8  C   UNL     1       1.768   7.710  20.034  0.00  0.00    +0.000 A 
ATOM      9  C   UNL     1       2.448   6.478  19.965  0.00  0.00    +0.000 A 
ATOM     10  C   UNL     1      -0.260  10.307  21.235  0.00  0.00    +0.000 A 
ATOM     11  C   UNL     1      -0.559  10.147  22.589  0.00  0.00    +0.000 A 
ATOM     12  C   UNL     1      -1.369  11.094  23.220  0.00  0.00    +0.000 A 
ATOM     13  C   UNL     1      -1.886  12.173  22.493  0.00  0.00    +0.000 A 
ATOM     14 CL   UNL     1      -2.897  13.326  23.275  0.00  0.00    +0.000 Cl
ATOM     15  C   UNL     1      -1.599  12.320  21.135  0.00  0.00    +0.000 A 
ATOM     16  C   UNL     1      -0.772  11.389  20.497  0.00  0.00    +0.000 A 
ATOM     17  C   UNL     1      -0.512  11.458  19.011  0.00  0.00    +0.000 C 
ATOM     18  O   UNL     1       0.708  10.821  18.597  0.00  0.00    +0.000 OA
ENDROOT
BRANCH   1  20
ATOM     19  N   UNL     1       3.657   3.964  19.366  0.00  0.00    +0.000 N 
ATOM     20  C   UNL     1       3.896   5.009  18.495  0.00  0.00    +0.000 C 
ATOM     21  O   UNL     1       4.648   4.925  17.530  0.00  0.00    +0.000 OA
ATOM     22  H   UNL     1       2.874   4.029  20.002  0.00  0.00    +0.000 HD
BRANCH  19  24
ATOM     23  C   UNL     1       4.530   1.989  20.507  0.00  0.00    +0.000 C 
ATOM     24  C   UNL     1       4.253   2.648  19.161  0.00  0.00    +0.000 C 
ATOM     25  C   UNL     1       3.349   1.762  18.305  0.00  0.00    +0.000 C 
ENDBRANCH  19  24
ENDBRANCH   1  20
TORSDOF 2
ENDMDL
MODEL 5
REMARK VINA RESULT:      -7.9      3.578      8.760
REMARK  Name = 
REMARK  4 active torsions:
REMARK  status: ('A' for Active; 'I' for Inactive)
REMARK    1  A    between atoms: C_1  and  C_2
REMARK    2  A    between atoms: C_2  and  C_3
REMARK    3  A    between atoms: C_2  and  N_4
REMARK    4  A    between atoms: C_5  and  C_7
REMARK                            x       y       z     vdW  Elec       q    Type
REMARK                         _______ _______ _______ _____ _____    ______ ____
ROOT
ATOM      1  C   UNL     1       0.221  10.054  20.294  0.00  0.00    +0.000 A 
ATOM      2  C   UNL     1       0.320   9.047  21.317  0.00  0.00    +0.000 A 
ATOM      3  C   UNL     1       1.090   7.873  21.200  0.00  0.00    +0.000 A 
ATOM      4  C   UNL     1       1.743   7.832  19.976  0.00  0.00    +0.000 A 
ATOM      5  C   UNL     1       2.515   6.795  19.533  0.00  0.00    +0.000 A 
ATOM      6  N   UNL     1       2.975   7.208  18.298  0.00  0.00    +0.000 N 
ATOM      7  N   UNL     1       2.511   8.427  17.918  0.00  0.00    +0.000 NA
ATOM      8  C   UNL     1       1.716   8.822  18.929  0.00  0.00    +0.000 A 
ATOM      9  C   UNL     1       0.935   9.986  19.069  0.00  0.00    +0.000 A 
ATOM     10  C   UNL     1       3.850   6.418  17.527  0.00  0.00    +0.000 A 
ATOM     11  C   UNL     1       4.482   6.894  16.377  0.00  0.00    +0.000 A 
ATOM     12  C   UNL     1       5.360   6.052  15.690  0.00  0.00    +0.000 A 
ATOM     13  C   UNL     1       5.581   4.746  16.143  0.00  0.00    +0.000 A 
ATOM     14 CL   UNL     1       6.652   3.712  15.280  0.00  0.00    +0.000 Cl
ATOM     15  C   UNL     1       4.934   4.269  17.284  0.00  0.00    +0.000 A 
ATOM     16  C   UNL     1       4.069   5.109  17.992  0.00  0.00    +0.000 A 
ATOM     17  C   UNL     1       3.278   4.604  19.176  0.00  0.00    +0.000 C 
ATOM     18  O   UNL     1       2.871   5.633  20.094  0.00  0.00    +0.000 OA
ENDROOT
BRANCH   1  20
ATOM     19  N   UNL     1      -1.048  11.382  21.912  0.00  0.00    +0.000 N 
ATOM     20  C   UNL     1      -0.677  11.210  20.592  0.00  0.00    +0.000 C 
ATOM     21  O   UNL     1      -1.015  11.969  19.691  0.00  0.00    +0.000 OA
ATOM     22  H   UNL     1      -0.566  10.855  22.626  0.00  0.00    +0.000 HD
BRANCH  19  24
ATOM     23  C   UNL     1      -2.894  12.094  23.344  0.00  0.00    +0.000 C 
ATOM     24  C   UNL     1      -1.836  12.534  22.339  0.00  0.00    +0.000 C 
ATOM     25  C   UNL     1      -0.945  13.620  22.938  0.00  0.00    +0.000 C 
ENDBRANCH  19  24
ENDBRANCH   1  20
TORSDOF 2
ENDMDL
MODEL 6
REMARK VINA RESULT:      -7.8      1.388      1.821
REMARK  Name = 
REMARK  4 active torsions:
REMARK  status: ('A' for Active; 'I' for Inactive)
REMARK    1  A    between atoms: C_1  and  C_2
REMARK    2  A    between atoms: C_2  and  C_3
REMARK    3  A    between atoms: C_2  and  N_4
REMARK    4  A    between atoms: C_5  and  C_7
REMARK                            x       y       z     vdW  Elec       q    Type
REMARK                         _______ _______ _______ _____ _____    ______ ____
ROOT
ATOM      1  C   UNL     1       2.571   7.047  19.131  0.00  0.00    +0.000 A 
ATOM      2  C   UNL     1       2.533   7.894  17.968  0.00  0.00    +0.000 A 
ATOM      3  C   UNL     1       1.820   9.106  17.894  0.00  0.00    +0.000 A 
ATOM      4  C   UNL     1       1.175   9.372  19.094  0.00  0.00    +0.000 A 
ATOM      5  C   UNL     1       0.351  10.438  19.323  0.00  0.00    +0.000 A 
ATOM      6  N   UNL     1      -0.026  10.308  20.645  0.00  0.00    +0.000 N 
ATOM      7  N   UNL     1       0.482   9.206  21.256  0.00  0.00    +0.000 NA
ATOM      8  C   UNL     1       1.205   8.588  20.303  0.00  0.00    +0.000 A 
ATOM      9  C   UNL     1       1.923   7.378  20.350  0.00  0.00    +0.000 A 
ATOM     10  C   UNL     1      -0.857  11.253  21.278  0.00  0.00    +0.000 A 
ATOM     11  C   UNL     1      -1.088  11.252  22.655  0.00  0.00    +0.000 A 
ATOM     12  C   UNL     1      -1.901  12.246  23.205  0.00  0.00    +0.000 A 
ATOM     13  C   UNL     1      -2.488  13.211  22.379  0.00  0.00    +0.000 A 
ATOM     14 CL   UNL     1      -3.502  14.422  23.064  0.00  0.00    +0.000 Cl
ATOM     15  C   UNL     1      -2.268  13.198  21.001  0.00  0.00    +0.000 A 
ATOM     16  C   UNL     1      -1.439  12.221  20.441  0.00  0.00    +0.000 A 
ATOM     17  C   UNL     1      -1.249  12.114  18.946  0.00  0.00    +0.000 C 
ATOM     18  O   UNL     1      -0.028  11.466  18.553  0.00  0.00    +0.000 OA
ENDROOT
BRANCH   1  20
ATOM     19  N   UNL     1       2.867   4.841  18.113  0.00  0.00    +0.000 N 
ATOM     20  C   UNL     1       3.354   5.782  19.000  0.00  0.00    +0.000 C 
ATOM     21  O   UNL     1       4.394   5.639  19.633  0.00  0.00    +0.000 OA
ATOM     22  H   UNL     1       2.134   5.110  17.472  0.00  0.00    +0.000 HD
BRANCH  19  24
ATOM     23  C   UNL     1       2.623   2.477  17.548  0.00  0.00    +0.000 C 
ATOM     24  C   UNL     1       3.602   3.613  17.824  0.00  0.00    +0.000 C 
ATOM     25  C   UNL     1       4.550   3.804  16.642  0.00  0.00    +0.000 C 
ENDBRANCH  19  24
ENDBRANCH   1  20
TORSDOF 2
ENDMDL
MODEL 7
REMARK VINA RESULT:      -7.8      3.530      8.695
REMARK  Name = 
REMARK  4 active torsions:
REMARK  status: ('A' for Active; 'I' for Inactive)
REMARK    1  A    between atoms: C_1  and  C_2
REMARK    2  A    between atoms: C_2  and  C_3
REMARK    3  A    between atoms: C_2  and  N_4
REMARK    4  A    between atoms: C_5  and  C_7
REMARK                            x       y       z     vdW  Elec       q    Type
REMARK                         _______ _______ _______ _____ _____    ______ ____
ROOT
ATOM      1  C   UNL     1      -0.623  11.589  21.989  0.00  0.00    +0.000 A 
ATOM      2  C   UNL     1      -0.490  12.055  20.633  0.00  0.00    +0.000 A 
ATOM      3  C   UNL     1       0.126  11.321  19.601  0.00  0.00    +0.000 A 
ATOM      4  C   UNL     1       0.572  10.092  20.068  0.00  0.00    +0.000 A 
ATOM      5  C   UNL     1       1.267   9.177  19.329  0.00  0.00    +0.000 A 
ATOM      6  N   UNL     1       1.463   8.114  20.188  0.00  0.00    +0.000 N 
ATOM      7  N   UNL     1       0.966   8.316  21.436  0.00  0.00    +0.000 NA
ATOM      8  C   UNL     1       0.436   9.553  21.398  0.00  0.00    +0.000 A 
ATOM      9  C   UNL     1      -0.182  10.308  22.413  0.00  0.00    +0.000 A 
ATOM     10  C   UNL     1       2.118   6.936  19.777  0.00  0.00    +0.000 A 
ATOM     11  C   UNL     1       2.152   5.780  20.559  0.00  0.00    +0.000 A 
ATOM     12  C   UNL     1       2.797   4.646  20.060  0.00  0.00    +0.000 A 
ATOM     13  C   UNL     1       3.415   4.682  18.805  0.00  0.00    +0.000 A 
ATOM     14 CL   UNL     1       4.221   3.284  18.207  0.00  0.00    +0.000 Cl
ATOM     15  C   UNL     1       3.392   5.845  18.034  0.00  0.00    +0.000 A 
ATOM     16  C   UNL     1       2.732   6.982  18.513  0.00  0.00    +0.000 A 
ATOM     17  C   UNL     1       2.764   8.287  17.754  0.00  0.00    +0.000 C 
ATOM     18  O   UNL     1       1.666   9.167  18.050  0.00  0.00    +0.000 OA
ENDROOT
BRANCH   1  20
ATOM     19  N   UNL     1      -2.633  12.374  23.143  0.00  0.00    +0.000 N 
ATOM     20  C   UNL     1      -1.274  12.530  22.948  0.00  0.00    +0.000 C 
ATOM     21  O   UNL     1      -0.598  13.360  23.545  0.00  0.00    +0.000 OA
ATOM     22  H   UNL     1      -3.084  11.542  22.788  0.00  0.00    +0.000 HD
BRANCH  19  24
ATOM     23  C   UNL     1      -3.897  14.437  23.485  0.00  0.00    +0.000 C 
ATOM     24  C   UNL     1      -3.358  13.166  24.132  0.00  0.00    +0.000 C 
ATOM     25  C   UNL     1      -4.494  12.358  24.758  0.00  0.00    +0.000 C 
ENDBRANCH  19  24
ENDBRANCH   1  20
TORSDOF 2
ENDMDL
MODEL 8
REMARK VINA RESULT:      -7.7      1.057      1.270
REMARK  Name = 
REMARK  4 active torsions:
REMARK  status: ('A' for Active; 'I' for Inactive)
REMARK    1  A    between atoms: C_1  and  C_2
REMARK    2  A    between atoms: C_2  and  C_3
REMARK    3  A    between atoms: C_2  and  N_4
REMARK    4  A    between atoms: C_5  and  C_7
REMARK                            x       y       z     vdW  Elec       q    Type
REMARK                         _______ _______ _______ _____ _____    ______ ____
ROOT
ATOM      1  C   UNL     1       2.685   7.093  19.017  0.00  0.00    +0.000 A 
ATOM      2  C   UNL     1       2.625   7.964  17.872  0.00  0.00    +0.000 A 
ATOM      3  C   UNL     1       1.883   9.160  17.825  0.00  0.00    +0.000 A 
ATOM      4  C   UNL     1       1.232   9.384  19.030  0.00  0.00    +0.000 A 
ATOM      5  C   UNL     1       0.382  10.423  19.282  0.00  0.00    +0.000 A 
ATOM      6  N   UNL     1       0.009  10.256  20.601  0.00  0.00    +0.000 N 
ATOM      7  N   UNL     1       0.543   9.154  21.188  0.00  0.00    +0.000 NA
ATOM      8  C   UNL     1       1.282   8.575  20.222  0.00  0.00    +0.000 A 
ATOM      9  C   UNL     1       2.029   7.382  20.243  0.00  0.00    +0.000 A 
ATOM     10  C   UNL     1      -0.845  11.167  21.254  0.00  0.00    +0.000 A 
ATOM     11  C   UNL     1      -1.075  11.130  22.631  0.00  0.00    +0.000 A 
ATOM     12  C   UNL     1      -1.912  12.091  23.202  0.00  0.00    +0.000 A 
ATOM     13  C   UNL     1      -2.523  13.060  22.397  0.00  0.00    +0.000 A 
ATOM     14 CL   UNL     1      -3.566  14.230  23.108  0.00  0.00    +0.000 Cl
ATOM     15  C   UNL     1      -2.303  13.081  21.019  0.00  0.00    +0.000 A 
ATOM     16  C   UNL     1      -1.451  12.137  20.438  0.00  0.00    +0.000 A 
ATOM     17  C   UNL     1      -1.259  12.067  18.941  0.00  0.00    +0.000 C 
ATOM     18  O   UNL     1      -0.022  11.459  18.534  0.00  0.00    +0.000 OA
ENDROOT
BRANCH   1  20
ATOM     19  N   UNL     1       4.269   5.757  17.716  0.00  0.00    +0.000 N 
ATOM     20  C   UNL     1       3.498   5.851  18.858  0.00  0.00    +0.000 C 
ATOM     21  O   UNL     1       3.489   4.998  19.739  0.00  0.00    +0.000 OA
ATOM     22  H   UNL     1       4.395   6.580  17.144  0.00  0.00    +0.000 HD
BRANCH  19  24
ATOM     23  C   UNL     1       5.182   4.243  16.030  0.00  0.00    +0.000 C 
ATOM     24  C   UNL     1       5.183   4.639  17.502  0.00  0.00    +0.000 C 
ATOM     25  C   UNL     1       6.597   4.987  17.964  0.00  0.00    +0.000 C 
ENDBRANCH  19  24
ENDBRANCH   1  20
TORSDOF 2
ENDMDL
MODEL 9
REMARK VINA RESULT:      -7.6      1.495      2.446
REMARK  Name = 
REMARK  4 active torsions:
REMARK  status: ('A' for Active; 'I' for Inactive)
REMARK    1  A    between atoms: C_1  and  C_2
REMARK    2  A    between atoms: C_2  and  C_3
REMARK    3  A    between atoms: C_2  and  N_4
REMARK    4  A    between atoms: C_5  and  C_7
REMARK                            x       y       z     vdW  Elec       q    Type
REMARK                         _______ _______ _______ _____ _____    ______ ____
ROOT
ATOM      1  C   UNL     1       3.361   5.671  18.580  0.00  0.00    +0.000 A 
ATOM      2  C   UNL     1       2.801   5.274  19.845  0.00  0.00    +0.000 A 
ATOM      3  C   UNL     1       1.994   6.103  20.649  0.00  0.00    +0.000 A 
ATOM      4  C   UNL     1       1.806   7.340  20.049  0.00  0.00    +0.000 A 
ATOM      5  C   UNL     1       1.125   8.386  20.603  0.00  0.00    +0.000 A 
ATOM      6  N   UNL     1       1.171   9.378  19.643  0.00  0.00    +0.000 N 
ATOM      7  N   UNL     1       1.870   9.035  18.531  0.00  0.00    +0.000 NA
ATOM      8  C   UNL     1       2.305   7.784  18.771  0.00  0.00    +0.000 A 
ATOM      9  C   UNL     1       3.113   6.937  17.988  0.00  0.00    +0.000 A 
ATOM     10  C   UNL     1       0.535  10.622  19.828  0.00  0.00    +0.000 A 
ATOM     11  C   UNL     1       0.399  11.558  18.802  0.00  0.00    +0.000 A 
ATOM     12  C   UNL     1      -0.275  12.754  19.063  0.00  0.00    +0.000 A 
ATOM     13  C   UNL     1      -0.784  13.010  20.342  0.00  0.00    +0.000 A 
ATOM     14 CL   UNL     1      -1.598  14.493  20.658  0.00  0.00    +0.000 Cl
ATOM     15  C   UNL     1      -0.630  12.078  21.369  0.00  0.00    +0.000 A 
ATOM     16  C   UNL     1       0.024  10.868  21.115  0.00  0.00    +0.000 A 
ATOM     17  C   UNL     1       0.294   9.873  22.219  0.00  0.00    +0.000 C 
ATOM     18  O   UNL     1       0.469   8.521  21.763  0.00  0.00    +0.000 OA
ENDROOT
BRANCH   1  20
ATOM     19  N   UNL     1       4.831   5.061  16.721  0.00  0.00    +0.000 N 
ATOM     20  C   UNL     1       4.223   4.662  17.895  0.00  0.00    +0.000 C 
ATOM     21  O   UNL     1       4.391   3.558  18.401  0.00  0.00    +0.000 OA
ATOM     22  H   UNL     1       4.824   6.042  16.477  0.00  0.00    +0.000 HD
BRANCH  19  24
ATOM     23  C   UNL     1       5.612   4.367  14.513  0.00  0.00    +0.000 C 
ATOM     24  C   UNL     1       5.777   4.199  16.020  0.00  0.00    +0.000 C 
ATOM     25  C   UNL     1       7.214   4.500  16.440  0.00  0.00    +0.000 C 
ENDBRANCH  19  24
ENDBRANCH   1  20
TORSDOF 2
ENDMDL
