MODEL 1
REMARK VINA RESULT:      -7.4      0.000      0.000
REMARK  Name = 
REMARK  10 active torsions:
REMARK  status: ('A' for Active; 'I' for Inactive)
REMARK    1  A    between atoms: C_1  and  N_2
REMARK    2  A    between atoms: N_5  and  C_6
REMARK    3  A    between atoms: C_6  and  C_7
REMARK    4  A    between atoms: C_7  and  C_8
REMARK    5  A    between atoms: C_8  and  C_9
REMARK    6  A    between atoms: C_9  and  C_10
REMARK    7  A    between atoms: C_10  and  N_11
REMARK    8  A    between atoms: N_14  and  C_15
REMARK    9  A    between atoms: C_23  and  C_24
REMARK   10  A    between atoms: C_23  and  C_25
REMARK                            x       y       z     vdW  Elec       q    Type
REMARK                         _______ _______ _______ _____ _____    ______ ____
ROOT
ATOM      1  C   UNL     1       3.683   7.155  16.781  0.00  0.00    +0.000 C 
ENDROOT
BRANCH   1   6
ATOM      2  C   UNL     1       7.807   5.752  19.168  0.00  0.00    +0.000 C 
ATOM      3  N   UNL     1       6.548   5.611  18.465  0.00  0.00    +0.000 N 
ATOM      4  C   UNL     1       5.946   6.578  17.772  0.00  0.00    +0.000 C 
ATOM      5  O   UNL     1       6.459   7.672  17.599  0.00  0.00    +0.000 OA
ATOM      6  N   UNL     1       4.674   6.250  17.377  0.00  0.00    +0.000 N 
ATOM      7  C   UNL     1       4.450   4.852  17.732  0.00  0.00    +0.000 C 
ATOM      8  C   UNL     1       4.305   4.021  16.440  0.00  0.00    +0.000 C 
ATOM      9  C   UNL     1       5.746   4.534  18.446  0.00  0.00    +0.000 C 
ATOM     10  O   UNL     1       6.019   3.478  18.994  0.00  0.00    +0.000 OA
BRANCH   7  11
ATOM     11  C   UNL     1       3.291   4.670  18.715  0.00  0.00    +0.000 A 
ATOM     12  C   UNL     1       3.269   5.275  19.993  0.00  0.00    +0.000 A 
ATOM     13  C   UNL     1       2.163   5.128  20.832  0.00  0.00    +0.000 A 
ATOM     14  C   UNL     1       1.061   4.381  20.415  0.00  0.00    +0.000 A 
ATOM     15  C   UNL     1       1.065   3.774  19.159  0.00  0.00    +0.000 A 
ATOM     16  C   UNL     1       2.170   3.912  18.316  0.00  0.00    +0.000 A 
ENDBRANCH   7  11
ENDBRANCH   1   6
BRANCH   1  17
ATOM     17  C   UNL     1       3.287   8.192  17.836  0.00  0.00    +0.000 C 
BRANCH  17  18
ATOM     18  C   UNL     1       1.881   8.200  18.412  0.00  0.00    +0.000 C 
BRANCH  18  19
ATOM     19  C   UNL     1       1.132   9.447  17.866  0.00  0.00    +0.000 C 
BRANCH  19  20
ATOM     20  C   UNL     1       0.098  10.067  18.857  0.00  0.00    +0.000 C 
BRANCH  20  21
ATOM     21  N   UNL     1       0.683  11.164  19.672  0.00  0.00    +0.000 NA
ATOM     22  C   UNL     1      -0.062  12.436  19.550  0.00  0.00    +0.000 C 
ATOM     23  C   UNL     1      -1.460  12.319  20.178  0.00  0.00    +0.000 C 
ATOM     24  N   UNL     1      -1.303  11.921  21.570  0.00  0.00    +0.000 N 
ATOM     25  C   UNL     1      -0.517  10.716  21.823  0.00  0.00    +0.000 C 
ATOM     26  C   UNL     1       0.842  10.817  21.108  0.00  0.00    +0.000 C 
BRANCH  24  27
ATOM     27  C   UNL     1      -1.911  12.690  22.622  0.00  0.00    +0.000 A 
ATOM     28  C   UNL     1      -3.189  12.332  23.103  0.00  0.00    +0.000 A 
ATOM     29  C   UNL     1      -3.792  13.043  24.138  0.00  0.00    +0.000 A 
ATOM     30  C   UNL     1      -3.141  14.136  24.707  0.00  0.00    +0.000 A 
ATOM     31  C   UNL     1      -1.880  14.513  24.243  0.00  0.00    +0.000 A 
ATOM     32  C   UNL     1      -1.261  13.794  23.212  0.00  0.00    +0.000 A 
ENDBRANCH  24  27
ENDBRANCH  20  21
ENDBRANCH  19  20
ENDBRANCH  18  19
ENDBRANCH  17  18
ENDBRANCH   1  17
TORSDOF 8
ENDMDL
MODEL 2
REMARK VINA RESULT:      -7.4      0.386      1.260
REMARK  Name = 
REMARK  10 active torsions:
REMARK  status: ('A' for Active; 'I' for Inactive)
REMARK    1  A    between atoms: C_1  and  N_2
REMARK    2  A    between atoms: N_5  and  C_6
REMARK    3  A    between atoms: C_6  and  C_7
REMARK    4  A    between atoms: C_7  and  C_8
REMARK    5  A    between atoms: C_8  and  C_9
REMARK    6  A    between atoms: C_9  and  C_10
REMARK    7  A    between atoms: C_10  and  N_11
REMARK    8  A    between atoms: N_14  and  C_15
REMARK    9  A    between atoms: C_23  and  C_24
REMARK   10  A    between atoms: C_23  and  C_25
REMARK                            x       y       z     vdW  Elec       q    Type
REMARK                         _______ _______ _______ _____ _____    ______ ____
ROOT
ATOM      1  C   UNL     1       3.923   7.215  16.607  0.00  0.00    +0.000 C 
ENDROOT
BRANCH   1   6
ATOM      2  C   UNL     1       7.841   5.742  19.280  0.00  0.00    +0.000 C 
ATOM      3  N   UNL     1       6.622   5.623  18.507  0.00  0.00    +0.000 N 
ATOM      4  C   UNL     1       6.100   6.589  17.750  0.00  0.00    +0.000 C 
ATOM      5  O   UNL     1       6.663   7.657  17.576  0.00  0.00    +0.000 OA
ATOM      6  N   UNL     1       4.842   6.294  17.289  0.00  0.00    +0.000 N 
ATOM      7  C   UNL     1       4.543   4.918  17.671  0.00  0.00    +0.000 C 
ATOM      8  C   UNL     1       4.444   4.051  16.399  0.00  0.00    +0.000 C 
ATOM      9  C   UNL     1       5.782   4.576  18.472  0.00  0.00    +0.000 C 
ATOM     10  O   UNL     1       5.982   3.529  19.068  0.00  0.00    +0.000 OA
BRANCH   7  11
ATOM     11  C   UNL     1       3.322   4.809  18.587  0.00  0.00    +0.000 A 
ATOM     12  C   UNL     1       2.172   4.061  18.244  0.00  0.00    +0.000 A 
ATOM     13  C   UNL     1       1.106   3.943  19.139  0.00  0.00    +0.000 A 
ATOM     14  C   UNL     1       1.167   4.561  20.388  0.00  0.00    +0.000 A 
ATOM     15  C   UNL     1       2.291   5.306  20.743  0.00  0.00    +0.000 A 
ATOM     16  C   UNL     1       3.359   5.434  19.852  0.00  0.00    +0.000 A 
ENDBRANCH   7  11
ENDBRANCH   1   6
BRANCH   1  17
ATOM     17  C   UNL     1       3.297   8.133  17.660  0.00  0.00    +0.000 C 
BRANCH  17  18
ATOM     18  C   UNL     1       1.788   8.314  17.719  0.00  0.00    +0.000 C 
BRANCH  18  19
ATOM     19  C   UNL     1       1.436   9.088  19.020  0.00  0.00    +0.000 C 
BRANCH  19  20
ATOM     20  C   UNL     1       0.232  10.071  18.881  0.00  0.00    +0.000 C 
BRANCH  20  21
ATOM     21  N   UNL     1       0.542  11.423  19.417  0.00  0.00    +0.000 NA
ATOM     22  C   UNL     1      -0.567  12.385  19.236  0.00  0.00    +0.000 C 
ATOM     23  C   UNL     1      -1.780  12.000  20.097  0.00  0.00    +0.000 C 
ATOM     24  N   UNL     1      -1.351  11.934  21.487  0.00  0.00    +0.000 N 
ATOM     25  C   UNL     1      -0.210  11.070  21.780  0.00  0.00    +0.000 C 
ATOM     26  C   UNL     1       0.962  11.414  20.843  0.00  0.00    +0.000 C 
BRANCH  24  27
ATOM     27  C   UNL     1      -2.041  12.685  22.500  0.00  0.00    +0.000 A 
ATOM     28  C   UNL     1      -1.330  13.616  23.288  0.00  0.00    +0.000 A 
ATOM     29  C   UNL     1      -1.976  14.378  24.259  0.00  0.00    +0.000 A 
ATOM     30  C   UNL     1      -3.343  14.216  24.477  0.00  0.00    +0.000 A 
ATOM     31  C   UNL     1      -4.065  13.297  23.715  0.00  0.00    +0.000 A 
ATOM     32  C   UNL     1      -3.425  12.539  22.726  0.00  0.00    +0.000 A 
ENDBRANCH  24  27
ENDBRANCH  20  21
ENDBRANCH  19  20
ENDBRANCH  18  19
ENDBRANCH  17  18
ENDBRANCH   1  17
TORSDOF 8
ENDMDL
MODEL 3
REMARK VINA RESULT:      -7.4      1.619      2.164
REMARK  Name = 
REMARK  10 active torsions:
REMARK  status: ('A' for Active; 'I' for Inactive)
REMARK    1  A    between atoms: C_1  and  N_2
REMARK    2  A    between atoms: N_5  and  C_6
REMARK    3  A    between atoms: C_6  and  C_7
REMARK    4  A    between atoms: C_7  and  C_8
REMARK    5  A    between atoms: C_8  and  C_9
REMARK    6  A    between atoms: C_9  and  C_10
REMARK    7  A    between atoms: C_10  and  N_11
REMARK    8  A    between atoms: N_14  and  C_15
REMARK    9  A    between atoms: C_23  and  C_24
REMARK   10  A    between atoms: C_23  and  C_25
REMARK                            x       y       z     vdW  Elec       q    Type
REMARK                         _______ _______ _______ _____ _____    ______ ____
ROOT
ATOM      1  C   UNL     1       2.664   6.929  18.861  0.00  0.00    +0.000 C 
ENDROOT
BRANCH   1   6
ATOM      2  C   UNL     1       6.193   4.271  16.594  0.00  0.00    +0.000 C 
ATOM      3  N   UNL     1       4.873   4.606  17.088  0.00  0.00    +0.000 N 
ATOM      4  C   UNL     1       4.500   5.814  17.512  0.00  0.00    +0.000 C 
ATOM      5  O   UNL     1       5.235   6.785  17.444  0.00  0.00    +0.000 OA
ATOM      6  N   UNL     1       3.268   5.817  18.116  0.00  0.00    +0.000 N 
ATOM      7  C   UNL     1       2.695   4.485  17.958  0.00  0.00    +0.000 C 
ATOM      8  C   UNL     1       1.460   4.573  17.039  0.00  0.00    +0.000 C 
ATOM      9  C   UNL     1       3.839   3.770  17.271  0.00  0.00    +0.000 C 
ATOM     10  O   UNL     1       3.868   2.584  16.978  0.00  0.00    +0.000 OA
BRANCH   7  11
ATOM     11  C   UNL     1       2.420   3.795  19.296  0.00  0.00    +0.000 A 
ATOM     12  C   UNL     1       3.450   3.416  20.189  0.00  0.00    +0.000 A 
ATOM     13  C   UNL     1       3.146   2.844  21.425  0.00  0.00    +0.000 A 
ATOM     14  C   UNL     1       1.817   2.642  21.797  0.00  0.00    +0.000 A 
ATOM     15  C   UNL     1       0.787   3.006  20.930  0.00  0.00    +0.000 A 
ATOM     16  C   UNL     1       1.083   3.575  19.689  0.00  0.00    +0.000 A 
ENDBRANCH   7  11
ENDBRANCH   1   6
BRANCH   1  17
ATOM     17  C   UNL     1       2.597   8.146  17.934  0.00  0.00    +0.000 C 
BRANCH  17  18
ATOM     18  C   UNL     1       1.370   9.043  17.936  0.00  0.00    +0.000 C 
BRANCH  18  19
ATOM     19  C   UNL     1       1.811  10.480  18.331  0.00  0.00    +0.000 C 
BRANCH  19  20
ATOM     20  C   UNL     1       0.995  11.108  19.503  0.00  0.00    +0.000 C 
BRANCH  20  21
ATOM     21  N   UNL     1      -0.254  10.353  19.791  0.00  0.00    +0.000 NA
ATOM     22  C   UNL     1      -0.447  10.082  21.232  0.00  0.00    +0.000 C 
ATOM     23  C   UNL     1      -0.705  11.382  22.009  0.00  0.00    +0.000 C 
ATOM     24  N   UNL     1      -1.867  12.039  21.427  0.00  0.00    +0.000 N 
ATOM     25  C   UNL     1      -1.826  12.292  19.989  0.00  0.00    +0.000 C 
ATOM     26  C   UNL     1      -1.475  10.995  19.238  0.00  0.00    +0.000 C 
BRANCH  24  27
ATOM     27  C   UNL     1      -2.982  12.416  22.253  0.00  0.00    +0.000 A 
ATOM     28  C   UNL     1      -4.108  13.037  21.670  0.00  0.00    +0.000 A 
ATOM     29  C   UNL     1      -5.214  13.390  22.440  0.00  0.00    +0.000 A 
ATOM     30  C   UNL     1      -5.216  13.145  23.812  0.00  0.00    +0.000 A 
ATOM     31  C   UNL     1      -4.111  12.538  24.412  0.00  0.00    +0.000 A 
ATOM     32  C   UNL     1      -3.002  12.167  23.642  0.00  0.00    +0.000 A 
ENDBRANCH  24  27
ENDBRANCH  20  21
ENDBRANCH  19  20
ENDBRANCH  18  19
ENDBRANCH  17  18
ENDBRANCH   1  17
TORSDOF 8
ENDMDL
MODEL 4
REMARK VINA RESULT:      -7.4      0.688      1.145
REMARK  Name = 
REMARK  10 active torsions:
REMARK  status: ('A' for Active; 'I' for Inactive)
REMARK    1  A    between atoms: C_1  and  N_2
REMARK    2  A    between atoms: N_5  and  C_6
REMARK    3  A    between atoms: C_6  and  C_7
REMARK    4  A    between atoms: C_7  and  C_8
REMARK    5  A    between atoms: C_8  and  C_9
REMARK    6  A    between atoms: C_9  and  C_10
REMARK    7  A    between atoms: C_10  and  N_11
REMARK    8  A    between atoms: N_14  and  C_15
REMARK    9  A    between atoms: C_23  and  C_24
REMARK   10  A    between atoms: C_23  and  C_25
REMARK                            x       y       z     vdW  Elec       q    Type
REMARK                         _______ _______ _______ _____ _____    ______ ____
ROOT
ATOM      1  C   UNL     1       3.893   7.101  16.491  0.00  0.00    +0.000 C 
ENDROOT
BRANCH   1   6
ATOM      2  C   UNL     1       7.775   5.835  19.319  0.00  0.00    +0.000 C 
ATOM      3  N   UNL     1       6.589   5.654  18.507  0.00  0.00    +0.000 N 
ATOM      4  C   UNL     1       6.053   6.585  17.717  0.00  0.00    +0.000 C 
ATOM      5  O   UNL     1       6.576   7.674  17.545  0.00  0.00    +0.000 OA
ATOM      6  N   UNL     1       4.825   6.230  17.218  0.00  0.00    +0.000 N 
ATOM      7  C   UNL     1       4.572   4.848  17.612  0.00  0.00    +0.000 C 
ATOM      8  C   UNL     1       4.554   3.959  16.351  0.00  0.00    +0.000 C 
ATOM      9  C   UNL     1       5.796   4.571  18.459  0.00  0.00    +0.000 C 
ATOM     10  O   UNL     1       6.019   3.542  19.078  0.00  0.00    +0.000 OA
BRANCH   7  11
ATOM     11  C   UNL     1       3.326   4.700  18.488  0.00  0.00    +0.000 A 
ATOM     12  C   UNL     1       2.152   4.046  18.046  0.00  0.00    +0.000 A 
ATOM     13  C   UNL     1       1.062   3.883  18.902  0.00  0.00    +0.000 A 
ATOM     14  C   UNL     1       1.119   4.365  20.210  0.00  0.00    +0.000 A 
ATOM     15  C   UNL     1       2.266   5.017  20.663  0.00  0.00    +0.000 A 
ATOM     16  C   UNL     1       3.359   5.187  19.811  0.00  0.00    +0.000 A 
ENDBRANCH   7  11
ENDBRANCH   1   6
BRANCH   1  17
ATOM     17  C   UNL     1       3.379   8.167  17.462  0.00  0.00    +0.000 C 
BRANCH  17  18
ATOM     18  C   UNL     1       2.051   7.976  18.177  0.00  0.00    +0.000 C 
BRANCH  18  19
ATOM     19  C   UNL     1       1.600   9.347  18.753  0.00  0.00    +0.000 C 
BRANCH  19  20
ATOM     20  C   UNL     1       0.701   9.251  20.025  0.00  0.00    +0.000 C 
BRANCH  20  21
ATOM     21  N   UNL     1       1.203  10.099  21.138  0.00  0.00    +0.000 NA
ATOM     22  C   UNL     1       1.005  11.545  20.899  0.00  0.00    +0.000 C 
ATOM     23  C   UNL     1      -0.487  11.908  20.905  0.00  0.00    +0.000 C 
ATOM     24  N   UNL     1      -1.052  11.494  22.182  0.00  0.00    +0.000 N 
ATOM     25  C   UNL     1      -0.854  10.099  22.566  0.00  0.00    +0.000 C 
ATOM     26  C   UNL     1       0.638   9.734  22.463  0.00  0.00    +0.000 C 
BRANCH  24  27
ATOM     27  C   UNL     1      -1.771  12.434  22.999  0.00  0.00    +0.000 A 
ATOM     28  C   UNL     1      -3.050  12.096  23.495  0.00  0.00    +0.000 A 
ATOM     29  C   UNL     1      -3.760  12.975  24.310  0.00  0.00    +0.000 A 
ATOM     30  C   UNL     1      -3.217  14.216  24.637  0.00  0.00    +0.000 A 
ATOM     31  C   UNL     1      -1.958  14.574  24.154  0.00  0.00    +0.000 A 
ATOM     32  C   UNL     1      -1.232  13.690  23.346  0.00  0.00    +0.000 A 
ENDBRANCH  24  27
ENDBRANCH  20  21
ENDBRANCH  19  20
ENDBRANCH  18  19
ENDBRANCH  17  18
ENDBRANCH   1  17
TORSDOF 8
ENDMDL
MODEL 5
REMARK VINA RESULT:      -7.3      0.734      1.270
REMARK  Name = 
REMARK  10 active torsions:
REMARK  status: ('A' for Active; 'I' for Inactive)
REMARK    1  A    between atoms: C_1  and  N_2
REMARK    2  A    between atoms: N_5  and  C_6
REMARK    3  A    between atoms: C_6  and  C_7
REMARK    4  A    between atoms: C_7  and  C_8
REMARK    5  A    between atoms: C_8  and  C_9
REMARK    6  A    between atoms: C_9  and  C_10
REMARK    7  A    between atoms: C_10  and  N_11
REMARK    8  A    between atoms: N_14  and  C_15
REMARK    9  A    between atoms: C_23  and  C_24
REMARK   10  A    between atoms: C_23  and  C_25
REMARK                            x       y       z     vdW  Elec       q    Type
REMARK                         _______ _______ _______ _____ _____    ______ ____
ROOT
ATOM      1  C   UNL     1       3.839   7.118  16.638  0.00  0.00    +0.000 C 
ENDROOT
BRANCH   1   6
ATOM      2  C   UNL     1       7.782   5.694  19.301  0.00  0.00    +0.000 C 
ATOM      3  N   UNL     1       6.560   5.561  18.535  0.00  0.00    +0.000 N 
ATOM      4  C   UNL     1       6.026   6.517  17.775  0.00  0.00    +0.000 C 
ATOM      5  O   UNL     1       6.580   7.588  17.590  0.00  0.00    +0.000 OA
ATOM      6  N   UNL     1       4.768   6.209  17.322  0.00  0.00    +0.000 N 
ATOM      7  C   UNL     1       4.483   4.833  17.715  0.00  0.00    +0.000 C 
ATOM      8  C   UNL     1       4.385   3.957  16.449  0.00  0.00    +0.000 C 
ATOM      9  C   UNL     1       5.728   4.507  18.511  0.00  0.00    +0.000 C 
ATOM     10  O   UNL     1       5.939   3.465  19.113  0.00  0.00    +0.000 OA
BRANCH   7  11
ATOM     11  C   UNL     1       3.267   4.721  18.638  0.00  0.00    +0.000 A 
ATOM     12  C   UNL     1       2.159   3.891  18.347  0.00  0.00    +0.000 A 
ATOM     13  C   UNL     1       1.099   3.776  19.249  0.00  0.00    +0.000 A 
ATOM     14  C   UNL     1       1.124   4.478  20.453  0.00  0.00    +0.000 A 
ATOM     15  C   UNL     1       2.207   5.305  20.756  0.00  0.00    +0.000 A 
ATOM     16  C   UNL     1       3.268   5.429  19.858  0.00  0.00    +0.000 A 
ENDBRANCH   7  11
ENDBRANCH   1   6
BRANCH   1  17
ATOM     17  C   UNL     1       3.352   8.156  17.653  0.00  0.00    +0.000 C 
BRANCH  17  18
ATOM     18  C   UNL     1       1.864   8.372  17.874  0.00  0.00    +0.000 C 
BRANCH  18  19
ATOM     19  C   UNL     1       1.590   9.901  17.921  0.00  0.00    +0.000 C 
BRANCH  19  20
ATOM     20  C   UNL     1       0.281  10.301  18.670  0.00  0.00    +0.000 C 
BRANCH  20  21
ATOM     21  N   UNL     1       0.418  11.591  19.398  0.00  0.00    +0.000 NA
ATOM     22  C   UNL     1      -0.651  12.559  19.066  0.00  0.00    +0.000 C 
ATOM     23  C   UNL     1      -2.015  12.075  19.581  0.00  0.00    +0.000 C 
ATOM     24  N   UNL     1      -1.911  11.864  21.018  0.00  0.00    +0.000 N 
ATOM     25  C   UNL     1      -0.840  10.983  21.476  0.00  0.00    +0.000 C 
ATOM     26  C   UNL     1       0.503  11.433  20.873  0.00  0.00    +0.000 C 
BRANCH  24  27
ATOM     27  C   UNL     1      -2.837  12.498  21.917  0.00  0.00    +0.000 A 
ATOM     28  C   UNL     1      -3.938  13.214  21.398  0.00  0.00    +0.000 A 
ATOM     29  C   UNL     1      -4.866  13.817  22.245  0.00  0.00    +0.000 A 
ATOM     30  C   UNL     1      -4.709  13.732  23.627  0.00  0.00    +0.000 A 
ATOM     31  C   UNL     1      -3.625  13.035  24.162  0.00  0.00    +0.000 A 
ATOM     32  C   UNL     1      -2.696  12.413  23.318  0.00  0.00    +0.000 A 
ENDBRANCH  24  27
ENDBRANCH  20  21
ENDBRANCH  19  20
ENDBRANCH  18  19
ENDBRANCH  17  18
ENDBRANCH   1  17
TORSDOF 8
ENDMDL
MODEL 6
REMARK VINA RESULT:      -7.3      5.369      8.188
REMARK  Name = 
REMARK  10 active torsions:
REMARK  status: ('A' for Active; 'I' for Inactive)
REMARK    1  A    between atoms: C_1  and  N_2
REMARK    2  A    between atoms: N_5  and  C_6
REMARK    3  A    between atoms: C_6  and  C_7
REMARK    4  A    between atoms: C_7  and  C_8
REMARK    5  A    between atoms: C_8  and  C_9
REMARK    6  A    between atoms: C_9  and  C_10
REMARK    7  A    between atoms: C_10  and  N_11
REMARK    8  A    between atoms: N_14  and  C_15
REMARK    9  A    between atoms: C_23  and  C_24
REMARK   10  A    between atoms: C_23  and  C_25
REMARK                            x       y       z     vdW  Elec       q    Type
REMARK                         _______ _______ _______ _____ _____    ______ ____
ROOT
ATOM      1  C   UNL     1       6.054   5.484  19.306  0.00  0.00    +0.000 C 
ENDROOT
BRANCH   1   6
ATOM      2  C   UNL     1       2.770   1.782  18.892  0.00  0.00    +0.000 C 
ATOM      3  N   UNL     1       3.460   3.009  18.551  0.00  0.00    +0.000 N 
ATOM      4  C   UNL     1       4.621   3.404  19.075  0.00  0.00    +0.000 C 
ATOM      5  O   UNL     1       5.258   2.707  19.849  0.00  0.00    +0.000 OA
ATOM      6  N   UNL     1       4.956   4.690  18.739  0.00  0.00    +0.000 N 
ATOM      7  C   UNL     1       3.973   5.163  17.770  0.00  0.00    +0.000 C 
ATOM      8  C   UNL     1       4.667   5.378  16.409  0.00  0.00    +0.000 C 
ATOM      9  C   UNL     1       3.034   3.977  17.725  0.00  0.00    +0.000 C 
ATOM     10  O   UNL     1       1.993   3.912  17.088  0.00  0.00    +0.000 OA
BRANCH   7  11
ATOM     11  C   UNL     1       3.195   6.385  18.264  0.00  0.00    +0.000 A 
ATOM     12  C   UNL     1       2.582   6.439  19.538  0.00  0.00    +0.000 A 
ATOM     13  C   UNL     1       1.934   7.599  19.968  0.00  0.00    +0.000 A 
ATOM     14  C   UNL     1       1.887   8.723  19.144  0.00  0.00    +0.000 A 
ATOM     15  C   UNL     1       2.482   8.688  17.882  0.00  0.00    +0.000 A 
ATOM     16  C   UNL     1       3.128   7.530  17.443  0.00  0.00    +0.000 A 
ENDBRANCH   7  11
ENDBRANCH   1   6
BRANCH   1  17
ATOM     17  C   UNL     1       6.659   6.334  18.185  0.00  0.00    +0.000 C 
BRANCH  17  18
ATOM     18  C   UNL     1       7.932   7.129  18.429  0.00  0.00    +0.000 C 
BRANCH  18  19
ATOM     19  C   UNL     1       7.937   8.354  17.472  0.00  0.00    +0.000 C 
BRANCH  19  20
ATOM     20  C   UNL     1       8.074   9.734  18.189  0.00  0.00    +0.000 C 
BRANCH  20  21
ATOM     21  N   UNL     1       9.460   9.990  18.662  0.00  0.00    +0.000 NA
ATOM     22  C   UNL     1      10.164  11.016  17.863  0.00  0.00    +0.000 C 
ATOM     23  C   UNL     1       9.527  12.401  18.058  0.00  0.00    +0.000 C 
ATOM     24  N   UNL     1       9.552  12.719  19.479  0.00  0.00    +0.000 N 
ATOM     25  C   UNL     1       8.951  11.739  20.380  0.00  0.00    +0.000 C 
ATOM     26  C   UNL     1       9.539  10.343  20.104  0.00  0.00    +0.000 C 
BRANCH  24  27
ATOM     27  C   UNL     1      10.137  13.948  19.941  0.00  0.00    +0.000 A 
ATOM     28  C   UNL     1       9.926  14.367  21.273  0.00  0.00    +0.000 A 
ATOM     29  C   UNL     1      10.501  15.540  21.757  0.00  0.00    +0.000 A 
ATOM     30  C   UNL     1      11.287  16.329  20.920  0.00  0.00    +0.000 A 
ATOM     31  C   UNL     1      11.504  15.939  19.597  0.00  0.00    +0.000 A 
ATOM     32  C   UNL     1      10.942  14.753  19.108  0.00  0.00    +0.000 A 
ENDBRANCH  24  27
ENDBRANCH  20  21
ENDBRANCH  19  20
ENDBRANCH  18  19
ENDBRANCH  17  18
ENDBRANCH   1  17
TORSDOF 8
ENDMDL
MODEL 7
REMARK VINA RESULT:      -7.2      0.850      1.091
REMARK  Name = 
REMARK  10 active torsions:
REMARK  status: ('A' for Active; 'I' for Inactive)
REMARK    1  A    between atoms: C_1  and  N_2
REMARK    2  A    between atoms: N_5  and  C_6
REMARK    3  A    between atoms: C_6  and  C_7
REMARK    4  A    between atoms: C_7  and  C_8
REMARK    5  A    between atoms: C_8  and  C_9
REMARK    6  A    between atoms: C_9  and  C_10
REMARK    7  A    between atoms: C_10  and  N_11
REMARK    8  A    between atoms: N_14  and  C_15
REMARK    9  A    between atoms: C_23  and  C_24
REMARK   10  A    between atoms: C_23  and  C_25
REMARK                            x       y       z     vdW  Elec       q    Type
REMARK                         _______ _______ _______ _____ _____    ______ ____
ROOT
ATOM      1  C   UNL     1       3.593   7.132  16.809  0.00  0.00    +0.000 C 
ENDROOT
BRANCH   1   6
ATOM      2  C   UNL     1       7.728   5.763  19.196  0.00  0.00    +0.000 C 
ATOM      3  N   UNL     1       6.472   5.612  18.491  0.00  0.00    +0.000 N 
ATOM      4  C   UNL     1       5.861   6.576  17.801  0.00  0.00    +0.000 C 
ATOM      5  O   UNL     1       6.362   7.675  17.633  0.00  0.00    +0.000 OA
ATOM      6  N   UNL     1       4.593   6.235  17.403  0.00  0.00    +0.000 N 
ATOM      7  C   UNL     1       4.383   4.834  17.751  0.00  0.00    +0.000 C 
ATOM      8  C   UNL     1       4.248   4.006  16.457  0.00  0.00    +0.000 C 
ATOM      9  C   UNL     1       5.681   4.527  18.466  0.00  0.00    +0.000 C 
ATOM     10  O   UNL     1       5.965   3.471  19.011  0.00  0.00    +0.000 OA
BRANCH   7  11
ATOM     11  C   UNL     1       3.224   4.636  18.732  0.00  0.00    +0.000 A 
ATOM     12  C   UNL     1       3.187   5.248  20.007  0.00  0.00    +0.000 A 
ATOM     13  C   UNL     1       2.081   5.085  20.843  0.00  0.00    +0.000 A 
ATOM     14  C   UNL     1       0.995   4.315  20.428  0.00  0.00    +0.000 A 
ATOM     15  C   UNL     1       1.015   3.700  19.176  0.00  0.00    +0.000 A 
ATOM     16  C   UNL     1       2.119   3.854  18.336  0.00  0.00    +0.000 A 
ENDBRANCH   7  11
ENDBRANCH   1   6
BRANCH   1  17
ATOM     17  C   UNL     1       2.995   7.990  17.927  0.00  0.00    +0.000 C 
BRANCH  17  18
ATOM     18  C   UNL     1       1.727   8.792  17.683  0.00  0.00    +0.000 C 
BRANCH  18  19
ATOM     19  C   UNL     1       1.468   9.692  18.923  0.00  0.00    +0.000 C 
BRANCH  19  20
ATOM     20  C   UNL     1       0.609  10.962  18.632  0.00  0.00    +0.000 C 
BRANCH  20  21
ATOM     21  N   UNL     1       0.692  11.964  19.728  0.00  0.00    +0.000 NA
ATOM     22  C   UNL     1      -0.251  13.090  19.556  0.00  0.00    +0.000 C 
ATOM     23  C   UNL     1      -1.706  12.619  19.699  0.00  0.00    +0.000 C 
ATOM     24  N   UNL     1      -1.856  11.990  21.005  0.00  0.00    +0.000 N 
ATOM     25  C   UNL     1      -0.926  10.910  21.322  0.00  0.00    +0.000 C 
ATOM     26  C   UNL     1       0.522  11.377  21.082  0.00  0.00    +0.000 C 
BRANCH  24  27
ATOM     27  C   UNL     1      -2.883  12.427  21.911  0.00  0.00    +0.000 A 
ATOM     28  C   UNL     1      -2.764  12.150  23.291  0.00  0.00    +0.000 A 
ATOM     29  C   UNL     1      -3.730  12.583  24.196  0.00  0.00    +0.000 A 
ATOM     30  C   UNL     1      -4.844  13.287  23.745  0.00  0.00    +0.000 A 
ATOM     31  C   UNL     1      -4.987  13.566  22.385  0.00  0.00    +0.000 A 
ATOM     32  C   UNL     1      -4.012  13.148  21.470  0.00  0.00    +0.000 A 
ENDBRANCH  24  27
ENDBRANCH  20  21
ENDBRANCH  19  20
ENDBRANCH  18  19
ENDBRANCH  17  18
ENDBRANCH   1  17
TORSDOF 8
ENDMDL
MODEL 8
REMARK VINA RESULT:      -7.2      6.150      8.226
REMARK  Name = 
REMARK  10 active torsions:
REMARK  status: ('A' for Active; 'I' for Inactive)
REMARK    1  A    between atoms: C_1  and  N_2
REMARK    2  A    between atoms: N_5  and  C_6
REMARK    3  A    between atoms: C_6  and  C_7
REMARK    4  A    between atoms: C_7  and  C_8
REMARK    5  A    between atoms: C_8  and  C_9
REMARK    6  A    between atoms: C_9  and  C_10
REMARK    7  A    between atoms: C_10  and  N_11
REMARK    8  A    between atoms: N_14  and  C_15
REMARK    9  A    between atoms: C_23  and  C_24
REMARK   10  A    between atoms: C_23  and  C_25
REMARK                            x       y       z     vdW  Elec       q    Type
REMARK                         _______ _______ _______ _____ _____    ______ ____
ROOT
ATOM      1  C   UNL     1       7.024   5.696  19.213  0.00  0.00    +0.000 C 
ENDROOT
BRANCH   1   6
ATOM      2  C   UNL     1       6.110   3.357  14.928  0.00  0.00    +0.000 C 
ATOM      3  N   UNL     1       5.847   4.177  16.093  0.00  0.00    +0.000 N 
ATOM      4  C   UNL     1       6.782   4.677  16.902  0.00  0.00    +0.000 C 
ATOM      5  O   UNL     1       7.974   4.552  16.678  0.00  0.00    +0.000 OA
ATOM      6  N   UNL     1       6.265   5.242  18.041  0.00  0.00    +0.000 N 
ATOM      7  C   UNL     1       4.811   5.237  17.914  0.00  0.00    +0.000 C 
ATOM      8  C   UNL     1       4.308   6.693  17.814  0.00  0.00    +0.000 C 
ATOM      9  C   UNL     1       4.648   4.509  16.598  0.00  0.00    +0.000 C 
ATOM     10  O   UNL     1       3.587   4.196  16.080  0.00  0.00    +0.000 OA
BRANCH   7  11
ATOM     11  C   UNL     1       4.124   4.423  19.013  0.00  0.00    +0.000 A 
ATOM     12  C   UNL     1       4.481   3.087  19.313  0.00  0.00    +0.000 A 
ATOM     13  C   UNL     1       3.867   2.405  20.365  0.00  0.00    +0.000 A 
ATOM     14  C   UNL     1       2.891   3.037  21.136  0.00  0.00    +0.000 A 
ATOM     15  C   UNL     1       2.522   4.352  20.853  0.00  0.00    +0.000 A 
ATOM     16  C   UNL     1       3.129   5.040  19.800  0.00  0.00    +0.000 A 
ENDBRANCH   7  11
ENDBRANCH   1   6
BRANCH   1  17
ATOM     17  C   UNL     1       8.050   6.732  18.747  0.00  0.00    +0.000 C 
BRANCH  17  18
ATOM     18  C   UNL     1       7.592   8.014  18.072  0.00  0.00    +0.000 C 
BRANCH  18  19
ATOM     19  C   UNL     1       8.795   8.996  18.010  0.00  0.00    +0.000 C 
BRANCH  19  20
ATOM     20  C   UNL     1       8.805  10.079  19.134  0.00  0.00    +0.000 C 
BRANCH  20  21
ATOM     21  N   UNL     1      10.077  10.848  19.166  0.00  0.00    +0.000 NA
ATOM     22  C   UNL     1      10.410  11.470  17.866  0.00  0.00    +0.000 C 
ATOM     23  C   UNL     1       9.407  12.577  17.510  0.00  0.00    +0.000 C 
ATOM     24  N   UNL     1       9.406  13.557  18.587  0.00  0.00    +0.000 N 
ATOM     25  C   UNL     1       9.163  13.049  19.935  0.00  0.00    +0.000 C 
ATOM     26  C   UNL     1      10.118  11.880  20.235  0.00  0.00    +0.000 C 
BRANCH  24  27
ATOM     27  C   UNL     1       9.628  14.950  18.307  0.00  0.00    +0.000 A 
ATOM     28  C   UNL     1      10.636  15.329  17.393  0.00  0.00    +0.000 A 
ATOM     29  C   UNL     1      10.857  16.668  17.082  0.00  0.00    +0.000 A 
ATOM     30  C   UNL     1      10.089  17.661  17.686  0.00  0.00    +0.000 A 
ATOM     31  C   UNL     1       9.092  17.311  18.598  0.00  0.00    +0.000 A 
ATOM     32  C   UNL     1       8.853  15.966  18.904  0.00  0.00    +0.000 A 
ENDBRANCH  24  27
ENDBRANCH  20  21
ENDBRANCH  19  20
ENDBRANCH  18  19
ENDBRANCH  17  18
ENDBRANCH   1  17
TORSDOF 8
ENDMDL
MODEL 9
REMARK VINA RESULT:      -7.2      6.259     10.406
REMARK  Name = 
REMARK  10 active torsions:
REMARK  status: ('A' for Active; 'I' for Inactive)
REMARK    1  A    between atoms: C_1  and  N_2
REMARK    2  A    between atoms: N_5  and  C_6
REMARK    3  A    between atoms: C_6  and  C_7
REMARK    4  A    between atoms: C_7  and  C_8
REMARK    5  A    between atoms: C_8  and  C_9
REMARK    6  A    between atoms: C_9  and  C_10
REMARK    7  A    between atoms: C_10  and  N_11
REMARK    8  A    between atoms: N_14  and  C_15
REMARK    9  A    between atoms: C_23  and  C_24
REMARK   10  A    between atoms: C_23  and  C_25
REMARK                            x       y       z     vdW  Elec       q    Type
REMARK                         _______ _______ _______ _____ _____    ______ ____
ROOT
ATOM      1  C   UNL     1       8.909  11.836  17.980  0.00  0.00    +0.000 C 
ENDROOT
BRANCH   1   6
ATOM      2  C   UNL     1      12.332  15.399  17.475  0.00  0.00    +0.000 C 
ATOM      3  N   UNL     1      11.525  14.396  18.140  0.00  0.00    +0.000 N 
ATOM      4  C   UNL     1      10.797  13.466  17.520  0.00  0.00    +0.000 C 
ATOM      5  O   UNL     1      10.812  13.327  16.308  0.00  0.00    +0.000 OA
ATOM      6  N   UNL     1       9.971  12.773  18.368  0.00  0.00    +0.000 N 
ATOM      7  C   UNL     1      10.279  13.197  19.729  0.00  0.00    +0.000 C 
ATOM      8  C   UNL     1      10.894  12.011  20.500  0.00  0.00    +0.000 C 
ATOM      9  C   UNL     1      11.312  14.270  19.460  0.00  0.00    +0.000 C 
ATOM     10  O   UNL     1      11.841  14.981  20.300  0.00  0.00    +0.000 OA
BRANCH   7  11
ATOM     11  C   UNL     1       9.082  13.837  20.436  0.00  0.00    +0.000 A 
ATOM     12  C   UNL     1       8.470  15.028  19.980  0.00  0.00    +0.000 A 
ATOM     13  C   UNL     1       7.342  15.542  20.623  0.00  0.00    +0.000 A 
ATOM     14  C   UNL     1       6.803  14.881  21.726  0.00  0.00    +0.000 A 
ATOM     15  C   UNL     1       7.394  13.707  22.193  0.00  0.00    +0.000 A 
ATOM     16  C   UNL     1       8.524  13.190  21.558  0.00  0.00    +0.000 A 
ENDBRANCH   7  11
ENDBRANCH   1   6
BRANCH   1  17
ATOM     17  C   UNL     1       9.414  10.412  18.227  0.00  0.00    +0.000 C 
BRANCH  17  18
ATOM     18  C   UNL     1       8.620   9.460  19.107  0.00  0.00    +0.000 C 
BRANCH  18  19
ATOM     19  C   UNL     1       8.534   8.083  18.392  0.00  0.00    +0.000 C 
BRANCH  19  20
ATOM     20  C   UNL     1       7.284   7.907  17.474  0.00  0.00    +0.000 C 
BRANCH  20  21
ATOM     21  N   UNL     1       7.180   6.532  16.919  0.00  0.00    +0.000 NA
ATOM     22  C   UNL     1       7.169   5.485  17.964  0.00  0.00    +0.000 C 
ATOM     23  C   UNL     1       5.886   5.559  18.806  0.00  0.00    +0.000 C 
ATOM     24  N   UNL     1       4.744   5.434  17.911  0.00  0.00    +0.000 N 
ATOM     25  C   UNL     1       4.685   6.369  16.791  0.00  0.00    +0.000 C 
ATOM     26  C   UNL     1       6.014   6.344  16.016  0.00  0.00    +0.000 C 
BRANCH  24  27
ATOM     27  C   UNL     1       3.737   4.436  18.149  0.00  0.00    +0.000 A 
ATOM     28  C   UNL     1       2.383   4.726  17.870  0.00  0.00    +0.000 A 
ATOM     29  C   UNL     1       1.388   3.771  18.066  0.00  0.00    +0.000 A 
ATOM     30  C   UNL     1       1.718   2.511  18.559  0.00  0.00    +0.000 A 
ATOM     31  C   UNL     1       3.048   2.203  18.849  0.00  0.00    +0.000 A 
ATOM     32  C   UNL     1       4.056   3.153  18.641  0.00  0.00    +0.000 A 
ENDBRANCH  24  27
ENDBRANCH  20  21
ENDBRANCH  19  20
ENDBRANCH  18  19
ENDBRANCH  17  18
ENDBRANCH   1  17
TORSDOF 8
ENDMDL
