MODEL 1
REMARK VINA RESULT:      -8.5      0.000      0.000
REMARK  Name = 
REMARK  8 active torsions:
REMARK  status: ('A' for Active; 'I' for Inactive)
REMARK    1  A    between atoms: C_1  and  C_2
REMARK    2  A    between atoms: C_2  and  C_3
REMARK    3  A    between atoms: C_3  and  C_4
REMARK    4  A    between atoms: C_4  and  N_5
REMARK    5  A    between atoms: C_6  and  C_8
REMARK    6  A    between atoms: C_8  and  C_9
REMARK    7  A    between atoms: C_9  and  C_10
REMARK    8  A    between atoms: C_10  and  N_11
REMARK                            x       y       z     vdW  Elec       q    Type
REMARK                         _______ _______ _______ _____ _____    ______ ____
ROOT
ATOM      1  N   UNL     1       4.394   6.170  18.361  0.00  0.00    +0.000 N 
ATOM      2  C   UNL     1       4.638   5.013  19.118  0.00  0.00    +0.000 C 
ATOM      3  O   UNL     1       5.767   4.637  19.431  0.00  0.00    +0.000 OA
ATOM      4  C   UNL     1       3.556   4.016  19.175  0.00  0.00    +0.000 A 
ATOM      5  C   UNL     1       3.787   2.788  18.532  0.00  0.00    +0.000 A 
ATOM      6  C   UNL     1       2.771   1.837  18.465  0.00  0.00    +0.000 A 
ATOM      7  C   UNL     1       1.537   2.110  19.043  0.00  0.00    +0.000 A 
ATOM      8  C   UNL     1       1.330   3.315  19.724  0.00  0.00    +0.000 A 
ATOM      9  C   UNL     1       2.347   4.274  19.805  0.00  0.00    +0.000 A 
ATOM     10  S   UNL     1       2.148   5.722  20.792  0.00  0.00    +0.000 S 
ATOM     11  C   UNL     1       2.298   6.994  19.563  0.00  0.00    +0.000 A 
ATOM     12  N   UNL     1       1.314   7.925  19.743  0.00  0.00    +0.000 NA
ATOM     13  C   UNL     1       1.283   9.000  18.942  0.00  0.00    +0.000 A 
ATOM     14  C   UNL     1       2.196   9.201  17.937  0.00  0.00    +0.000 A 
ATOM     15  C   UNL     1       3.184   8.234  17.740  0.00  0.00    +0.000 A 
ATOM     16  C   UNL     1       3.283   7.086  18.553  0.00  0.00    +0.000 A 
ENDROOT
BRANCH   1  17
ATOM     17  C   UNL     1       5.316   6.316  17.223  0.00  0.00    +0.000 C 
BRANCH  17  18
ATOM     18  C   UNL     1       5.131   5.152  16.235  0.00  0.00    +0.000 C 
BRANCH  18  19
ATOM     19  C   UNL     1       6.434   4.412  15.941  0.00  0.00    +0.000 C 
BRANCH  19  21
ATOM     20  N   UNL     1       6.199   3.492  13.694  0.00  0.00    +0.000 N 
ATOM     21  C   UNL     1       6.792   4.466  14.463  0.00  0.00    +0.000 C 
ATOM     22  O   UNL     1       7.560   5.313  14.018  0.00  0.00    +0.000 OA
ATOM     23  H   UNL     1       5.669   2.760  14.147  0.00  0.00    +0.000 HD
BRANCH  20  24
ATOM     24  C   UNL     1       6.443   3.369  12.268  0.00  0.00    +0.000 C 
BRANCH  24  25
ATOM     25  C   UNL     1       5.300   2.671  11.530  0.00  0.00    +0.000 C 
BRANCH  25  27
ATOM     26  C   UNL     1       3.146   3.009  10.260  0.00  0.00    +0.000 C 
ATOM     27  C   UNL     1       4.102   3.592  11.290  0.00  0.00    +0.000 C 
ENDBRANCH  25  27
ENDBRANCH  24  25
ENDBRANCH  20  24
ENDBRANCH  19  21
ENDBRANCH  18  19
ENDBRANCH  17  18
ENDBRANCH   1  17
TORSDOF 7
ENDMDL
MODEL 2
REMARK VINA RESULT:      -7.9      1.269      1.683
REMARK  Name = 
REMARK  8 active torsions:
REMARK  status: ('A' for Active; 'I' for Inactive)
REMARK    1  A    between atoms: C_1  and  C_2
REMARK    2  A    between atoms: C_2  and  C_3
REMARK    3  A    between atoms: C_3  and  C_4
REMARK    4  A    between atoms: C_4  and  N_5
REMARK    5  A    between atoms: C_6  and  C_8
REMARK    6  A    between atoms: C_8  and  C_9
REMARK    7  A    between atoms: C_9  and  C_10
REMARK    8  A    between atoms: C_10  and  N_11
REMARK                            x       y       z     vdW  Elec       q    Type
REMARK                         _______ _______ _______ _____ _____    ______ ____
ROOT
ATOM      1  N   UNL     1       3.971   6.254  18.243  0.00  0.00    +0.000 N 
ATOM      2  C   UNL     1       4.179   5.092  19.004  0.00  0.00    +0.000 C 
ATOM      3  O   UNL     1       5.293   4.619  19.223  0.00  0.00    +0.000 OA
ATOM      4  C   UNL     1       3.022   4.199  19.181  0.00  0.00    +0.000 A 
ATOM      5  C   UNL     1       3.082   2.945  18.550  0.00  0.00    +0.000 A 
ATOM      6  C   UNL     1       1.983   2.089  18.597  0.00  0.00    +0.000 A 
ATOM      7  C   UNL     1       0.837   2.483  19.276  0.00  0.00    +0.000 A 
ATOM      8  C   UNL     1       0.802   3.712  19.944  0.00  0.00    +0.000 A 
ATOM      9  C   UNL     1       1.904   4.575  19.910  0.00  0.00    +0.000 A 
ATOM     10  S   UNL     1       1.926   6.051  20.876  0.00  0.00    +0.000 S 
ATOM     11  C   UNL     1       2.076   7.285  19.608  0.00  0.00    +0.000 A 
ATOM     12  N   UNL     1       1.200   8.304  19.853  0.00  0.00    +0.000 NA
ATOM     13  C   UNL     1       1.192   9.365  19.033  0.00  0.00    +0.000 A 
ATOM     14  C   UNL     1       2.024   9.466  17.945  0.00  0.00    +0.000 A 
ATOM     15  C   UNL     1       2.899   8.409  17.684  0.00  0.00    +0.000 A 
ATOM     16  C   UNL     1       2.968   7.270  18.512  0.00  0.00    +0.000 A 
ENDROOT
BRANCH   1  17
ATOM     17  C   UNL     1       4.795   6.297  17.024  0.00  0.00    +0.000 C 
BRANCH  17  18
ATOM     18  C   UNL     1       5.923   7.330  17.180  0.00  0.00    +0.000 C 
BRANCH  18  19
ATOM     19  C   UNL     1       7.306   6.689  17.262  0.00  0.00    +0.000 C 
BRANCH  19  21
ATOM     20  N   UNL     1       7.052   5.546  15.122  0.00  0.00    +0.000 N 
ATOM     21  C   UNL     1       7.381   5.404  16.450  0.00  0.00    +0.000 C 
ATOM     22  O   UNL     1       7.700   4.337  16.963  0.00  0.00    +0.000 OA
ATOM     23  H   UNL     1       6.689   6.432  14.795  0.00  0.00    +0.000 HD
BRANCH  20  24
ATOM     24  C   UNL     1       7.040   4.426  14.199  0.00  0.00    +0.000 C 
BRANCH  24  25
ATOM     25  C   UNL     1       5.632   4.066  13.724  0.00  0.00    +0.000 C 
BRANCH  25  27
ATOM     26  C   UNL     1       7.007   3.354  11.731  0.00  0.00    +0.000 C 
ATOM     27  C   UNL     1       5.630   3.337  12.379  0.00  0.00    +0.000 C 
ENDBRANCH  25  27
ENDBRANCH  24  25
ENDBRANCH  20  24
ENDBRANCH  19  21
ENDBRANCH  18  19
ENDBRANCH  17  18
ENDBRANCH   1  17
TORSDOF 7
ENDMDL
MODEL 3
REMARK VINA RESULT:      -7.8      0.852      1.076
REMARK  Name = 
REMARK  8 active torsions:
REMARK  status: ('A' for Active; 'I' for Inactive)
REMARK    1  A    between atoms: C_1  and  C_2
REMARK    2  A    between atoms: C_2  and  C_3
REMARK    3  A    between atoms: C_3  and  C_4
REMARK    4  A    between atoms: C_4  and  N_5
REMARK    5  A    between atoms: C_6  and  C_8
REMARK    6  A    between atoms: C_8  and  C_9
REMARK    7  A    between atoms: C_9  and  C_10
REMARK    8  A    between atoms: C_10  and  N_11
REMARK                            x       y       z     vdW  Elec       q    Type
REMARK                         _______ _______ _______ _____ _____    ______ ____
ROOT
ATOM      1  N   UNL     1       4.022   6.437  18.546  0.00  0.00    +0.000 N 
ATOM      2  C   UNL     1       4.235   5.393  19.461  0.00  0.00    +0.000 C 
ATOM      3  O   UNL     1       5.354   5.005  19.794  0.00  0.00    +0.000 OA
ATOM      4  C   UNL     1       3.108   4.476  19.697  0.00  0.00    +0.000 A 
ATOM      5  C   UNL     1       3.253   3.156  19.239  0.00  0.00    +0.000 A 
ATOM      6  C   UNL     1       2.189   2.262  19.343  0.00  0.00    +0.000 A 
ATOM      7  C   UNL     1       0.992   2.685  19.909  0.00  0.00    +0.000 A 
ATOM      8  C   UNL     1       0.871   3.987  20.408  0.00  0.00    +0.000 A 
ATOM      9  C   UNL     1       1.937   4.890  20.315  0.00  0.00    +0.000 A 
ATOM     10  S   UNL     1       1.846   6.477  21.081  0.00  0.00    +0.000 S 
ATOM     11  C   UNL     1       2.014   7.543  19.671  0.00  0.00    +0.000 A 
ATOM     12  N   UNL     1       1.085   8.543  19.738  0.00  0.00    +0.000 NA
ATOM     13  C   UNL     1       1.080   9.488  18.787  0.00  0.00    +0.000 A 
ATOM     14  C   UNL     1       1.964   9.488  17.737  0.00  0.00    +0.000 A 
ATOM     15  C   UNL     1       2.895   8.449  17.659  0.00  0.00    +0.000 A 
ATOM     16  C   UNL     1       2.965   7.430  18.631  0.00  0.00    +0.000 A 
ENDROOT
BRANCH   1  17
ATOM     17  C   UNL     1       4.908   6.362  17.374  0.00  0.00    +0.000 C 
BRANCH  17  18
ATOM     18  C   UNL     1       4.489   5.195  16.463  0.00  0.00    +0.000 C 
BRANCH  18  19
ATOM     19  C   UNL     1       5.515   4.065  16.440  0.00  0.00    +0.000 C 
BRANCH  19  21
ATOM     20  N   UNL     1       6.283   4.270  14.134  0.00  0.00    +0.000 N 
ATOM     21  C   UNL     1       6.644   4.348  15.459  0.00  0.00    +0.000 C 
ATOM     22  O   UNL     1       7.779   4.609  15.842  0.00  0.00    +0.000 OA
ATOM     23  H   UNL     1       5.359   3.938  13.892  0.00  0.00    +0.000 HD
BRANCH  20  24
ATOM     24  C   UNL     1       7.231   4.482  13.055  0.00  0.00    +0.000 C 
BRANCH  24  25
ATOM     25  C   UNL     1       6.824   3.774  11.762  0.00  0.00    +0.000 C 
BRANCH  25  27
ATOM     26  C   UNL     1       4.391   3.207  11.405  0.00  0.00    +0.000 C 
ATOM     27  C   UNL     1       5.720   2.737  11.980  0.00  0.00    +0.000 C 
ENDBRANCH  25  27
ENDBRANCH  24  25
ENDBRANCH  20  24
ENDBRANCH  19  21
ENDBRANCH  18  19
ENDBRANCH  17  18
ENDBRANCH   1  17
TORSDOF 7
ENDMDL
MODEL 4
REMARK VINA RESULT:      -7.8      0.864      1.026
REMARK  Name = 
REMARK  8 active torsions:
REMARK  status: ('A' for Active; 'I' for Inactive)
REMARK    1  A    between atoms: C_1  and  C_2
REMARK    2  A    between atoms: C_2  and  C_3
REMARK    3  A    between atoms: C_3  and  C_4
REMARK    4  A    between atoms: C_4  and  N_5
REMARK    5  A    between atoms: C_6  and  C_8
REMARK    6  A    between atoms: C_8  and  C_9
REMARK    7  A    between atoms: C_9  and  C_10
REMARK    8  A    between atoms: C_10  and  N_11
REMARK                            x       y       z     vdW  Elec       q    Type
REMARK                         _______ _______ _______ _____ _____    ______ ____
ROOT
ATOM      1  N   UNL     1       4.281   6.030  18.285  0.00  0.00    +0.000 N 
ATOM      2  C   UNL     1       4.474   4.852  19.024  0.00  0.00    +0.000 C 
ATOM      3  O   UNL     1       5.585   4.405  19.304  0.00  0.00    +0.000 OA
ATOM      4  C   UNL     1       3.336   3.921  19.098  0.00  0.00    +0.000 A 
ATOM      5  C   UNL     1       3.477   2.689  18.437  0.00  0.00    +0.000 A 
ATOM      6  C   UNL     1       2.404   1.800  18.386  0.00  0.00    +0.000 A 
ATOM      7  C   UNL     1       1.203   2.140  18.997  0.00  0.00    +0.000 A 
ATOM      8  C   UNL     1       1.086   3.347  19.696  0.00  0.00    +0.000 A 
ATOM      9  C   UNL     1       2.160   4.243  19.760  0.00  0.00    +0.000 A 
ATOM     10  S   UNL     1       2.073   5.688  20.767  0.00  0.00    +0.000 S 
ATOM     11  C   UNL     1       2.268   6.964  19.547  0.00  0.00    +0.000 A 
ATOM     12  N   UNL     1       1.346   7.950  19.761  0.00  0.00    +0.000 NA
ATOM     13  C   UNL     1       1.360   9.034  18.973  0.00  0.00    +0.000 A 
ATOM     14  C   UNL     1       2.259   9.192  17.946  0.00  0.00    +0.000 A 
ATOM     15  C   UNL     1       3.182   8.169  17.715  0.00  0.00    +0.000 A 
ATOM     16  C   UNL     1       3.232   7.008  18.514  0.00  0.00    +0.000 A 
ENDROOT
BRANCH   1  17
ATOM     17  C   UNL     1       5.182   6.134  17.125  0.00  0.00    +0.000 C 
BRANCH  17  18
ATOM     18  C   UNL     1       4.760   5.137  16.032  0.00  0.00    +0.000 C 
BRANCH  18  19
ATOM     19  C   UNL     1       5.808   4.056  15.781  0.00  0.00    +0.000 C 
BRANCH  19  21
ATOM     20  N   UNL     1       6.433   3.646  13.459  0.00  0.00    +0.000 N 
ATOM     21  C   UNL     1       6.689   4.392  14.586  0.00  0.00    +0.000 C 
ATOM     22  O   UNL     1       7.559   5.254  14.650  0.00  0.00    +0.000 OA
ATOM     23  H   UNL     1       5.781   2.875  13.514  0.00  0.00    +0.000 HD
BRANCH  20  24
ATOM     24  C   UNL     1       7.191   3.806  12.231  0.00  0.00    +0.000 C 
BRANCH  24  25
ATOM     25  C   UNL     1       6.715   2.874  11.116  0.00  0.00    +0.000 C 
BRANCH  25  27
ATOM     26  C   UNL     1       6.125   0.421  11.191  0.00  0.00    +0.000 C 
ATOM     27  C   UNL     1       5.716   1.825  11.611  0.00  0.00    +0.000 C 
ENDBRANCH  25  27
ENDBRANCH  24  25
ENDBRANCH  20  24
ENDBRANCH  19  21
ENDBRANCH  18  19
ENDBRANCH  17  18
ENDBRANCH   1  17
TORSDOF 7
ENDMDL
MODEL 5
REMARK VINA RESULT:      -7.6      3.003      5.089
REMARK  Name = 
REMARK  8 active torsions:
REMARK  status: ('A' for Active; 'I' for Inactive)
REMARK    1  A    between atoms: C_1  and  C_2
REMARK    2  A    between atoms: C_2  and  C_3
REMARK    3  A    between atoms: C_3  and  C_4
REMARK    4  A    between atoms: C_4  and  N_5
REMARK    5  A    between atoms: C_6  and  C_8
REMARK    6  A    between atoms: C_8  and  C_9
REMARK    7  A    between atoms: C_9  and  C_10
REMARK    8  A    between atoms: C_10  and  N_11
REMARK                            x       y       z     vdW  Elec       q    Type
REMARK                         _______ _______ _______ _____ _____    ______ ____
ROOT
ATOM      1  N   UNL     1       3.839   5.910  18.020  0.00  0.00    +0.000 N 
ATOM      2  C   UNL     1       4.056   4.727  18.744  0.00  0.00    +0.000 C 
ATOM      3  O   UNL     1       5.155   4.180  18.829  0.00  0.00    +0.000 OA
ATOM      4  C   UNL     1       2.871   3.907  19.048  0.00  0.00    +0.000 A 
ATOM      5  C   UNL     1       2.776   2.661  18.406  0.00  0.00    +0.000 A 
ATOM      6  C   UNL     1       1.636   1.877  18.574  0.00  0.00    +0.000 A 
ATOM      7  C   UNL     1       0.604   2.334  19.385  0.00  0.00    +0.000 A 
ATOM      8  C   UNL     1       0.726   3.554  20.060  0.00  0.00    +0.000 A 
ATOM      9  C   UNL     1       1.871   4.345  19.904  0.00  0.00    +0.000 A 
ATOM     10  S   UNL     1       2.101   5.802  20.871  0.00  0.00    +0.000 S 
ATOM     11  C   UNL     1       2.184   7.041  19.602  0.00  0.00    +0.000 A 
ATOM     12  N   UNL     1       1.411   8.112  19.954  0.00  0.00    +0.000 NA
ATOM     13  C   UNL     1       1.378   9.182  19.147  0.00  0.00    +0.000 A 
ATOM     14  C   UNL     1       2.084   9.245  17.971  0.00  0.00    +0.000 A 
ATOM     15  C   UNL     1       2.852   8.138  17.603  0.00  0.00    +0.000 A 
ATOM     16  C   UNL     1       2.942   6.985  18.410  0.00  0.00    +0.000 A 
ENDROOT
BRANCH   1  17
ATOM     17  C   UNL     1       4.517   5.918  16.714  0.00  0.00    +0.000 C 
BRANCH  17  18
ATOM     18  C   UNL     1       5.670   6.936  16.719  0.00  0.00    +0.000 C 
BRANCH  18  19
ATOM     19  C   UNL     1       7.031   6.290  16.962  0.00  0.00    +0.000 C 
BRANCH  19  21
ATOM     20  N   UNL     1       8.041   8.341  17.810  0.00  0.00    +0.000 N 
ATOM     21  C   UNL     1       7.810   7.008  18.055  0.00  0.00    +0.000 C 
ATOM     22  O   UNL     1       8.199   6.421  19.059  0.00  0.00    +0.000 OA
ATOM     23  H   UNL     1       7.790   8.730  16.911  0.00  0.00    +0.000 HD
BRANCH  20  24
ATOM     24  C   UNL     1       8.791   9.182  18.727  0.00  0.00    +0.000 C 
BRANCH  24  25
ATOM     25  C   UNL     1       9.107  10.559  18.142  0.00  0.00    +0.000 C 
BRANCH  25  27
ATOM     26  C   UNL     1      10.963  12.269  18.103  0.00  0.00    +0.000 C 
ATOM     27  C   UNL     1      10.137  11.330  18.970  0.00  0.00    +0.000 C 
ENDBRANCH  25  27
ENDBRANCH  24  25
ENDBRANCH  20  24
ENDBRANCH  19  21
ENDBRANCH  18  19
ENDBRANCH  17  18
ENDBRANCH   1  17
TORSDOF 7
ENDMDL
MODEL 6
REMARK VINA RESULT:      -7.4      2.083      3.604
REMARK  Name = 
REMARK  8 active torsions:
REMARK  status: ('A' for Active; 'I' for Inactive)
REMARK    1  A    between atoms: C_1  and  C_2
REMARK    2  A    between atoms: C_2  and  C_3
REMARK    3  A    between atoms: C_3  and  C_4
REMARK    4  A    between atoms: C_4  and  N_5
REMARK    5  A    between atoms: C_6  and  C_8
REMARK    6  A    between atoms: C_8  and  C_9
REMARK    7  A    between atoms: C_9  and  C_10
REMARK    8  A    between atoms: C_10  and  N_11
REMARK                            x       y       z     vdW  Elec       q    Type
REMARK                         _______ _______ _______ _____ _____    ______ ____
ROOT
ATOM      1  N   UNL     1       3.880   5.932  18.246  0.00  0.00    +0.000 N 
ATOM      2  C   UNL     1       4.039   4.815  19.081  0.00  0.00    +0.000 C 
ATOM      3  O   UNL     1       5.126   4.279  19.293  0.00  0.00    +0.000 OA
ATOM      4  C   UNL     1       2.831   4.022  19.366  0.00  0.00    +0.000 A 
ATOM      5  C   UNL     1       2.777   2.726  18.827  0.00  0.00    +0.000 A 
ATOM      6  C   UNL     1       1.624   1.957  18.977  0.00  0.00    +0.000 A 
ATOM      7  C   UNL     1       0.537   2.480  19.668  0.00  0.00    +0.000 A 
ATOM      8  C   UNL     1       0.616   3.753  20.245  0.00  0.00    +0.000 A 
ATOM      9  C   UNL     1       1.773   4.529  20.107  0.00  0.00    +0.000 A 
ATOM     10  S   UNL     1       1.939   6.064  20.961  0.00  0.00    +0.000 S 
ATOM     11  C   UNL     1       2.120   7.191  19.601  0.00  0.00    +0.000 A 
ATOM     12  N   UNL     1       1.328   8.286  19.803  0.00  0.00    +0.000 NA
ATOM     13  C   UNL     1       1.360   9.284  18.908  0.00  0.00    +0.000 A 
ATOM     14  C   UNL     1       2.150   9.248  17.786  0.00  0.00    +0.000 A 
ATOM     15  C   UNL     1       2.938   8.115  17.570  0.00  0.00    +0.000 A 
ATOM     16  C   UNL     1       2.963   7.035  18.477  0.00  0.00    +0.000 A 
ENDROOT
BRANCH   1  17
ATOM     17  C   UNL     1       4.653   5.830  16.997  0.00  0.00    +0.000 C 
BRANCH  17  18
ATOM     18  C   UNL     1       4.395   4.472  16.321  0.00  0.00    +0.000 C 
BRANCH  18  19
ATOM     19  C   UNL     1       5.600   3.963  15.536  0.00  0.00    +0.000 C 
BRANCH  19  21
ATOM     20  N   UNL     1       7.064   4.418  17.433  0.00  0.00    +0.000 N 
ATOM     21  C   UNL     1       6.905   4.535  16.072  0.00  0.00    +0.000 C 
ATOM     22  O   UNL     1       7.728   5.064  15.332  0.00  0.00    +0.000 OA
ATOM     23  H   UNL     1       6.296   4.075  17.993  0.00  0.00    +0.000 HD
BRANCH  20  24
ATOM     24  C   UNL     1       8.233   4.931  18.127  0.00  0.00    +0.000 C 
BRANCH  24  25
ATOM     25  C   UNL     1       7.974   6.276  18.806  0.00  0.00    +0.000 C 
BRANCH  25  27
ATOM     26  C   UNL     1       8.368   8.706  18.250  0.00  0.00    +0.000 C 
ATOM     27  C   UNL     1       7.720   7.404  17.803  0.00  0.00    +0.000 C 
ENDBRANCH  25  27
ENDBRANCH  24  25
ENDBRANCH  20  24
ENDBRANCH  19  21
ENDBRANCH  18  19
ENDBRANCH  17  18
ENDBRANCH   1  17
TORSDOF 7
ENDMDL
MODEL 7
REMARK VINA RESULT:      -7.4      3.702      6.820
REMARK  Name = 
REMARK  8 active torsions:
REMARK  status: ('A' for Active; 'I' for Inactive)
REMARK    1  A    between atoms: C_1  and  C_2
REMARK    2  A    between atoms: C_2  and  C_3
REMARK    3  A    between atoms: C_3  and  C_4
REMARK    4  A    between atoms: C_4  and  N_5
REMARK    5  A    between atoms: C_6  and  C_8
REMARK    6  A    between atoms: C_8  and  C_9
REMARK    7  A    between atoms: C_9  and  C_10
REMARK    8  A    between atoms: C_10  and  N_11
REMARK                            x       y       z     vdW  Elec       q    Type
REMARK                         _______ _______ _______ _____ _____    ______ ____
ROOT
ATOM      1  N   UNL     1       2.933   5.592  17.727  0.00  0.00    +0.000 N 
ATOM      2  C   UNL     1       2.068   4.503  17.919  0.00  0.00    +0.000 C 
ATOM      3  O   UNL     1       1.031   4.344  17.277  0.00  0.00    +0.000 OA
ATOM      4  C   UNL     1       2.189   3.776  19.193  0.00  0.00    +0.000 A 
ATOM      5  C   UNL     1       1.114   3.880  20.091  0.00  0.00    +0.000 A 
ATOM      6  C   UNL     1       1.203   3.296  21.354  0.00  0.00    +0.000 A 
ATOM      7  C   UNL     1       2.357   2.607  21.710  0.00  0.00    +0.000 A 
ATOM      8  C   UNL     1       3.404   2.465  20.792  0.00  0.00    +0.000 A 
ATOM      9  C   UNL     1       3.320   3.041  19.519  0.00  0.00    +0.000 A 
ATOM     10  S   UNL     1       4.563   2.735  18.306  0.00  0.00    +0.000 S 
ATOM     11  C   UNL     1       5.162   4.380  18.011  0.00  0.00    +0.000 A 
ATOM     12  N   UNL     1       6.529   4.376  17.993  0.00  0.00    +0.000 NA
ATOM     13  C   UNL     1       7.178   5.519  17.733  0.00  0.00    +0.000 A 
ATOM     14  C   UNL     1       6.526   6.704  17.494  0.00  0.00    +0.000 A 
ATOM     15  C   UNL     1       5.130   6.709  17.540  0.00  0.00    +0.000 A 
ATOM     16  C   UNL     1       4.384   5.540  17.794  0.00  0.00    +0.000 A 
ENDROOT
BRANCH   1  17
ATOM     17  C   UNL     1       2.221   6.872  17.577  0.00  0.00    +0.000 C 
BRANCH  17  18
ATOM     18  C   UNL     1       2.591   7.824  18.727  0.00  0.00    +0.000 C 
BRANCH  18  19
ATOM     19  C   UNL     1       1.978   7.408  20.062  0.00  0.00    +0.000 C 
BRANCH  19  21
ATOM     20  N   UNL     1       0.686   9.464  19.836  0.00  0.00    +0.000 N 
ATOM     21  C   UNL     1       1.222   8.555  20.717  0.00  0.00    +0.000 C 
ATOM     22  O   UNL     1       1.123   8.646  21.936  0.00  0.00    +0.000 OA
ATOM     23  H   UNL     1       0.905   9.386  18.852  0.00  0.00    +0.000 HD
BRANCH  20  24
ATOM     24  C   UNL     1      -0.046  10.638  20.278  0.00  0.00    +0.000 C 
BRANCH  24  25
ATOM     25  C   UNL     1      -1.083  11.107  19.257  0.00  0.00    +0.000 C 
BRANCH  25  27
ATOM     26  C   UNL     1      -2.583   9.909  17.619  0.00  0.00    +0.000 C 
ATOM     27  C   UNL     1      -1.147  10.205  18.022  0.00  0.00    +0.000 C 
ENDBRANCH  25  27
ENDBRANCH  24  25
ENDBRANCH  20  24
ENDBRANCH  19  21
ENDBRANCH  18  19
ENDBRANCH  17  18
ENDBRANCH   1  17
TORSDOF 7
ENDMDL
MODEL 8
REMARK VINA RESULT:      -7.4      3.717      6.842
REMARK  Name = 
REMARK  8 active torsions:
REMARK  status: ('A' for Active; 'I' for Inactive)
REMARK    1  A    between atoms: C_1  and  C_2
REMARK    2  A    between atoms: C_2  and  C_3
REMARK    3  A    between atoms: C_3  and  C_4
REMARK    4  A    between atoms: C_4  and  N_5
REMARK    5  A    between atoms: C_6  and  C_8
REMARK    6  A    between atoms: C_8  and  C_9
REMARK    7  A    between atoms: C_9  and  C_10
REMARK    8  A    between atoms: C_10  and  N_11
REMARK                            x       y       z     vdW  Elec       q    Type
REMARK                         _______ _______ _______ _____ _____    ______ ____
ROOT
ATOM      1  N   UNL     1       3.036   5.613  17.696  0.00  0.00    +0.000 N 
ATOM      2  C   UNL     1       2.151   4.540  17.889  0.00  0.00    +0.000 C 
ATOM      3  O   UNL     1       1.124   4.385  17.229  0.00  0.00    +0.000 OA
ATOM      4  C   UNL     1       2.237   3.832  19.177  0.00  0.00    +0.000 A 
ATOM      5  C   UNL     1       1.147   3.966  20.052  0.00  0.00    +0.000 A 
ATOM      6  C   UNL     1       1.202   3.402  21.325  0.00  0.00    +0.000 A 
ATOM      7  C   UNL     1       2.339   2.703  21.715  0.00  0.00    +0.000 A 
ATOM      8  C   UNL     1       3.401   2.531  20.820  0.00  0.00    +0.000 A 
ATOM      9  C   UNL     1       3.351   3.087  19.536  0.00  0.00    +0.000 A 
ATOM     10  S   UNL     1       4.612   2.743  18.353  0.00  0.00    +0.000 S 
ATOM     11  C   UNL     1       5.241   4.374  18.043  0.00  0.00    +0.000 A 
ATOM     12  N   UNL     1       6.607   4.349  18.052  0.00  0.00    +0.000 NA
ATOM     13  C   UNL     1       7.278   5.479  17.787  0.00  0.00    +0.000 A 
ATOM     14  C   UNL     1       6.649   6.669  17.516  0.00  0.00    +0.000 A 
ATOM     15  C   UNL     1       5.252   6.695  17.534  0.00  0.00    +0.000 A 
ATOM     16  C   UNL     1       4.484   5.541  17.792  0.00  0.00    +0.000 A 
ENDROOT
BRANCH   1  17
ATOM     17  C   UNL     1       2.346   6.900  17.512  0.00  0.00    +0.000 C 
BRANCH  17  18
ATOM     18  C   UNL     1       2.309   7.679  18.838  0.00  0.00    +0.000 C 
BRANCH  18  19
ATOM     19  C   UNL     1       2.164   9.185  18.636  0.00  0.00    +0.000 C 
BRANCH  19  21
ATOM     20  N   UNL     1      -0.002   9.964  17.830  0.00  0.00    +0.000 N 
ATOM     21  C   UNL     1       0.751   9.661  18.940  0.00  0.00    +0.000 C 
ATOM     22  O   UNL     1       0.342   9.769  20.092  0.00  0.00    +0.000 OA
ATOM     23  H   UNL     1       0.438   9.961  16.919  0.00  0.00    +0.000 HD
BRANCH  20  24
ATOM     24  C   UNL     1      -1.363  10.460  17.923  0.00  0.00    +0.000 C 
BRANCH  24  25
ATOM     25  C   UNL     1      -2.233  10.027  16.743  0.00  0.00    +0.000 C 
BRANCH  25  27
ATOM     26  C   UNL     1      -3.941  11.505  17.868  0.00  0.00    +0.000 C 
ATOM     27  C   UNL     1      -3.722  10.291  16.978  0.00  0.00    +0.000 C 
ENDBRANCH  25  27
ENDBRANCH  24  25
ENDBRANCH  20  24
ENDBRANCH  19  21
ENDBRANCH  18  19
ENDBRANCH  17  18
ENDBRANCH   1  17
TORSDOF 7
ENDMDL
MODEL 9
REMARK VINA RESULT:      -7.3      3.688      7.672
REMARK  Name = 
REMARK  8 active torsions:
REMARK  status: ('A' for Active; 'I' for Inactive)
REMARK    1  A    between atoms: C_1  and  C_2
REMARK    2  A    between atoms: C_2  and  C_3
REMARK    3  A    between atoms: C_3  and  C_4
REMARK    4  A    between atoms: C_4  and  N_5
REMARK    5  A    between atoms: C_6  and  C_8
REMARK    6  A    between atoms: C_8  and  C_9
REMARK    7  A    between atoms: C_9  and  C_10
REMARK    8  A    between atoms: C_10  and  N_11
REMARK                            x       y       z     vdW  Elec       q    Type
REMARK                         _______ _______ _______ _____ _____    ______ ____
ROOT
ATOM      1  N   UNL     1       3.247   5.749  17.742  0.00  0.00    +0.000 N 
ATOM      2  C   UNL     1       2.304   4.719  17.887  0.00  0.00    +0.000 C 
ATOM      3  O   UNL     1       1.282   4.639  17.207  0.00  0.00    +0.000 OA
ATOM      4  C   UNL     1       2.330   3.969  19.154  0.00  0.00    +0.000 A 
ATOM      5  C   UNL     1       1.233   4.134  20.016  0.00  0.00    +0.000 A 
ATOM      6  C   UNL     1       1.236   3.530  21.271  0.00  0.00    +0.000 A 
ATOM      7  C   UNL     1       2.327   2.759  21.657  0.00  0.00    +0.000 A 
ATOM      8  C   UNL     1       3.394   2.557  20.774  0.00  0.00    +0.000 A 
ATOM      9  C   UNL     1       3.395   3.154  19.507  0.00  0.00    +0.000 A 
ATOM     10  S   UNL     1       4.658   2.779  18.333  0.00  0.00    +0.000 S 
ATOM     11  C   UNL     1       5.377   4.383  18.085  0.00  0.00    +0.000 A 
ATOM     12  N   UNL     1       6.740   4.285  18.115  0.00  0.00    +0.000 NA
ATOM     13  C   UNL     1       7.475   5.385  17.896  0.00  0.00    +0.000 A 
ATOM     14  C   UNL     1       6.914   6.614  17.652  0.00  0.00    +0.000 A 
ATOM     15  C   UNL     1       5.521   6.714  17.649  0.00  0.00    +0.000 A 
ATOM     16  C   UNL     1       4.688   5.596  17.859  0.00  0.00    +0.000 A 
ENDROOT
BRANCH   1  17
ATOM     17  C   UNL     1       2.630   7.076  17.588  0.00  0.00    +0.000 C 
BRANCH  17  18
ATOM     18  C   UNL     1       2.224   7.637  18.961  0.00  0.00    +0.000 C 
BRANCH  18  19
ATOM     19  C   UNL     1       1.213   8.776  18.860  0.00  0.00    +0.000 C 
BRANCH  19  21
ATOM     20  N   UNL     1       0.957   8.808  21.285  0.00  0.00    +0.000 N 
ATOM     21  C   UNL     1       1.128   9.572  20.155  0.00  0.00    +0.000 C 
ATOM     22  O   UNL     1       1.198  10.796  20.163  0.00  0.00    +0.000 OA
ATOM     23  H   UNL     1       0.793   7.814  21.190  0.00  0.00    +0.000 HD
BRANCH  20  24
ATOM     24  C   UNL     1       0.828   9.393  22.608  0.00  0.00    +0.000 C 
BRANCH  24  25
ATOM     25  C   UNL     1      -0.609   9.796  22.939  0.00  0.00    +0.000 C 
BRANCH  25  27
ATOM     26  C   UNL     1      -2.227  11.704  23.268  0.00  0.00    +0.000 C 
ATOM     27  C   UNL     1      -0.869  11.289  22.725  0.00  0.00    +0.000 C 
ENDBRANCH  25  27
ENDBRANCH  24  25
ENDBRANCH  20  24
ENDBRANCH  19  21
ENDBRANCH  18  19
ENDBRANCH  17  18
ENDBRANCH   1  17
TORSDOF 7
ENDMDL
