MODEL 1
REMARK VINA RESULT:      -7.4      0.000      0.000
REMARK  Name = 
REMARK  5 active torsions:
REMARK  status: ('A' for Active; 'I' for Inactive)
REMARK    1  A    between atoms: C_1  and  C_2
REMARK    2  A    between atoms: C_11  and  O_12
REMARK    3  A    between atoms: C_15  and  C_16
REMARK    4  A    between atoms: C_20  and  C_21
REMARK    5  A    between atoms: C_28  and  C_29
REMARK                            x       y       z     vdW  Elec       q    Type
REMARK                         _______ _______ _______ _____ _____    ______ ____
ROOT
ATOM      1  C   UNL     1       0.008   8.755  20.557  0.00  0.00    +0.000 C 
ATOM      2  C   UNL     1       0.557   9.983  19.789  0.00  0.00    +0.000 C 
ATOM      3  C   UNL     1       1.327  10.921  20.734  0.00  0.00    +0.000 C 
ATOM      4  C   UNL     1       0.404  11.538  21.798  0.00  0.00    +0.000 C 
ATOM      5  C   UNL     1      -0.866  12.223  21.225  0.00  0.00    +0.000 C 
ATOM      6  C   UNL     1      -1.581  11.361  20.150  0.00  0.00    +0.000 C 
ATOM      7  C   UNL     1      -2.681  12.180  19.457  0.00  0.00    +0.000 C 
ATOM      8  C   UNL     1      -3.517  12.970  20.414  0.00  0.00    +0.000 C 
ATOM      9  C   UNL     1      -3.194  13.202  21.699  0.00  0.00    +0.000 C 
ATOM     10  C   UNL     1      -4.136  13.979  22.594  0.00  0.00    +0.000 C 
ATOM     11  C   UNL     1      -3.430  15.119  23.331  0.00  0.00    +0.000 C 
ATOM     12  C   UNL     1      -2.172  14.632  24.048  0.00  0.00    +0.000 C 
ATOM     13  C   UNL     1      -1.228  13.917  23.084  0.00  0.00    +0.000 C 
ATOM     14  C   UNL     1      -1.879  12.721  22.331  0.00  0.00    +0.000 C 
ATOM     15  C   UNL     1      -2.214  11.590  23.333  0.00  0.00    +0.000 C 
ATOM     16  C   UNL     1      -0.547  10.854  19.140  0.00  0.00    +0.000 C 
ATOM     17  C   UNL     1      -1.047  10.024  17.973  0.00  0.00    +0.000 C 
ATOM     18  C   UNL     1       0.213   9.314  17.466  0.00  0.00    +0.000 C 
ATOM     19  C   UNL     1       1.335   9.513  18.532  0.00  0.00    +0.000 C 
ENDROOT
BRANCH  19  20
ATOM     20  C   UNL     1       2.193   8.240  18.665  0.00  0.00    +0.000 C 
ATOM     21  O   UNL     1       2.161   7.548  19.683  0.00  0.00    +0.000 OA
ATOM     22  N   UNL     1       2.980   7.924  17.568  0.00  0.00    +0.000 N 
ATOM     23  C   UNL     1       3.841   6.840  17.659  0.00  0.00    +0.000 A 
ATOM     24  N   UNL     1       5.162   6.992  17.511  0.00  0.00    +0.000 NA
ATOM     25  N   UNL     1       5.659   5.760  17.751  0.00  0.00    +0.000 N 
ATOM     26  C   UNL     1       4.699   4.801  17.873  0.00  0.00    +0.000 A 
ATOM     27  C   UNL     1       3.502   5.476  17.815  0.00  0.00    +0.000 A 
ATOM     28  H   UNL     1       3.353   8.685  17.022  0.00  0.00    +0.000 HD
ATOM     29  H   UNL     1       6.669   5.637  17.781  0.00  0.00    +0.000 HD
BRANCH  27  30
ATOM     30  C   UNL     1       2.211   4.864  17.797  0.00  0.00    +0.000 C 
ATOM     31  N   UNL     1       1.199   4.318  17.716  0.00  0.00    +0.000 NA
ENDBRANCH  27  30
ENDBRANCH  19  20
BRANCH  11  32
ATOM     32  O   UNL     1      -4.314  15.708  24.283  0.00  0.00    +0.000 OA
ATOM     33  H   UNL     1      -4.259  16.674  24.185  0.00  0.00    +0.000 HD
ENDBRANCH  11  32
TORSDOF 3
ENDMDL
MODEL 2
REMARK VINA RESULT:      -7.4      0.994      1.004
REMARK  Name = 
REMARK  5 active torsions:
REMARK  status: ('A' for Active; 'I' for Inactive)
REMARK    1  A    between atoms: C_1  and  C_2
REMARK    2  A    between atoms: C_11  and  O_12
REMARK    3  A    between atoms: C_15  and  C_16
REMARK    4  A    between atoms: C_20  and  C_21
REMARK    5  A    between atoms: C_28  and  C_29
REMARK                            x       y       z     vdW  Elec       q    Type
REMARK                         _______ _______ _______ _____ _____    ______ ____
ROOT
ATOM      1  C   UNL     1      -0.385   9.174  20.919  0.00  0.00    +0.000 C 
ATOM      2  C   UNL     1       0.085  10.374  20.059  0.00  0.00    +0.000 C 
ATOM      3  C   UNL     1       0.769  11.440  20.932  0.00  0.00    +0.000 C 
ATOM      4  C   UNL     1      -0.215  12.070  21.931  0.00  0.00    +0.000 C 
ATOM      5  C   UNL     1      -1.522  12.610  21.290  0.00  0.00    +0.000 C 
ATOM      6  C   UNL     1      -2.153  11.613  20.282  0.00  0.00    +0.000 C 
ATOM      7  C   UNL     1      -3.298  12.289  19.512  0.00  0.00    +0.000 C 
ATOM      8  C   UNL     1      -4.207  13.090  20.391  0.00  0.00    +0.000 C 
ATOM      9  C   UNL     1      -3.924  13.448  21.656  0.00  0.00    +0.000 C 
ATOM     10  C   UNL     1      -4.935  14.223  22.474  0.00  0.00    +0.000 C 
ATOM     11  C   UNL     1      -4.327  15.468  23.123  0.00  0.00    +0.000 C 
ATOM     12  C   UNL     1      -3.050  15.136  23.891  0.00  0.00    +0.000 C 
ATOM     13  C   UNL     1      -2.039  14.417  22.999  0.00  0.00    +0.000 C 
ATOM     14  C   UNL     1      -2.588  13.120  22.340  0.00  0.00    +0.000 C 
ATOM     15  C   UNL     1      -2.857  12.051  23.428  0.00  0.00    +0.000 C 
ATOM     16  C   UNL     1      -1.068  11.104  19.328  0.00  0.00    +0.000 C 
ATOM     17  C   UNL     1      -1.485  10.148  18.228  0.00  0.00    +0.000 C 
ATOM     18  C   UNL     1      -0.168   9.495  17.796  0.00  0.00    +0.000 C 
ATOM     19  C   UNL     1       0.917   9.862  18.854  0.00  0.00    +0.000 C 
ENDROOT
BRANCH  19  20
ATOM     20  C   UNL     1       1.865   8.672  19.100  0.00  0.00    +0.000 C 
ATOM     21  O   UNL     1       2.304   8.423  20.224  0.00  0.00    +0.000 OA
ATOM     22  N   UNL     1       2.170   7.902  17.989  0.00  0.00    +0.000 N 
ATOM     23  C   UNL     1       3.087   6.869  18.128  0.00  0.00    +0.000 A 
ATOM     24  N   UNL     1       4.219   6.849  17.416  0.00  0.00    +0.000 NA
ATOM     25  N   UNL     1       4.875   5.765  17.881  0.00  0.00    +0.000 N 
ATOM     26  C   UNL     1       4.132   5.004  18.733  0.00  0.00    +0.000 A 
ATOM     27  C   UNL     1       2.959   5.699  18.911  0.00  0.00    +0.000 A 
ATOM     28  H   UNL     1       2.225   8.366  17.096  0.00  0.00    +0.000 HD
ATOM     29  H   UNL     1       5.819   5.583  17.547  0.00  0.00    +0.000 HD
BRANCH  27  30
ATOM     30  C   UNL     1       1.827   5.230  19.647  0.00  0.00    +0.000 C 
ATOM     31  N   UNL     1       0.969   4.841  20.311  0.00  0.00    +0.000 NA
ENDBRANCH  27  30
ENDBRANCH  19  20
BRANCH  11  32
ATOM     32  O   UNL     1      -5.269  16.065  24.013  0.00  0.00    +0.000 OA
ATOM     33  H   UNL     1      -4.930  16.941  24.264  0.00  0.00    +0.000 HD
ENDBRANCH  11  32
TORSDOF 3
ENDMDL
MODEL 3
REMARK VINA RESULT:      -7.2      1.611      2.395
REMARK  Name = 
REMARK  5 active torsions:
REMARK  status: ('A' for Active; 'I' for Inactive)
REMARK    1  A    between atoms: C_1  and  C_2
REMARK    2  A    between atoms: C_11  and  O_12
REMARK    3  A    between atoms: C_15  and  C_16
REMARK    4  A    between atoms: C_20  and  C_21
REMARK    5  A    between atoms: C_28  and  C_29
REMARK                            x       y       z     vdW  Elec       q    Type
REMARK                         _______ _______ _______ _____ _____    ______ ____
ROOT
ATOM      1  C   UNL     1      -0.937  10.064  19.472  0.00  0.00    +0.000 C 
ATOM      2  C   UNL     1       0.252  10.721  20.217  0.00  0.00    +0.000 C 
ATOM      3  C   UNL     1       0.120  10.531  21.737  0.00  0.00    +0.000 C 
ATOM      4  C   UNL     1      -1.111  11.263  22.296  0.00  0.00    +0.000 C 
ATOM      5  C   UNL     1      -1.200  12.762  21.900  0.00  0.00    +0.000 C 
ATOM      6  C   UNL     1      -0.916  13.002  20.393  0.00  0.00    +0.000 C 
ATOM      7  C   UNL     1      -0.785  14.507  20.110  0.00  0.00    +0.000 C 
ATOM      8  C   UNL     1      -1.844  15.326  20.779  0.00  0.00    +0.000 C 
ATOM      9  C   UNL     1      -2.651  14.878  21.758  0.00  0.00    +0.000 C 
ATOM     10  C   UNL     1      -3.721  15.779  22.336  0.00  0.00    +0.000 C 
ATOM     11  C   UNL     1      -3.677  15.827  23.865  0.00  0.00    +0.000 C 
ATOM     12  C   UNL     1      -3.668  14.425  24.472  0.00  0.00    +0.000 C 
ATOM     13  C   UNL     1      -2.527  13.584  23.904  0.00  0.00    +0.000 C 
ATOM     14  C   UNL     1      -2.540  13.466  22.353  0.00  0.00    +0.000 C 
ATOM     15  C   UNL     1      -3.779  12.656  21.899  0.00  0.00    +0.000 C 
ATOM     16  C   UNL     1       0.357  12.250  19.992  0.00  0.00    +0.000 C 
ATOM     17  C   UNL     1       0.841  12.390  18.562  0.00  0.00    +0.000 C 
ATOM     18  C   UNL     1       1.788  11.200  18.380  0.00  0.00    +0.000 C 
ATOM     19  C   UNL     1       1.591  10.242  19.596  0.00  0.00    +0.000 C 
ENDROOT
BRANCH  19  20
ATOM     20  C   UNL     1       1.679   8.770  19.152  0.00  0.00    +0.000 C 
ATOM     21  O   UNL     1       1.380   8.425  18.008  0.00  0.00    +0.000 OA
ATOM     22  N   UNL     1       2.128   7.875  20.111  0.00  0.00    +0.000 N 
ATOM     23  C   UNL     1       2.146   6.522  19.799  0.00  0.00    +0.000 A 
ATOM     24  N   UNL     1       1.436   5.640  20.511  0.00  0.00    +0.000 NA
ATOM     25  N   UNL     1       1.633   4.470  19.867  0.00  0.00    +0.000 N 
ATOM     26  C   UNL     1       2.573   4.544  18.883  0.00  0.00    +0.000 A 
ATOM     27  C   UNL     1       2.928   5.871  18.818  0.00  0.00    +0.000 A 
ATOM     28  H   UNL     1       1.892   8.059  21.073  0.00  0.00    +0.000 HD
ATOM     29  H   UNL     1       1.118   3.648  20.175  0.00  0.00    +0.000 HD
BRANCH  27  30
ATOM     30  C   UNL     1       3.966   6.407  17.996  0.00  0.00    +0.000 C 
ATOM     31  N   UNL     1       4.741   6.889  17.291  0.00  0.00    +0.000 NA
ENDBRANCH  27  30
ENDBRANCH  19  20
BRANCH  11  32
ATOM     32  O   UNL     1      -4.803  16.547  24.364  0.00  0.00    +0.000 OA
ATOM     33  H   UNL     1      -5.057  17.206  23.695  0.00  0.00    +0.000 HD
ENDBRANCH  11  32
TORSDOF 3
ENDMDL
MODEL 4
REMARK VINA RESULT:      -7.2      4.085      9.268
REMARK  Name = 
REMARK  5 active torsions:
REMARK  status: ('A' for Active; 'I' for Inactive)
REMARK    1  A    between atoms: C_1  and  C_2
REMARK    2  A    between atoms: C_11  and  O_12
REMARK    3  A    between atoms: C_15  and  C_16
REMARK    4  A    between atoms: C_20  and  C_21
REMARK    5  A    between atoms: C_28  and  C_29
REMARK                            x       y       z     vdW  Elec       q    Type
REMARK                         _______ _______ _______ _____ _____    ______ ____
ROOT
ATOM      1  C   UNL     1      -1.065   9.605  19.418  0.00  0.00    +0.000 C 
ATOM      2  C   UNL     1       0.217  10.129  20.113  0.00  0.00    +0.000 C 
ATOM      3  C   UNL     1       1.282  10.523  19.075  0.00  0.00    +0.000 C 
ATOM      4  C   UNL     1       1.772   9.306  18.275  0.00  0.00    +0.000 C 
ATOM      5  C   UNL     1       2.242   8.111  19.147  0.00  0.00    +0.000 C 
ATOM      6  C   UNL     1       1.258   7.788  20.304  0.00  0.00    +0.000 C 
ATOM      7  C   UNL     1       1.884   6.765  21.264  0.00  0.00    +0.000 C 
ATOM      8  C   UNL     1       2.557   5.630  20.558  0.00  0.00    +0.000 C 
ATOM      9  C   UNL     1       2.862   5.619  19.248  0.00  0.00    +0.000 C 
ATOM     10  C   UNL     1       3.504   4.398  18.624  0.00  0.00    +0.000 C 
ATOM     11  C   UNL     1       4.753   4.748  17.814  0.00  0.00    +0.000 C 
ATOM     12  C   UNL     1       4.480   5.870  16.814  0.00  0.00    +0.000 C 
ATOM     13  C   UNL     1       3.899   7.100  17.508  0.00  0.00    +0.000 C 
ATOM     14  C   UNL     1       2.602   6.815  18.319  0.00  0.00    +0.000 C 
ATOM     15  C   UNL     1       1.454   6.430  17.354  0.00  0.00    +0.000 C 
ATOM     16  C   UNL     1       0.895   9.085  21.035  0.00  0.00    +0.000 C 
ATOM     17  C   UNL     1      -0.026   8.985  22.236  0.00  0.00    +0.000 C 
ATOM     18  C   UNL     1      -0.545  10.416  22.415  0.00  0.00    +0.000 C 
ATOM     19  C   UNL     1      -0.154  11.229  21.142  0.00  0.00    +0.000 C 
ENDROOT
BRANCH  19  20
ATOM     20  C   UNL     1      -1.277  12.211  20.755  0.00  0.00    +0.000 C 
ATOM     21  O   UNL     1      -1.234  12.854  19.706  0.00  0.00    +0.000 OA
ATOM     22  N   UNL     1      -2.332  12.305  21.650  0.00  0.00    +0.000 N 
ATOM     23  C   UNL     1      -3.331  13.237  21.401  0.00  0.00    +0.000 A 
ATOM     24  N   UNL     1      -3.596  14.214  22.275  0.00  0.00    +0.000 NA
ATOM     25  N   UNL     1      -4.544  14.952  21.657  0.00  0.00    +0.000 N 
ATOM     26  C   UNL     1      -5.011  14.385  20.510  0.00  0.00    +0.000 A 
ATOM     27  C   UNL     1      -4.239  13.263  20.319  0.00  0.00    +0.000 A 
ATOM     28  H   UNL     1      -2.129  12.190  22.630  0.00  0.00    +0.000 HD
ATOM     29  H   UNL     1      -4.854  15.817  22.095  0.00  0.00    +0.000 HD
BRANCH  27  30
ATOM     30  C   UNL     1      -4.438  12.292  19.289  0.00  0.00    +0.000 C 
ATOM     31  N   UNL     1      -4.510  11.510  18.446  0.00  0.00    +0.000 NA
ENDBRANCH  27  30
ENDBRANCH  19  20
BRANCH  11  32
ATOM     32  O   UNL     1       5.220   3.597  17.113  0.00  0.00    +0.000 OA
ATOM     33  H   UNL     1       5.988   3.244  17.594  0.00  0.00    +0.000 HD
ENDBRANCH  11  32
TORSDOF 3
ENDMDL
MODEL 5
REMARK VINA RESULT:      -7.2      5.091      6.590
REMARK  Name = 
REMARK  5 active torsions:
REMARK  status: ('A' for Active; 'I' for Inactive)
REMARK    1  A    between atoms: C_1  and  C_2
REMARK    2  A    between atoms: C_11  and  O_12
REMARK    3  A    between atoms: C_15  and  C_16
REMARK    4  A    between atoms: C_20  and  C_21
REMARK    5  A    between atoms: C_28  and  C_29
REMARK                            x       y       z     vdW  Elec       q    Type
REMARK                         _______ _______ _______ _____ _____    ______ ____
ROOT
ATOM      1  C   UNL     1       2.498  14.674  20.647  0.00  0.00    +0.000 C 
ATOM      2  C   UNL     1       1.517  14.485  19.463  0.00  0.00    +0.000 C 
ATOM      3  C   UNL     1       0.478  15.619  19.425  0.00  0.00    +0.000 C 
ATOM      4  C   UNL     1      -0.434  15.594  20.663  0.00  0.00    +0.000 C 
ATOM      5  C   UNL     1      -1.100  14.220  20.941  0.00  0.00    +0.000 C 
ATOM      6  C   UNL     1      -0.103  13.036  20.833  0.00  0.00    +0.000 C 
ATOM      7  C   UNL     1      -0.858  11.698  20.883  0.00  0.00    +0.000 C 
ATOM      8  C   UNL     1      -1.908  11.655  21.948  0.00  0.00    +0.000 C 
ATOM      9  C   UNL     1      -2.373  12.732  22.605  0.00  0.00    +0.000 C 
ATOM     10  C   UNL     1      -3.407  12.570  23.699  0.00  0.00    +0.000 C 
ATOM     11  C   UNL     1      -4.605  13.504  23.510  0.00  0.00    +0.000 C 
ATOM     12  C   UNL     1      -4.163  14.950  23.300  0.00  0.00    +0.000 C 
ATOM     13  C   UNL     1      -3.174  15.064  22.141  0.00  0.00    +0.000 C 
ATOM     14  C   UNL     1      -1.914  14.165  22.295  0.00  0.00    +0.000 C 
ATOM     15  C   UNL     1      -1.057  14.661  23.484  0.00  0.00    +0.000 C 
ATOM     16  C   UNL     1       0.702  13.170  19.536  0.00  0.00    +0.000 C 
ATOM     17  C   UNL     1       1.708  12.082  19.212  0.00  0.00    +0.000 C 
ATOM     18  C   UNL     1       2.625  12.734  18.172  0.00  0.00    +0.000 C 
ATOM     19  C   UNL     1       2.313  14.263  18.151  0.00  0.00    +0.000 C 
ENDROOT
BRANCH  19  20
ATOM     20  C   UNL     1       3.604  15.081  17.958  0.00  0.00    +0.000 C 
ATOM     21  O   UNL     1       3.594  16.171  17.386  0.00  0.00    +0.000 OA
ATOM     22  N   UNL     1       4.759  14.520  18.482  0.00  0.00    +0.000 N 
ATOM     23  C   UNL     1       5.969  15.166  18.264  0.00  0.00    +0.000 A 
ATOM     24  N   UNL     1       6.968  14.560  17.614  0.00  0.00    +0.000 NA
ATOM     25  N   UNL     1       7.920  15.513  17.523  0.00  0.00    +0.000 N 
ATOM     26  C   UNL     1       7.633  16.637  18.238  0.00  0.00    +0.000 A 
ATOM     27  C   UNL     1       6.367  16.438  18.735  0.00  0.00    +0.000 A 
ATOM     28  H   UNL     1       4.838  13.515  18.478  0.00  0.00    +0.000 HD
ATOM     29  H   UNL     1       8.761  15.316  16.985  0.00  0.00    +0.000 HD
BRANCH  27  30
ATOM     30  C   UNL     1       5.688  17.315  19.637  0.00  0.00    +0.000 C 
ATOM     31  N   UNL     1       5.141  18.083  20.299  0.00  0.00    +0.000 NA
ENDBRANCH  27  30
ENDBRANCH  19  20
BRANCH  11  32
ATOM     32  O   UNL     1      -5.462  13.435  24.648  0.00  0.00    +0.000 OA
ATOM     33  H   UNL     1      -4.919  13.580  25.442  0.00  0.00    +0.000 HD
ENDBRANCH  11  32
TORSDOF 3
ENDMDL
MODEL 6
REMARK VINA RESULT:      -7.1      9.422     12.681
REMARK  Name = 
REMARK  5 active torsions:
REMARK  status: ('A' for Active; 'I' for Inactive)
REMARK    1  A    between atoms: C_1  and  C_2
REMARK    2  A    between atoms: C_11  and  O_12
REMARK    3  A    between atoms: C_15  and  C_16
REMARK    4  A    between atoms: C_20  and  C_21
REMARK    5  A    between atoms: C_28  and  C_29
REMARK                            x       y       z     vdW  Elec       q    Type
REMARK                         _______ _______ _______ _____ _____    ______ ____
ROOT
ATOM      1  C   UNL     1       9.033  12.906  24.033  0.00  0.00    +0.000 C 
ATOM      2  C   UNL     1       8.231  14.045  23.354  0.00  0.00    +0.000 C 
ATOM      3  C   UNL     1       7.371  13.498  22.201  0.00  0.00    +0.000 C 
ATOM      4  C   UNL     1       8.240  12.936  21.064  0.00  0.00    +0.000 C 
ATOM      5  C   UNL     1       9.332  13.911  20.548  0.00  0.00    +0.000 C 
ATOM      6  C   UNL     1      10.115  14.599  21.699  0.00  0.00    +0.000 C 
ATOM      7  C   UNL     1      11.009  15.717  21.139  0.00  0.00    +0.000 C 
ATOM      8  C   UNL     1      11.755  15.312  19.907  0.00  0.00    +0.000 C 
ATOM      9  C   UNL     1      11.480  14.220  19.172  0.00  0.00    +0.000 C 
ATOM     10  C   UNL     1      12.328  13.879  17.965  0.00  0.00    +0.000 C 
ATOM     11  C   UNL     1      11.484  13.613  16.718  0.00  0.00    +0.000 C 
ATOM     12  C   UNL     1      10.379  12.595  16.992  0.00  0.00    +0.000 C 
ATOM     13  C   UNL     1       9.513  13.024  18.175  0.00  0.00    +0.000 C 
ATOM     14  C   UNL     1      10.312  13.272  19.486  0.00  0.00    +0.000 C 
ATOM     15  C   UNL     1      10.903  11.938  20.001  0.00  0.00    +0.000 C 
ATOM     16  C   UNL     1       9.122  15.146  22.729  0.00  0.00    +0.000 C 
ATOM     17  C   UNL     1       9.682  15.901  23.919  0.00  0.00    +0.000 C 
ATOM     18  C   UNL     1       8.535  15.880  24.935  0.00  0.00    +0.000 C 
ATOM     19  C   UNL     1       7.467  14.862  24.428  0.00  0.00    +0.000 C 
ENDROOT
BRANCH  19  20
ATOM     20  C   UNL     1       6.853  14.083  25.608  0.00  0.00    +0.000 C 
ATOM     21  O   UNL     1       7.386  14.074  26.718  0.00  0.00    +0.000 OA
ATOM     22  N   UNL     1       5.667  13.417  25.340  0.00  0.00    +0.000 N 
ATOM     23  C   UNL     1       5.110  12.626  26.336  0.00  0.00    +0.000 A 
ATOM     24  N   UNL     1       4.916  11.316  26.150  0.00  0.00    +0.000 NA
ATOM     25  N   UNL     1       4.452  10.884  27.342  0.00  0.00    +0.000 N 
ATOM     26  C   UNL     1       4.184  11.893  28.218  0.00  0.00    +0.000 A 
ATOM     27  C   UNL     1       4.601  13.042  27.587  0.00  0.00    +0.000 A 
ATOM     28  H   UNL     1       5.536  13.042  24.414  0.00  0.00    +0.000 HD
ATOM     29  H   UNL     1       4.307   9.886  27.479  0.00  0.00    +0.000 HD
BRANCH  27  30
ATOM     30  C   UNL     1       4.420  14.368  28.087  0.00  0.00    +0.000 C 
ATOM     31  N   UNL     1       4.291  15.468  28.408  0.00  0.00    +0.000 NA
ENDBRANCH  27  30
ENDBRANCH  19  20
BRANCH  11  32
ATOM     32  O   UNL     1      12.312  13.134  15.659  0.00  0.00    +0.000 OA
ATOM     33  H   UNL     1      11.979  13.508  14.826  0.00  0.00    +0.000 HD
ENDBRANCH  11  32
TORSDOF 3
ENDMDL
MODEL 7
REMARK VINA RESULT:      -6.9      3.909      9.255
REMARK  Name = 
REMARK  5 active torsions:
REMARK  status: ('A' for Active; 'I' for Inactive)
REMARK    1  A    between atoms: C_1  and  C_2
REMARK    2  A    between atoms: C_11  and  O_12
REMARK    3  A    between atoms: C_15  and  C_16
REMARK    4  A    between atoms: C_20  and  C_21
REMARK    5  A    between atoms: C_28  and  C_29
REMARK                            x       y       z     vdW  Elec       q    Type
REMARK                         _______ _______ _______ _____ _____    ______ ____
ROOT
ATOM      1  C   UNL     1       0.051   9.226  18.648  0.00  0.00    +0.000 C 
ATOM      2  C   UNL     1       1.384   9.351  19.428  0.00  0.00    +0.000 C 
ATOM      3  C   UNL     1       2.588   9.159  18.489  0.00  0.00    +0.000 C 
ATOM      4  C   UNL     1       2.635   7.736  17.911  0.00  0.00    +0.000 C 
ATOM      5  C   UNL     1       2.556   6.608  18.975  0.00  0.00    +0.000 C 
ATOM      6  C   UNL     1       1.446   6.855  20.031  0.00  0.00    +0.000 C 
ATOM      7  C   UNL     1       1.570   5.842  21.180  0.00  0.00    +0.000 C 
ATOM      8  C   UNL     1       1.810   4.443  20.707  0.00  0.00    +0.000 C 
ATOM      9  C   UNL     1       2.179   4.112  19.457  0.00  0.00    +0.000 C 
ATOM     10  C   UNL     1       2.352   2.658  19.071  0.00  0.00    +0.000 C 
ATOM     11  C   UNL     1       3.695   2.395  18.386  0.00  0.00    +0.000 C 
ATOM     12  C   UNL     1       3.936   3.363  17.230  0.00  0.00    +0.000 C 
ATOM     13  C   UNL     1       3.816   4.815  17.690  0.00  0.00    +0.000 C 
ATOM     14  C   UNL     1       2.455   5.155  18.362  0.00  0.00    +0.000 C 
ATOM     15  C   UNL     1       1.317   5.066  17.317  0.00  0.00    +0.000 C 
ATOM     16  C   UNL     1       1.551   8.294  20.547  0.00  0.00    +0.000 C 
ATOM     17  C   UNL     1       0.580   8.730  21.627  0.00  0.00    +0.000 C 
ATOM     18  C   UNL     1       0.630  10.260  21.564  0.00  0.00    +0.000 C 
ATOM     19  C   UNL     1       1.386  10.660  20.260  0.00  0.00    +0.000 C 
ENDROOT
BRANCH  19  20
ATOM     20  C   UNL     1       0.748  11.908  19.619  0.00  0.00    +0.000 C 
ATOM     21  O   UNL     1      -0.184  11.814  18.820  0.00  0.00    +0.000 OA
ATOM     22  N   UNL     1       1.277  13.127  20.013  0.00  0.00    +0.000 N 
ATOM     23  C   UNL     1       0.805  14.283  19.407  0.00  0.00    +0.000 A 
ATOM     24  N   UNL     1       1.626  15.092  18.728  0.00  0.00    +0.000 NA
ATOM     25  N   UNL     1       0.804  16.037  18.222  0.00  0.00    +0.000 N 
ATOM     26  C   UNL     1      -0.471  15.956  18.693  0.00  0.00    +0.000 A 
ATOM     27  C   UNL     1      -0.500  14.822  19.471  0.00  0.00    +0.000 A 
ATOM     28  H   UNL     1       2.260  13.165  20.232  0.00  0.00    +0.000 HD
ATOM     29  H   UNL     1       1.190  16.731  17.585  0.00  0.00    +0.000 HD
BRANCH  27  30
ATOM     30  C   UNL     1      -1.612  14.392  20.259  0.00  0.00    +0.000 C 
ATOM     31  N   UNL     1      -2.481  13.960  20.881  0.00  0.00    +0.000 NA
ENDBRANCH  27  30
ENDBRANCH  19  20
BRANCH  11  32
ATOM     32  O   UNL     1       3.738   1.056  17.894  0.00  0.00    +0.000 OA
ATOM     33  H   UNL     1       3.049   0.966  17.212  0.00  0.00    +0.000 HD
ENDBRANCH  11  32
TORSDOF 3
ENDMDL
MODEL 8
REMARK VINA RESULT:      -6.9      2.021      4.032
REMARK  Name = 
REMARK  5 active torsions:
REMARK  status: ('A' for Active; 'I' for Inactive)
REMARK    1  A    between atoms: C_1  and  C_2
REMARK    2  A    between atoms: C_11  and  O_12
REMARK    3  A    between atoms: C_15  and  C_16
REMARK    4  A    between atoms: C_20  and  C_21
REMARK    5  A    between atoms: C_28  and  C_29
REMARK                            x       y       z     vdW  Elec       q    Type
REMARK                         _______ _______ _______ _____ _____    ______ ____
ROOT
ATOM      1  C   UNL     1       3.488   8.603  18.854  0.00  0.00    +0.000 C 
ATOM      2  C   UNL     1       2.179   7.802  18.644  0.00  0.00    +0.000 C 
ATOM      3  C   UNL     1       1.211   8.563  17.722  0.00  0.00    +0.000 C 
ATOM      4  C   UNL     1       0.737   9.879  18.361  0.00  0.00    +0.000 C 
ATOM      5  C   UNL     1       0.156   9.724  19.793  0.00  0.00    +0.000 C 
ATOM      6  C   UNL     1       1.037   8.828  20.704  0.00  0.00    +0.000 C 
ATOM      7  C   UNL     1       0.302   8.520  22.018  0.00  0.00    +0.000 C 
ATOM      8  C   UNL     1      -0.358   9.721  22.618  0.00  0.00    +0.000 C 
ATOM      9  C   UNL     1      -0.565  10.882  21.971  0.00  0.00    +0.000 C 
ATOM     10  C   UNL     1      -1.204  12.052  22.688  0.00  0.00    +0.000 C 
ATOM     11  C   UNL     1      -2.375  12.646  21.902  0.00  0.00    +0.000 C 
ATOM     12  C   UNL     1      -1.984  12.957  20.459  0.00  0.00    +0.000 C 
ATOM     13  C   UNL     1      -1.410  11.724  19.764  0.00  0.00    +0.000 C 
ATOM     14  C   UNL     1      -0.190  11.096  20.496  0.00  0.00    +0.000 C 
ATOM     15  C   UNL     1       1.012  12.070  20.444  0.00  0.00    +0.000 C 
ATOM     16  C   UNL     1       1.394   7.541  19.953  0.00  0.00    +0.000 C 
ATOM     17  C   UNL     1       2.218   6.499  20.687  0.00  0.00    +0.000 C 
ATOM     18  C   UNL     1       2.776   5.620  19.563  0.00  0.00    +0.000 C 
ATOM     19  C   UNL     1       2.514   6.351  18.210  0.00  0.00    +0.000 C 
ENDROOT
BRANCH  19  20
ATOM     20  C   UNL     1       3.699   6.155  17.245  0.00  0.00    +0.000 C 
ATOM     21  O   UNL     1       4.020   7.028  16.438  0.00  0.00    +0.000 OA
ATOM     22  N   UNL     1       4.380   4.953  17.360  0.00  0.00    +0.000 N 
ATOM     23  C   UNL     1       5.402   4.681  16.460  0.00  0.00    +0.000 A 
ATOM     24  N   UNL     1       5.347   3.614  15.655  0.00  0.00    +0.000 NA
ATOM     25  N   UNL     1       6.449   3.734  14.883  0.00  0.00    +0.000 N 
ATOM     26  C   UNL     1       7.284   4.733  15.281  0.00  0.00    +0.000 A 
ATOM     27  C   UNL     1       6.628   5.367  16.311  0.00  0.00    +0.000 A 
ATOM     28  H   UNL     1       3.851   4.136  17.622  0.00  0.00    +0.000 HD
ATOM     29  H   UNL     1       6.587   3.074  14.121  0.00  0.00    +0.000 HD
BRANCH  27  30
ATOM     30  C   UNL     1       7.172   6.419  17.111  0.00  0.00    +0.000 C 
ATOM     31  N   UNL     1       7.635   7.309  17.680  0.00  0.00    +0.000 NA
ENDBRANCH  27  30
ENDBRANCH  19  20
BRANCH  11  32
ATOM     32  O   UNL     1      -2.831  13.841  22.533  0.00  0.00    +0.000 OA
ATOM     33  H   UNL     1      -3.779  13.737  22.721  0.00  0.00    +0.000 HD
ENDBRANCH  11  32
TORSDOF 3
ENDMDL
MODEL 9
REMARK VINA RESULT:      -6.8      5.988      9.086
REMARK  Name = 
REMARK  5 active torsions:
REMARK  status: ('A' for Active; 'I' for Inactive)
REMARK    1  A    between atoms: C_1  and  C_2
REMARK    2  A    between atoms: C_11  and  O_12
REMARK    3  A    between atoms: C_15  and  C_16
REMARK    4  A    between atoms: C_20  and  C_21
REMARK    5  A    between atoms: C_28  and  C_29
REMARK                            x       y       z     vdW  Elec       q    Type
REMARK                         _______ _______ _______ _____ _____    ______ ____
ROOT
ATOM      1  C   UNL     1      -1.540  12.408  21.633  0.00  0.00    +0.000 C 
ATOM      2  C   UNL     1      -1.886  13.917  21.575  0.00  0.00    +0.000 C 
ATOM      3  C   UNL     1      -1.902  14.420  20.122  0.00  0.00    +0.000 C 
ATOM      4  C   UNL     1      -0.508  14.340  19.479  0.00  0.00    +0.000 C 
ATOM      5  C   UNL     1       0.619  15.018  20.304  0.00  0.00    +0.000 C 
ATOM      6  C   UNL     1       0.565  14.648  21.811  0.00  0.00    +0.000 C 
ATOM      7  C   UNL     1       1.545  15.523  22.608  0.00  0.00    +0.000 C 
ATOM      8  C   UNL     1       2.883  15.657  21.951  0.00  0.00    +0.000 C 
ATOM      9  C   UNL     1       3.144  15.320  20.676  0.00  0.00    +0.000 C 
ATOM     10  C   UNL     1       4.547  15.454  20.123  0.00  0.00    +0.000 C 
ATOM     11  C   UNL     1       4.579  16.221  18.799  0.00  0.00    +0.000 C 
ATOM     12  C   UNL     1       3.581  15.649  17.794  0.00  0.00    +0.000 C 
ATOM     13  C   UNL     1       2.171  15.601  18.380  0.00  0.00    +0.000 C 
ATOM     14  C   UNL     1       2.067  14.801  19.710  0.00  0.00    +0.000 C 
ATOM     15  C   UNL     1       2.344  13.302  19.444  0.00  0.00    +0.000 C 
ATOM     16  C   UNL     1      -0.870  14.816  22.321  0.00  0.00    +0.000 C 
ATOM     17  C   UNL     1      -1.134  14.549  23.790  0.00  0.00    +0.000 C 
ATOM     18  C   UNL     1      -2.651  14.341  23.855  0.00  0.00    +0.000 C 
ATOM     19  C   UNL     1      -3.175  14.192  22.393  0.00  0.00    +0.000 C 
ENDROOT
BRANCH  19  20
ATOM     20  C   UNL     1      -4.299  13.140  22.321  0.00  0.00    +0.000 C 
ATOM     21  O   UNL     1      -4.399  12.248  23.164  0.00  0.00    +0.000 OA
ATOM     22  N   UNL     1      -5.187  13.276  21.265  0.00  0.00    +0.000 N 
ATOM     23  C   UNL     1      -6.169  12.310  21.094  0.00  0.00    +0.000 A 
ATOM     24  N   UNL     1      -6.241  11.589  19.970  0.00  0.00    +0.000 NA
ATOM     25  N   UNL     1      -7.242  10.715  20.209  0.00  0.00    +0.000 N 
ATOM     26  C   UNL     1      -7.917  10.965  21.365  0.00  0.00    +0.000 A 
ATOM     27  C   UNL     1      -7.240  12.003  21.963  0.00  0.00    +0.000 A 
ATOM     28  H   UNL     1      -4.832  13.641  20.395  0.00  0.00    +0.000 HD
ATOM     29  H   UNL     1      -7.434   9.991  19.519  0.00  0.00    +0.000 HD
BRANCH  27  30
ATOM     30  C   UNL     1      -7.651  12.675  23.156  0.00  0.00    +0.000 C 
ATOM     31  N   UNL     1      -7.903  13.193  24.154  0.00  0.00    +0.000 NA
ENDBRANCH  27  30
ENDBRANCH  19  20
BRANCH  11  32
ATOM     32  O   UNL     1       5.890  16.173  18.238  0.00  0.00    +0.000 OA
ATOM     33  H   UNL     1       6.238  17.081  18.216  0.00  0.00    +0.000 HD
ENDBRANCH  11  32
TORSDOF 3
ENDMDL
