MODEL 1
REMARK VINA RESULT:      -7.2      0.000      0.000
REMARK  Name = 
REMARK  5 active torsions:
REMARK  status: ('A' for Active; 'I' for Inactive)
REMARK    1  A    between atoms: C_1  and  O_2
REMARK    2  A    between atoms: O_2  and  C_3
REMARK    3  A    between atoms: C_3  and  C_5
REMARK    4  A    between atoms: C_6  and  C_7
REMARK    5  A    between atoms: N_18  and  C_19
REMARK                            x       y       z     vdW  Elec       q    Type
REMARK                         _______ _______ _______ _____ _____    ______ ____
ROOT
ATOM      1  C   UNL     1       4.071   4.723  19.397  0.00  0.00    +0.000 C 
ATOM      2  C   UNL     1       2.622   5.118  18.961  0.00  0.00    +0.000 C 
ATOM      3  C   UNL     1       2.157   4.444  17.644  0.00  0.00    +0.000 C 
ATOM      4  C   UNL     1       2.677   3.005  17.474  0.00  0.00    +0.000 C 
ATOM      5  C   UNL     1       2.282   2.105  18.649  0.00  0.00    +0.000 C 
ATOM      6  C   UNL     1       3.425   2.269  19.660  0.00  0.00    +0.000 C 
ATOM      7  C   UNL     1       4.400   3.258  18.996  0.00  0.00    +0.000 C 
ATOM      8  N   UNL     1       4.133   2.936  17.587  0.00  0.00    +0.000 NA
ATOM      9  C   UNL     1       4.874   3.680  16.583  0.00  0.00    +0.000 C 
ENDROOT
BRANCH   2  10
ATOM     10  C   UNL     1       2.285   6.600  19.044  0.00  0.00    +0.000 A 
ATOM     11  C   UNL     1       1.958   7.219  20.261  0.00  0.00    +0.000 A 
ATOM     12  C   UNL     1       1.546   8.552  20.308  0.00  0.00    +0.000 A 
ATOM     13  C   UNL     1       1.483   9.302  19.140  0.00  0.00    +0.000 A 
ATOM     14  C   UNL     1       1.856   8.724  17.929  0.00  0.00    +0.000 A 
ATOM     15  C   UNL     1       2.253   7.384  17.880  0.00  0.00    +0.000 A 
ENDBRANCH   2  10
BRANCH   1  16
ATOM     16  C   UNL     1       5.230   5.617  18.964  0.00  0.00    +0.000 C 
ATOM     17  O   UNL     1       5.232   6.420  18.038  0.00  0.00    +0.000 OA
BRANCH  16  19
ATOM     18  C   UNL     1       7.579   5.699  19.108  0.00  0.00    +0.000 C 
ATOM     19  O   UNL     1       6.333   5.361  19.732  0.00  0.00    +0.000 OA
ENDBRANCH  16  19
ENDBRANCH   1  16
TORSDOF 3
ENDMDL
MODEL 2
REMARK VINA RESULT:      -7.0      1.700      4.236
REMARK  Name = 
REMARK  5 active torsions:
REMARK  status: ('A' for Active; 'I' for Inactive)
REMARK    1  A    between atoms: C_1  and  O_2
REMARK    2  A    between atoms: O_2  and  C_3
REMARK    3  A    between atoms: C_3  and  C_5
REMARK    4  A    between atoms: C_6  and  C_7
REMARK    5  A    between atoms: N_18  and  C_19
REMARK                            x       y       z     vdW  Elec       q    Type
REMARK                         _______ _______ _______ _____ _____    ______ ____
ROOT
ATOM      1  C   UNL     1       3.177   4.977  18.008  0.00  0.00    +0.000 C 
ATOM      2  C   UNL     1       4.620   4.427  18.253  0.00  0.00    +0.000 C 
ATOM      3  C   UNL     1       4.720   3.429  19.437  0.00  0.00    +0.000 C 
ATOM      4  C   UNL     1       3.485   2.520  19.578  0.00  0.00    +0.000 C 
ATOM      5  C   UNL     1       3.198   1.732  18.297  0.00  0.00    +0.000 C 
ATOM      6  C   UNL     1       2.278   2.649  17.479  0.00  0.00    +0.000 C 
ATOM      7  C   UNL     1       2.102   3.907  18.348  0.00  0.00    +0.000 C 
ATOM      8  N   UNL     1       2.249   3.294  19.676  0.00  0.00    +0.000 NA
ATOM      9  C   UNL     1       2.151   4.173  20.828  0.00  0.00    +0.000 C 
ENDROOT
BRANCH   2  10
ATOM     10  C   UNL     1       5.738   5.461  18.228  0.00  0.00    +0.000 A 
ATOM     11  C   UNL     1       5.769   6.496  17.280  0.00  0.00    +0.000 A 
ATOM     12  C   UNL     1       6.853   7.371  17.197  0.00  0.00    +0.000 A 
ATOM     13  C   UNL     1       7.915   7.247  18.086  0.00  0.00    +0.000 A 
ATOM     14  C   UNL     1       7.879   6.263  19.070  0.00  0.00    +0.000 A 
ATOM     15  C   UNL     1       6.801   5.376  19.141  0.00  0.00    +0.000 A 
ENDBRANCH   2  10
BRANCH   1  16
ATOM     16  C   UNL     1       2.779   6.294  18.670  0.00  0.00    +0.000 C 
ATOM     17  O   UNL     1       2.996   6.629  19.829  0.00  0.00    +0.000 OA
BRANCH  16  19
ATOM     18  C   UNL     1       2.353   8.467  17.870  0.00  0.00    +0.000 C 
ATOM     19  O   UNL     1       2.068   7.064  17.790  0.00  0.00    +0.000 OA
ENDBRANCH  16  19
ENDBRANCH   1  16
TORSDOF 3
ENDMDL
MODEL 3
REMARK VINA RESULT:      -6.9      1.893      3.566
REMARK  Name = 
REMARK  5 active torsions:
REMARK  status: ('A' for Active; 'I' for Inactive)
REMARK    1  A    between atoms: C_1  and  O_2
REMARK    2  A    between atoms: O_2  and  C_3
REMARK    3  A    between atoms: C_3  and  C_5
REMARK    4  A    between atoms: C_6  and  C_7
REMARK    5  A    between atoms: N_18  and  C_19
REMARK                            x       y       z     vdW  Elec       q    Type
REMARK                         _______ _______ _______ _____ _____    ______ ____
ROOT
ATOM      1  C   UNL     1       2.823   4.750  17.704  0.00  0.00    +0.000 C 
ATOM      2  C   UNL     1       3.529   6.062  18.178  0.00  0.00    +0.000 C 
ATOM      3  C   UNL     1       4.748   5.820  19.106  0.00  0.00    +0.000 C 
ATOM      4  C   UNL     1       5.561   4.566  18.735  0.00  0.00    +0.000 C 
ATOM      5  C   UNL     1       6.050   4.601  17.284  0.00  0.00    +0.000 C 
ATOM      6  C   UNL     1       4.915   3.955  16.480  0.00  0.00    +0.000 C 
ATOM      7  C   UNL     1       3.846   3.593  17.526  0.00  0.00    +0.000 C 
ATOM      8  N   UNL     1       4.722   3.370  18.685  0.00  0.00    +0.000 NA
ATOM      9  C   UNL     1       4.087   2.998  19.937  0.00  0.00    +0.000 C 
ENDROOT
BRANCH   2  10
ATOM     10  C   UNL     1       2.607   7.176  18.656  0.00  0.00    +0.000 A 
ATOM     11  C   UNL     1       2.103   8.149  17.777  0.00  0.00    +0.000 A 
ATOM     12  C   UNL     1       1.349   9.226  18.245  0.00  0.00    +0.000 A 
ATOM     13  C   UNL     1       1.057   9.334  19.599  0.00  0.00    +0.000 A 
ATOM     14  C   UNL     1       1.499   8.351  20.481  0.00  0.00    +0.000 A 
ATOM     15  C   UNL     1       2.269   7.281  20.014  0.00  0.00    +0.000 A 
ENDBRANCH   2  10
BRANCH   1  16
ATOM     16  C   UNL     1       1.637   4.229  18.513  0.00  0.00    +0.000 C 
ATOM     17  O   UNL     1       1.259   4.633  19.607  0.00  0.00    +0.000 OA
BRANCH  16  19
ATOM     18  C   UNL     1       0.661   2.097  18.727  0.00  0.00    +0.000 C 
ATOM     19  O   UNL     1       1.055   3.173  17.866  0.00  0.00    +0.000 OA
ENDBRANCH  16  19
ENDBRANCH   1  16
TORSDOF 3
ENDMDL
MODEL 4
REMARK VINA RESULT:      -6.9      1.825      4.560
REMARK  Name = 
REMARK  5 active torsions:
REMARK  status: ('A' for Active; 'I' for Inactive)
REMARK    1  A    between atoms: C_1  and  O_2
REMARK    2  A    between atoms: O_2  and  C_3
REMARK    3  A    between atoms: C_3  and  C_5
REMARK    4  A    between atoms: C_6  and  C_7
REMARK    5  A    between atoms: N_18  and  C_19
REMARK                            x       y       z     vdW  Elec       q    Type
REMARK                         _______ _______ _______ _____ _____    ______ ____
ROOT
ATOM      1  C   UNL     1       2.630   4.668  17.806  0.00  0.00    +0.000 C 
ATOM      2  C   UNL     1       3.787   3.616  17.842  0.00  0.00    +0.000 C 
ATOM      3  C   UNL     1       4.031   2.998  19.243  0.00  0.00    +0.000 C 
ATOM      4  C   UNL     1       2.739   2.790  20.055  0.00  0.00    +0.000 C 
ATOM      5  C   UNL     1       1.719   1.925  19.309  0.00  0.00    +0.000 C 
ATOM      6  C   UNL     1       0.897   2.924  18.485  0.00  0.00    +0.000 C 
ATOM      7  C   UNL     1       1.504   4.300  18.812  0.00  0.00    +0.000 C 
ATOM      8  N   UNL     1       1.971   4.028  20.179  0.00  0.00    +0.000 NA
ATOM      9  C   UNL     1       2.638   5.110  20.881  0.00  0.00    +0.000 C 
ENDROOT
BRANCH   2  10
ATOM     10  C   UNL     1       5.066   4.011  17.115  0.00  0.00    +0.000 A 
ATOM     11  C   UNL     1       6.259   4.275  17.805  0.00  0.00    +0.000 A 
ATOM     12  C   UNL     1       7.394   4.741  17.139  0.00  0.00    +0.000 A 
ATOM     13  C   UNL     1       7.365   4.921  15.761  0.00  0.00    +0.000 A 
ATOM     14  C   UNL     1       6.209   4.612  15.049  0.00  0.00    +0.000 A 
ATOM     15  C   UNL     1       5.068   4.162  15.720  0.00  0.00    +0.000 A 
ENDBRANCH   2  10
BRANCH   1  16
ATOM     16  C   UNL     1       2.982   6.142  17.989  0.00  0.00    +0.000 C 
ATOM     17  O   UNL     1       4.093   6.611  18.209  0.00  0.00    +0.000 OA
BRANCH  16  19
ATOM     18  C   UNL     1       2.083   8.319  17.985  0.00  0.00    +0.000 C 
ATOM     19  O   UNL     1       1.848   6.906  17.933  0.00  0.00    +0.000 OA
ENDBRANCH  16  19
ENDBRANCH   1  16
TORSDOF 3
ENDMDL
MODEL 5
REMARK VINA RESULT:      -6.9      0.100      1.108
REMARK  Name = 
REMARK  5 active torsions:
REMARK  status: ('A' for Active; 'I' for Inactive)
REMARK    1  A    between atoms: C_1  and  O_2
REMARK    2  A    between atoms: O_2  and  C_3
REMARK    3  A    between atoms: C_3  and  C_5
REMARK    4  A    between atoms: C_6  and  C_7
REMARK    5  A    between atoms: N_18  and  C_19
REMARK                            x       y       z     vdW  Elec       q    Type
REMARK                         _______ _______ _______ _____ _____    ______ ____
ROOT
ATOM      1  C   UNL     1       4.034   4.739  19.366  0.00  0.00    +0.000 C 
ATOM      2  C   UNL     1       2.566   5.071  18.943  0.00  0.00    +0.000 C 
ATOM      3  C   UNL     1       2.112   4.363  17.640  0.00  0.00    +0.000 C 
ATOM      4  C   UNL     1       2.686   2.943  17.481  0.00  0.00    +0.000 C 
ATOM      5  C   UNL     1       2.341   2.044  18.672  0.00  0.00    +0.000 C 
ATOM      6  C   UNL     1       3.489   2.265  19.666  0.00  0.00    +0.000 C 
ATOM      7  C   UNL     1       4.415   3.283  18.978  0.00  0.00    +0.000 C 
ATOM      8  N   UNL     1       4.144   2.933  17.577  0.00  0.00    +0.000 NA
ATOM      9  C   UNL     1       4.843   3.693  16.555  0.00  0.00    +0.000 C 
ENDROOT
BRANCH   2  10
ATOM     10  C   UNL     1       2.171   6.540  19.011  0.00  0.00    +0.000 A 
ATOM     11  C   UNL     1       2.132   7.351  17.867  0.00  0.00    +0.000 A 
ATOM     12  C   UNL     1       1.875   8.720  17.957  0.00  0.00    +0.000 A 
ATOM     13  C   UNL     1       1.619   9.299  19.194  0.00  0.00    +0.000 A 
ATOM     14  C   UNL     1       1.597   8.503  20.337  0.00  0.00    +0.000 A 
ATOM     15  C   UNL     1       1.872   7.135  20.247  0.00  0.00    +0.000 A 
ENDBRANCH   2  10
BRANCH   1  16
ATOM     16  C   UNL     1       5.151   5.673  18.907  0.00  0.00    +0.000 C 
ATOM     17  O   UNL     1       5.118   6.448  17.958  0.00  0.00    +0.000 OA
BRANCH  16  19
ATOM     18  C   UNL     1       7.502   5.751  19.009  0.00  0.00    +0.000 C 
ATOM     19  O   UNL     1       6.264   5.490  19.682  0.00  0.00    +0.000 OA
ENDBRANCH  16  19
ENDBRANCH   1  16
TORSDOF 3
ENDMDL
MODEL 6
REMARK VINA RESULT:      -6.9      1.840      4.662
REMARK  Name = 
REMARK  5 active torsions:
REMARK  status: ('A' for Active; 'I' for Inactive)
REMARK    1  A    between atoms: C_1  and  O_2
REMARK    2  A    between atoms: O_2  and  C_3
REMARK    3  A    between atoms: C_3  and  C_5
REMARK    4  A    between atoms: C_6  and  C_7
REMARK    5  A    between atoms: N_18  and  C_19
REMARK                            x       y       z     vdW  Elec       q    Type
REMARK                         _______ _______ _______ _____ _____    ______ ____
ROOT
ATOM      1  C   UNL     1       2.542   4.685  17.909  0.00  0.00    +0.000 C 
ATOM      2  C   UNL     1       3.717   3.655  17.864  0.00  0.00    +0.000 C 
ATOM      3  C   UNL     1       3.988   2.950  19.219  0.00  0.00    +0.000 C 
ATOM      4  C   UNL     1       2.710   2.667  20.029  0.00  0.00    +0.000 C 
ATOM      5  C   UNL     1       1.697   1.834  19.239  0.00  0.00    +0.000 C 
ATOM      6  C   UNL     1       0.847   2.869  18.491  0.00  0.00    +0.000 C 
ATOM      7  C   UNL     1       1.434   4.232  18.901  0.00  0.00    +0.000 C 
ATOM      8  N   UNL     1       1.921   3.880  20.242  0.00  0.00    +0.000 NA
ATOM      9  C   UNL     1       2.577   4.927  21.006  0.00  0.00    +0.000 C 
ENDROOT
BRANCH   2  10
ATOM     10  C   UNL     1       4.980   4.119  17.151  0.00  0.00    +0.000 A 
ATOM     11  C   UNL     1       5.021   4.301  15.760  0.00  0.00    +0.000 A 
ATOM     12  C   UNL     1       6.212   4.621  15.106  0.00  0.00    +0.000 A 
ATOM     13  C   UNL     1       7.381   4.797  15.838  0.00  0.00    +0.000 A 
ATOM     14  C   UNL     1       7.351   4.676  17.225  0.00  0.00    +0.000 A 
ATOM     15  C   UNL     1       6.161   4.339  17.877  0.00  0.00    +0.000 A 
ENDBRANCH   2  10
BRANCH   1  16
ATOM     16  C   UNL     1       2.870   6.150  18.184  0.00  0.00    +0.000 C 
ATOM     17  O   UNL     1       3.900   6.592  18.680  0.00  0.00    +0.000 OA
BRANCH  16  19
ATOM     18  C   UNL     1       2.073   8.348  17.901  0.00  0.00    +0.000 C 
ATOM     19  O   UNL     1       1.804   6.941  17.849  0.00  0.00    +0.000 OA
ENDBRANCH  16  19
ENDBRANCH   1  16
TORSDOF 3
ENDMDL
MODEL 7
REMARK VINA RESULT:      -6.8      1.673      4.135
REMARK  Name = 
REMARK  5 active torsions:
REMARK  status: ('A' for Active; 'I' for Inactive)
REMARK    1  A    between atoms: C_1  and  O_2
REMARK    2  A    between atoms: O_2  and  C_3
REMARK    3  A    between atoms: C_3  and  C_5
REMARK    4  A    between atoms: C_6  and  C_7
REMARK    5  A    between atoms: N_18  and  C_19
REMARK                            x       y       z     vdW  Elec       q    Type
REMARK                         _______ _______ _______ _____ _____    ______ ____
ROOT
ATOM      1  C   UNL     1       3.209   4.991  17.959  0.00  0.00    +0.000 C 
ATOM      2  C   UNL     1       4.625   4.371  18.193  0.00  0.00    +0.000 C 
ATOM      3  C   UNL     1       4.695   3.401  19.402  0.00  0.00    +0.000 C 
ATOM      4  C   UNL     1       3.417   2.564  19.590  0.00  0.00    +0.000 C 
ATOM      5  C   UNL     1       3.062   1.759  18.337  0.00  0.00    +0.000 C 
ATOM      6  C   UNL     1       2.177   2.702  17.512  0.00  0.00    +0.000 C 
ATOM      7  C   UNL     1       2.086   3.990  18.348  0.00  0.00    +0.000 C 
ATOM      8  N   UNL     1       2.226   3.406  19.690  0.00  0.00    +0.000 NA
ATOM      9  C   UNL     1       2.198   4.319  20.819  0.00  0.00    +0.000 C 
ENDROOT
BRANCH   2  10
ATOM     10  C   UNL     1       5.796   5.343  18.118  0.00  0.00    +0.000 A 
ATOM     11  C   UNL     1       6.854   5.300  19.040  0.00  0.00    +0.000 A 
ATOM     12  C   UNL     1       7.864   6.263  19.028  0.00  0.00    +0.000 A 
ATOM     13  C   UNL     1       7.853   7.270  18.069  0.00  0.00    +0.000 A 
ATOM     14  C   UNL     1       6.843   7.298  17.111  0.00  0.00    +0.000 A 
ATOM     15  C   UNL     1       5.822   6.343  17.135  0.00  0.00    +0.000 A 
ENDBRANCH   2  10
BRANCH   1  16
ATOM     16  C   UNL     1       2.894   6.345  18.592  0.00  0.00    +0.000 C 
ATOM     17  O   UNL     1       3.218   6.726  19.711  0.00  0.00    +0.000 OA
BRANCH  16  19
ATOM     18  C   UNL     1       2.271   8.508  17.904  0.00  0.00    +0.000 C 
ATOM     19  O   UNL     1       2.124   7.092  17.743  0.00  0.00    +0.000 OA
ENDBRANCH  16  19
ENDBRANCH   1  16
TORSDOF 3
ENDMDL
MODEL 8
REMARK VINA RESULT:      -6.8      1.868      3.392
REMARK  Name = 
REMARK  5 active torsions:
REMARK  status: ('A' for Active; 'I' for Inactive)
REMARK    1  A    between atoms: C_1  and  O_2
REMARK    2  A    between atoms: O_2  and  C_3
REMARK    3  A    between atoms: C_3  and  C_5
REMARK    4  A    between atoms: C_6  and  C_7
REMARK    5  A    between atoms: N_18  and  C_19
REMARK                            x       y       z     vdW  Elec       q    Type
REMARK                         _______ _______ _______ _____ _____    ______ ____
ROOT
ATOM      1  C   UNL     1       2.849   4.791  17.679  0.00  0.00    +0.000 C 
ATOM      2  C   UNL     1       3.607   6.079  18.139  0.00  0.00    +0.000 C 
ATOM      3  C   UNL     1       4.847   5.795  19.026  0.00  0.00    +0.000 C 
ATOM      4  C   UNL     1       5.612   4.522  18.621  0.00  0.00    +0.000 C 
ATOM      5  C   UNL     1       6.056   4.554  17.156  0.00  0.00    +0.000 C 
ATOM      6  C   UNL     1       4.877   3.946  16.384  0.00  0.00    +0.000 C 
ATOM      7  C   UNL     1       3.832   3.607  17.461  0.00  0.00    +0.000 C 
ATOM      8  N   UNL     1       4.738   3.350  18.590  0.00  0.00    +0.000 NA
ATOM      9  C   UNL     1       4.131   2.988  19.859  0.00  0.00    +0.000 C 
ENDROOT
BRANCH   2  10
ATOM     10  C   UNL     1       2.734   7.216  18.652  0.00  0.00    +0.000 A 
ATOM     11  C   UNL     1       2.357   7.310  20.001  0.00  0.00    +0.000 A 
ATOM     12  C   UNL     1       1.469   8.294  20.439  0.00  0.00    +0.000 A 
ATOM     13  C   UNL     1       0.964   9.224  19.538  0.00  0.00    +0.000 A 
ATOM     14  C   UNL     1       1.368   9.184  18.206  0.00  0.00    +0.000 A 
ATOM     15  C   UNL     1       2.244   8.188  17.765  0.00  0.00    +0.000 A 
ENDBRANCH   2  10
BRANCH   1  16
ATOM     16  C   UNL     1       1.674   4.299  18.521  0.00  0.00    +0.000 C 
ATOM     17  O   UNL     1       1.355   4.692  19.637  0.00  0.00    +0.000 OA
BRANCH  16  19
ATOM     18  C   UNL     1       0.661   2.183  18.720  0.00  0.00    +0.000 C 
ATOM     19  O   UNL     1       1.028   3.281  17.874  0.00  0.00    +0.000 OA
ENDBRANCH  16  19
ENDBRANCH   1  16
TORSDOF 3
ENDMDL
MODEL 9
REMARK VINA RESULT:      -6.7      1.953      4.460
REMARK  Name = 
REMARK  5 active torsions:
REMARK  status: ('A' for Active; 'I' for Inactive)
REMARK    1  A    between atoms: C_1  and  O_2
REMARK    2  A    between atoms: O_2  and  C_3
REMARK    3  A    between atoms: C_3  and  C_5
REMARK    4  A    between atoms: C_6  and  C_7
REMARK    5  A    between atoms: N_18  and  C_19
REMARK                            x       y       z     vdW  Elec       q    Type
REMARK                         _______ _______ _______ _____ _____    ______ ____
ROOT
ATOM      1  C   UNL     1       4.673   5.892  18.491  0.00  0.00    +0.000 C 
ATOM      2  C   UNL     1       4.686   4.331  18.570  0.00  0.00    +0.000 C 
ATOM      3  C   UNL     1       5.315   3.644  17.330  0.00  0.00    +0.000 C 
ATOM      4  C   UNL     1       6.502   4.422  16.734  0.00  0.00    +0.000 C 
ATOM      5  C   UNL     1       7.605   4.674  17.765  0.00  0.00    +0.000 C 
ATOM      6  C   UNL     1       7.220   6.005  18.424  0.00  0.00    +0.000 C 
ATOM      7  C   UNL     1       5.916   6.427  17.726  0.00  0.00    +0.000 C 
ATOM      8  N   UNL     1       6.141   5.803  16.415  0.00  0.00    +0.000 NA
ATOM      9  C   UNL     1       5.100   5.962  15.415  0.00  0.00    +0.000 C 
ENDROOT
BRANCH   2  10
ATOM     10  C   UNL     1       3.393   3.679  19.042  0.00  0.00    +0.000 A 
ATOM     11  C   UNL     1       2.669   2.795  18.228  0.00  0.00    +0.000 A 
ATOM     12  C   UNL     1       1.431   2.289  18.629  0.00  0.00    +0.000 A 
ATOM     13  C   UNL     1       0.909   2.634  19.870  0.00  0.00    +0.000 A 
ATOM     14  C   UNL     1       1.637   3.466  20.717  0.00  0.00    +0.000 A 
ATOM     15  C   UNL     1       2.868   3.985  20.307  0.00  0.00    +0.000 A 
ENDBRANCH   2  10
BRANCH   1  16
ATOM     16  C   UNL     1       3.428   6.582  17.938  0.00  0.00    +0.000 C 
ATOM     17  O   UNL     1       2.383   6.043  17.590  0.00  0.00    +0.000 OA
BRANCH  16  19
ATOM     18  C   UNL     1       2.465   8.729  17.882  0.00  0.00    +0.000 C 
ATOM     19  O   UNL     1       3.650   7.927  17.818  0.00  0.00    +0.000 OA
ENDBRANCH  16  19
ENDBRANCH   1  16
TORSDOF 3
ENDMDL
