MODEL 1
REMARK VINA RESULT:      -8.5      0.000      0.000
REMARK  Name = 
REMARK  9 active torsions:
REMARK  status: ('A' for Active; 'I' for Inactive)
REMARK    1  A    between atoms: C_1  and  N_2
REMARK    2  A    between atoms: N_2  and  C_3
REMARK    3  A    between atoms: N_2  and  C_4
REMARK    4  A    between atoms: C_4  and  C_5
REMARK    5  A    between atoms: C_5  and  C_6
REMARK    6  A    between atoms: C_6  and  N_7
REMARK    7  A    between atoms: C_12  and  C_13
REMARK    8  A    between atoms: C_23  and  C_24
REMARK    9  A    between atoms: C_23  and  C_25
REMARK                            x       y       z     vdW  Elec       q    Type
REMARK                         _______ _______ _______ _____ _____    ______ ____
ROOT
ATOM      1  C   UNL     1       2.949   7.375  18.475  0.00  0.00    +0.000 A 
ATOM      2  C   UNL     1       2.245   8.490  18.068  0.00  0.00    +0.000 A 
ATOM      3  C   UNL     1       1.428   8.892  19.154  0.00  0.00    +0.000 A 
ATOM      4  C   UNL     1       0.515   9.930  19.411  0.00  0.00    +0.000 A 
ATOM      5  C   UNL     1      -0.098  10.001  20.668  0.00  0.00    +0.000 A 
ATOM      6  C   UNL     1       0.133   9.028  21.641  0.00  0.00    +0.000 A 
ATOM      7  C   UNL     1       1.042   7.987  21.408  0.00  0.00    +0.000 A 
ATOM      8  C   UNL     1       1.674   7.968  20.165  0.00  0.00    +0.000 A 
ATOM      9  O   UNL     1       2.604   7.055  19.760  0.00  0.00    +0.000 OA
ATOM     10  O   UNL     1      -0.951  11.028  20.989  0.00  0.00    +0.000 OA
ATOM     11  C   UNL     1      -0.720  12.262  20.263  0.00  0.00    +0.000 C 
ATOM     12  C   UNL     1       0.401  13.035  20.976  0.00  0.00    +0.000 C 
ATOM     13  C   UNL     1      -2.025  13.061  20.346  0.00  0.00    +0.000 C 
ATOM     14  C   UNL     1      -0.360  12.046  18.805  0.00  0.00    +0.000 C 
ATOM     15  C   UNL     1       0.230  10.921  18.388  0.00  0.00    +0.000 C 
ENDROOT
BRANCH   1  21
ATOM     16  N   UNL     1       5.578   3.440  18.714  0.00  0.00    +0.000 N 
ATOM     17  C   UNL     1       5.198   4.591  17.999  0.00  0.00    +0.000 A 
ATOM     18  C   UNL     1       5.827   4.868  16.790  0.00  0.00    +0.000 A 
ATOM     19  C   UNL     1       5.414   5.966  16.037  0.00  0.00    +0.000 A 
ATOM     20  C   UNL     1       4.426   6.802  16.540  0.00  0.00    +0.000 A 
ATOM     21  C   UNL     1       3.909   6.518  17.793  0.00  0.00    +0.000 A 
ATOM     22  N   UNL     1       4.271   5.424  18.507  0.00  0.00    +0.000 NA
ATOM     23  H   UNL     1       5.890   2.716  18.076  0.00  0.00    +0.000 HD
BRANCH  16  24
ATOM     24  C   UNL     1       4.543   2.928  19.627  0.00  0.00    +0.000 C 
BRANCH  24  25
ATOM     25  C   UNL     1       3.532   2.058  18.865  0.00  0.00    +0.000 C 
BRANCH  25  26
ATOM     26  C   UNL     1       2.090   2.200  19.368  0.00  0.00    +0.000 C 
BRANCH  26  28
ATOM     27  C   UNL     1       0.855   4.159  20.117  0.00  0.00    +0.000 C 
ATOM     28  N   UNL     1       1.900   3.186  20.442  0.00  0.00    +0.000 NA
ATOM     29  C   UNL     1       1.561   2.509  21.698  0.00  0.00    +0.000 C 
ENDBRANCH  26  28
ENDBRANCH  25  26
ENDBRANCH  24  25
ENDBRANCH  16  24
ENDBRANCH   1  21
TORSDOF 5
ENDMDL
MODEL 2
REMARK VINA RESULT:      -8.4      0.752      1.017
REMARK  Name = 
REMARK  9 active torsions:
REMARK  status: ('A' for Active; 'I' for Inactive)
REMARK    1  A    between atoms: C_1  and  N_2
REMARK    2  A    between atoms: N_2  and  C_3
REMARK    3  A    between atoms: N_2  and  C_4
REMARK    4  A    between atoms: C_4  and  C_5
REMARK    5  A    between atoms: C_5  and  C_6
REMARK    6  A    between atoms: C_6  and  N_7
REMARK    7  A    between atoms: C_12  and  C_13
REMARK    8  A    between atoms: C_23  and  C_24
REMARK    9  A    between atoms: C_23  and  C_25
REMARK                            x       y       z     vdW  Elec       q    Type
REMARK                         _______ _______ _______ _____ _____    ______ ____
ROOT
ATOM      1  C   UNL     1       2.943   7.290  18.271  0.00  0.00    +0.000 A 
ATOM      2  C   UNL     1       2.174   8.370  17.891  0.00  0.00    +0.000 A 
ATOM      3  C   UNL     1       1.441   8.788  19.029  0.00  0.00    +0.000 A 
ATOM      4  C   UNL     1       0.523   9.809  19.330  0.00  0.00    +0.000 A 
ATOM      5  C   UNL     1       0.017   9.907  20.632  0.00  0.00    +0.000 A 
ATOM      6  C   UNL     1       0.358   8.975  21.612  0.00  0.00    +0.000 A 
ATOM      7  C   UNL     1       1.274   7.951  21.337  0.00  0.00    +0.000 A 
ATOM      8  C   UNL     1       1.799   7.907  20.045  0.00  0.00    +0.000 A 
ATOM      9  O   UNL     1       2.718   7.006  19.591  0.00  0.00    +0.000 OA
ATOM     10  O   UNL     1      -0.836  10.921  20.992  0.00  0.00    +0.000 OA
ATOM     11  C   UNL     1      -0.705  12.135  20.209  0.00  0.00    +0.000 C 
ATOM     12  C   UNL     1       0.449  12.962  20.798  0.00  0.00    +0.000 C 
ATOM     13  C   UNL     1      -2.022  12.901  20.377  0.00  0.00    +0.000 C 
ATOM     14  C   UNL     1      -0.464  11.879  18.734  0.00  0.00    +0.000 C 
ATOM     15  C   UNL     1       0.121  10.755  18.304  0.00  0.00    +0.000 C 
ENDROOT
BRANCH   1  21
ATOM     16  N   UNL     1       4.262   2.845  17.290  0.00  0.00    +0.000 N 
ATOM     17  C   UNL     1       4.478   4.227  17.133  0.00  0.00    +0.000 A 
ATOM     18  C   UNL     1       5.584   4.653  16.404  0.00  0.00    +0.000 A 
ATOM     19  C   UNL     1       5.774   6.016  16.181  0.00  0.00    +0.000 A 
ATOM     20  C   UNL     1       4.892   6.927  16.747  0.00  0.00    +0.000 A 
ATOM     21  C   UNL     1       3.867   6.436  17.538  0.00  0.00    +0.000 A 
ATOM     22  N   UNL     1       3.648   5.110  17.717  0.00  0.00    +0.000 NA
ATOM     23  H   UNL     1       4.624   2.338  16.491  0.00  0.00    +0.000 HD
BRANCH  16  24
ATOM     24  C   UNL     1       2.860   2.481  17.554  0.00  0.00    +0.000 C 
BRANCH  24  25
ATOM     25  C   UNL     1       2.710   1.895  18.966  0.00  0.00    +0.000 C 
BRANCH  25  26
ATOM     26  C   UNL     1       1.302   2.047  19.553  0.00  0.00    +0.000 C 
BRANCH  26  28
ATOM     27  C   UNL     1       2.451   2.765  21.576  0.00  0.00    +0.000 C 
ATOM     28  N   UNL     1       1.223   2.849  20.783  0.00  0.00    +0.000 NA
ATOM     29  C   UNL     1       0.950   4.252  20.455  0.00  0.00    +0.000 C 
ENDBRANCH  26  28
ENDBRANCH  25  26
ENDBRANCH  24  25
ENDBRANCH  16  24
ENDBRANCH   1  21
TORSDOF 5
ENDMDL
MODEL 3
REMARK VINA RESULT:      -8.3      1.515      3.630
REMARK  Name = 
REMARK  9 active torsions:
REMARK  status: ('A' for Active; 'I' for Inactive)
REMARK    1  A    between atoms: C_1  and  N_2
REMARK    2  A    between atoms: N_2  and  C_3
REMARK    3  A    between atoms: N_2  and  C_4
REMARK    4  A    between atoms: C_4  and  C_5
REMARK    5  A    between atoms: C_5  and  C_6
REMARK    6  A    between atoms: C_6  and  N_7
REMARK    7  A    between atoms: C_12  and  C_13
REMARK    8  A    between atoms: C_23  and  C_24
REMARK    9  A    between atoms: C_23  and  C_25
REMARK                            x       y       z     vdW  Elec       q    Type
REMARK                         _______ _______ _______ _____ _____    ______ ____
ROOT
ATOM      1  C   UNL     1       2.211   6.479  20.058  0.00  0.00    +0.000 A 
ATOM      2  C   UNL     1       2.314   7.584  19.238  0.00  0.00    +0.000 A 
ATOM      3  C   UNL     1       1.494   8.599  19.792  0.00  0.00    +0.000 A 
ATOM      4  C   UNL     1       1.175   9.932  19.481  0.00  0.00    +0.000 A 
ATOM      5  C   UNL     1       0.304  10.637  20.321  0.00  0.00    +0.000 A 
ATOM      6  C   UNL     1      -0.299  10.020  21.418  0.00  0.00    +0.000 A 
ATOM      7  C   UNL     1       0.007   8.694  21.749  0.00  0.00    +0.000 A 
ATOM      8  C   UNL     1       0.915   8.031  20.923  0.00  0.00    +0.000 A 
ATOM      9  O   UNL     1       1.357   6.752  21.093  0.00  0.00    +0.000 OA
ATOM     10  O   UNL     1       0.007  11.958  20.095  0.00  0.00    +0.000 OA
ATOM     11  C   UNL     1       1.031  12.700  19.384  0.00  0.00    +0.000 C 
ATOM     12  C   UNL     1       2.083  13.161  20.403  0.00  0.00    +0.000 C 
ATOM     13  C   UNL     1       0.334  13.923  18.778  0.00  0.00    +0.000 C 
ATOM     14  C   UNL     1       1.692  11.904  18.274  0.00  0.00    +0.000 C 
ATOM     15  C   UNL     1       1.758  10.569  18.313  0.00  0.00    +0.000 C 
ENDROOT
BRANCH   1  21
ATOM     16  N   UNL     1       5.949   3.884  18.740  0.00  0.00    +0.000 N 
ATOM     17  C   UNL     1       4.652   3.936  19.281  0.00  0.00    +0.000 A 
ATOM     18  C   UNL     1       4.008   2.742  19.594  0.00  0.00    +0.000 A 
ATOM     19  C   UNL     1       2.750   2.778  20.194  0.00  0.00    +0.000 A 
ATOM     20  C   UNL     1       2.135   4.004  20.409  0.00  0.00    +0.000 A 
ATOM     21  C   UNL     1       2.794   5.147  19.988  0.00  0.00    +0.000 A 
ATOM     22  N   UNL     1       4.038   5.121  19.449  0.00  0.00    +0.000 NA
ATOM     23  H   UNL     1       6.441   3.065  19.079  0.00  0.00    +0.000 HD
BRANCH  16  24
ATOM     24  C   UNL     1       6.743   5.104  18.960  0.00  0.00    +0.000 C 
BRANCH  24  25
ATOM     25  C   UNL     1       7.269   5.656  17.626  0.00  0.00    +0.000 C 
BRANCH  25  26
ATOM     26  C   UNL     1       7.198   4.652  16.470  0.00  0.00    +0.000 C 
BRANCH  26  28
ATOM     27  C   UNL     1       5.307   5.949  15.653  0.00  0.00    +0.000 C 
ATOM     28  N   UNL     1       5.915   4.621  15.750  0.00  0.00    +0.000 NA
ATOM     29  C   UNL     1       6.103   4.071  14.404  0.00  0.00    +0.000 C 
ENDBRANCH  26  28
ENDBRANCH  25  26
ENDBRANCH  24  25
ENDBRANCH  16  24
ENDBRANCH   1  21
TORSDOF 5
ENDMDL
MODEL 4
REMARK VINA RESULT:      -8.3      1.555      3.955
REMARK  Name = 
REMARK  9 active torsions:
REMARK  status: ('A' for Active; 'I' for Inactive)
REMARK    1  A    between atoms: C_1  and  N_2
REMARK    2  A    between atoms: N_2  and  C_3
REMARK    3  A    between atoms: N_2  and  C_4
REMARK    4  A    between atoms: C_4  and  C_5
REMARK    5  A    between atoms: C_5  and  C_6
REMARK    6  A    between atoms: C_6  and  N_7
REMARK    7  A    between atoms: C_12  and  C_13
REMARK    8  A    between atoms: C_23  and  C_24
REMARK    9  A    between atoms: C_23  and  C_25
REMARK                            x       y       z     vdW  Elec       q    Type
REMARK                         _______ _______ _______ _____ _____    ______ ____
ROOT
ATOM      1  C   UNL     1       2.058   6.930  19.876  0.00  0.00    +0.000 A 
ATOM      2  C   UNL     1       1.467   7.708  20.852  0.00  0.00    +0.000 A 
ATOM      3  C   UNL     1       1.260   8.996  20.297  0.00  0.00    +0.000 A 
ATOM      4  C   UNL     1       0.699  10.210  20.728  0.00  0.00    +0.000 A 
ATOM      5  C   UNL     1       0.659  11.293  19.840  0.00  0.00    +0.000 A 
ATOM      6  C   UNL     1       1.222  11.206  18.567  0.00  0.00    +0.000 A 
ATOM      7  C   UNL     1       1.783  10.004  18.115  0.00  0.00    +0.000 A 
ATOM      8  C   UNL     1       1.765   8.927  19.003  0.00  0.00    +0.000 A 
ATOM      9  O   UNL     1       2.238   7.674  18.742  0.00  0.00    +0.000 OA
ATOM     10  O   UNL     1       0.069  12.482  20.192  0.00  0.00    +0.000 OA
ATOM     11  C   UNL     1      -0.974  12.373  21.194  0.00  0.00    +0.000 C 
ATOM     12  C   UNL     1      -2.282  11.989  20.485  0.00  0.00    +0.000 C 
ATOM     13  C   UNL     1      -1.119  13.765  21.818  0.00  0.00    +0.000 C 
ATOM     14  C   UNL     1      -0.657  11.369  22.287  0.00  0.00    +0.000 C 
ATOM     15  C   UNL     1       0.154  10.328  22.069  0.00  0.00    +0.000 C 
ENDROOT
BRANCH   1  21
ATOM     16  N   UNL     1       5.683   4.002  19.021  0.00  0.00    +0.000 N 
ATOM     17  C   UNL     1       4.337   4.173  19.394  0.00  0.00    +0.000 A 
ATOM     18  C   UNL     1       3.553   3.044  19.612  0.00  0.00    +0.000 A 
ATOM     19  C   UNL     1       2.238   3.196  20.048  0.00  0.00    +0.000 A 
ATOM     20  C   UNL     1       1.714   4.474  20.193  0.00  0.00    +0.000 A 
ATOM     21  C   UNL     1       2.522   5.551  19.869  0.00  0.00    +0.000 A 
ATOM     22  N   UNL     1       3.817   5.410  19.492  0.00  0.00    +0.000 NA
ATOM     23  H   UNL     1       6.051   3.143  19.412  0.00  0.00    +0.000 HD
BRANCH  16  24
ATOM     24  C   UNL     1       6.550   5.145  19.351  0.00  0.00    +0.000 C 
BRANCH  24  25
ATOM     25  C   UNL     1       7.556   5.406  18.219  0.00  0.00    +0.000 C 
BRANCH  25  26
ATOM     26  C   UNL     1       7.161   6.562  17.293  0.00  0.00    +0.000 C 
BRANCH  26  28
ATOM     27  C   UNL     1       6.918   4.764  15.671  0.00  0.00    +0.000 C 
ATOM     28  N   UNL     1       6.606   6.158  15.993  0.00  0.00    +0.000 NA
ATOM     29  C   UNL     1       5.151   6.346  15.983  0.00  0.00    +0.000 C 
ENDBRANCH  26  28
ENDBRANCH  25  26
ENDBRANCH  24  25
ENDBRANCH  16  24
ENDBRANCH   1  21
TORSDOF 5
ENDMDL
MODEL 5
REMARK VINA RESULT:      -7.9      3.118      4.927
REMARK  Name = 
REMARK  9 active torsions:
REMARK  status: ('A' for Active; 'I' for Inactive)
REMARK    1  A    between atoms: C_1  and  N_2
REMARK    2  A    between atoms: N_2  and  C_3
REMARK    3  A    between atoms: N_2  and  C_4
REMARK    4  A    between atoms: C_4  and  C_5
REMARK    5  A    between atoms: C_5  and  C_6
REMARK    6  A    between atoms: C_6  and  N_7
REMARK    7  A    between atoms: C_12  and  C_13
REMARK    8  A    between atoms: C_23  and  C_24
REMARK    9  A    between atoms: C_23  and  C_25
REMARK                            x       y       z     vdW  Elec       q    Type
REMARK                         _______ _______ _______ _____ _____    ______ ____
ROOT
ATOM      1  C   UNL     1       3.133   7.158  18.362  0.00  0.00    +0.000 A 
ATOM      2  C   UNL     1       2.420   8.275  17.978  0.00  0.00    +0.000 A 
ATOM      3  C   UNL     1       1.585   8.638  19.065  0.00  0.00    +0.000 A 
ATOM      4  C   UNL     1       0.657   9.657  19.339  0.00  0.00    +0.000 A 
ATOM      5  C   UNL     1       0.029   9.686  20.591  0.00  0.00    +0.000 A 
ATOM      6  C   UNL     1       0.259   8.689  21.538  0.00  0.00    +0.000 A 
ATOM      7  C   UNL     1       1.184   7.665  21.289  0.00  0.00    +0.000 A 
ATOM      8  C   UNL     1       1.831   7.689  20.053  0.00  0.00    +0.000 A 
ATOM      9  O   UNL     1       2.776   6.799  19.634  0.00  0.00    +0.000 OA
ATOM     10  O   UNL     1      -0.841  10.693  20.930  0.00  0.00    +0.000 OA
ATOM     11  C   UNL     1      -0.616  11.949  20.241  0.00  0.00    +0.000 C 
ATOM     12  C   UNL     1       0.486  12.715  20.988  0.00  0.00    +0.000 C 
ATOM     13  C   UNL     1      -1.932  12.730  20.329  0.00  0.00    +0.000 C 
ATOM     14  C   UNL     1      -0.237  11.779  18.782  0.00  0.00    +0.000 C 
ATOM     15  C   UNL     1       0.371  10.672  18.341  0.00  0.00    +0.000 C 
ENDROOT
BRANCH   1  21
ATOM     16  N   UNL     1       7.640   6.730  16.964  0.00  0.00    +0.000 N 
ATOM     17  C   UNL     1       6.333   6.211  16.985  0.00  0.00    +0.000 A 
ATOM     18  C   UNL     1       6.063   5.045  16.274  0.00  0.00    +0.000 A 
ATOM     19  C   UNL     1       4.790   4.480  16.340  0.00  0.00    +0.000 A 
ATOM     20  C   UNL     1       3.796   5.127  17.062  0.00  0.00    +0.000 A 
ATOM     21  C   UNL     1       4.111   6.332  17.669  0.00  0.00    +0.000 A 
ATOM     22  N   UNL     1       5.359   6.861  17.649  0.00  0.00    +0.000 NA
ATOM     23  H   UNL     1       8.315   5.983  16.855  0.00  0.00    +0.000 HD
BRANCH  16  24
ATOM     24  C   UNL     1       7.971   7.575  18.123  0.00  0.00    +0.000 C 
BRANCH  24  25
ATOM     25  C   UNL     1       8.142   9.041  17.694  0.00  0.00    +0.000 C 
BRANCH  25  26
ATOM     26  C   UNL     1       8.931   9.891  18.696  0.00  0.00    +0.000 C 
BRANCH  26  28
ATOM     27  C   UNL     1       8.806  12.147  17.789  0.00  0.00    +0.000 C 
ATOM     28  N   UNL     1       9.677  11.014  18.109  0.00  0.00    +0.000 NA
ATOM     29  C   UNL     1      10.732  11.456  19.027  0.00  0.00    +0.000 C 
ENDBRANCH  26  28
ENDBRANCH  25  26
ENDBRANCH  24  25
ENDBRANCH  16  24
ENDBRANCH   1  21
TORSDOF 5
ENDMDL
MODEL 6
REMARK VINA RESULT:      -7.8      1.586      3.827
REMARK  Name = 
REMARK  9 active torsions:
REMARK  status: ('A' for Active; 'I' for Inactive)
REMARK    1  A    between atoms: C_1  and  N_2
REMARK    2  A    between atoms: N_2  and  C_3
REMARK    3  A    between atoms: N_2  and  C_4
REMARK    4  A    between atoms: C_4  and  C_5
REMARK    5  A    between atoms: C_5  and  C_6
REMARK    6  A    between atoms: C_6  and  N_7
REMARK    7  A    between atoms: C_12  and  C_13
REMARK    8  A    between atoms: C_23  and  C_24
REMARK    9  A    between atoms: C_23  and  C_25
REMARK                            x       y       z     vdW  Elec       q    Type
REMARK                         _______ _______ _______ _____ _____    ______ ____
ROOT
ATOM      1  C   UNL     1       2.009   6.843  19.882  0.00  0.00    +0.000 A 
ATOM      2  C   UNL     1       1.421   7.623  20.857  0.00  0.00    +0.000 A 
ATOM      3  C   UNL     1       1.262   8.924  20.318  0.00  0.00    +0.000 A 
ATOM      4  C   UNL     1       0.728  10.148  20.755  0.00  0.00    +0.000 A 
ATOM      5  C   UNL     1       0.738  11.245  19.883  0.00  0.00    +0.000 A 
ATOM      6  C   UNL     1       1.325  11.159  18.621  0.00  0.00    +0.000 A 
ATOM      7  C   UNL     1       1.860   9.948  18.162  0.00  0.00    +0.000 A 
ATOM      8  C   UNL     1       1.792   8.860  19.033  0.00  0.00    +0.000 A 
ATOM      9  O   UNL     1       2.234   7.597  18.762  0.00  0.00    +0.000 OA
ATOM     10  O   UNL     1       0.175  12.445  20.240  0.00  0.00    +0.000 OA
ATOM     11  C   UNL     1      -0.890  12.352  21.220  0.00  0.00    +0.000 C 
ATOM     12  C   UNL     1      -2.194  12.017  20.479  0.00  0.00    +0.000 C 
ATOM     13  C   UNL     1      -1.009  13.739  21.861  0.00  0.00    +0.000 C 
ATOM     14  C   UNL     1      -0.626  11.324  22.303  0.00  0.00    +0.000 C 
ATOM     15  C   UNL     1       0.159  10.263  22.087  0.00  0.00    +0.000 C 
ENDROOT
BRANCH   1  21
ATOM     16  N   UNL     1       3.927   3.346  17.323  0.00  0.00    +0.000 N 
ATOM     17  C   UNL     1       3.349   3.775  18.532  0.00  0.00    +0.000 A 
ATOM     18  C   UNL     1       3.135   2.840  19.541  0.00  0.00    +0.000 A 
ATOM     19  C   UNL     1       2.626   3.260  20.769  0.00  0.00    +0.000 A 
ATOM     20  C   UNL     1       2.280   4.594  20.941  0.00  0.00    +0.000 A 
ATOM     21  C   UNL     1       2.433   5.451  19.863  0.00  0.00    +0.000 A 
ATOM     22  N   UNL     1       2.974   5.058  18.683  0.00  0.00    +0.000 NA
ATOM     23  H   UNL     1       4.546   2.561  17.487  0.00  0.00    +0.000 HD
BRANCH  16  24
ATOM     24  C   UNL     1       4.614   4.411  16.574  0.00  0.00    +0.000 C 
BRANCH  24  25
ATOM     25  C   UNL     1       6.044   3.981  16.210  0.00  0.00    +0.000 C 
BRANCH  25  26
ATOM     26  C   UNL     1       7.131   4.701  17.018  0.00  0.00    +0.000 C 
BRANCH  26  28
ATOM     27  C   UNL     1       6.760   5.488  19.292  0.00  0.00    +0.000 C 
ATOM     28  N   UNL     1       6.650   5.802  17.866  0.00  0.00    +0.000 NA
ATOM     29  C   UNL     1       7.402   7.028  17.578  0.00  0.00    +0.000 C 
ENDBRANCH  26  28
ENDBRANCH  25  26
ENDBRANCH  24  25
ENDBRANCH  16  24
ENDBRANCH   1  21
TORSDOF 5
ENDMDL
MODEL 7
REMARK VINA RESULT:      -7.8      1.553      4.012
REMARK  Name = 
REMARK  9 active torsions:
REMARK  status: ('A' for Active; 'I' for Inactive)
REMARK    1  A    between atoms: C_1  and  N_2
REMARK    2  A    between atoms: N_2  and  C_3
REMARK    3  A    between atoms: N_2  and  C_4
REMARK    4  A    between atoms: C_4  and  C_5
REMARK    5  A    between atoms: C_5  and  C_6
REMARK    6  A    between atoms: C_6  and  N_7
REMARK    7  A    between atoms: C_12  and  C_13
REMARK    8  A    between atoms: C_23  and  C_24
REMARK    9  A    between atoms: C_23  and  C_25
REMARK                            x       y       z     vdW  Elec       q    Type
REMARK                         _______ _______ _______ _____ _____    ______ ____
ROOT
ATOM      1  C   UNL     1       1.986   6.762  20.037  0.00  0.00    +0.000 A 
ATOM      2  C   UNL     1       1.395   7.634  20.929  0.00  0.00    +0.000 A 
ATOM      3  C   UNL     1       1.258   8.882  20.271  0.00  0.00    +0.000 A 
ATOM      4  C   UNL     1       0.732  10.146  20.588  0.00  0.00    +0.000 A 
ATOM      5  C   UNL     1       0.765  11.159  19.621  0.00  0.00    +0.000 A 
ATOM      6  C   UNL     1       1.367  10.952  18.379  0.00  0.00    +0.000 A 
ATOM      7  C   UNL     1       1.893   9.699  18.040  0.00  0.00    +0.000 A 
ATOM      8  C   UNL     1       1.803   8.695  19.005  0.00  0.00    +0.000 A 
ATOM      9  O   UNL     1       2.233   7.409  18.856  0.00  0.00    +0.000 OA
ATOM     10  O   UNL     1       0.212  12.392  19.860  0.00  0.00    +0.000 OA
ATOM     11  C   UNL     1      -0.866  12.399  20.829  0.00  0.00    +0.000 C 
ATOM     12  C   UNL     1      -2.164  12.012  20.105  0.00  0.00    +0.000 C 
ATOM     13  C   UNL     1      -0.976  13.840  21.341  0.00  0.00    +0.000 C 
ATOM     14  C   UNL     1      -0.627  11.472  22.005  0.00  0.00    +0.000 C 
ATOM     15  C   UNL     1       0.149  10.388  21.896  0.00  0.00    +0.000 C 
ENDROOT
BRANCH   1  21
ATOM     16  N   UNL     1       5.212   3.497  18.859  0.00  0.00    +0.000 N 
ATOM     17  C   UNL     1       4.001   3.815  19.501  0.00  0.00    +0.000 A 
ATOM     18  C   UNL     1       3.260   2.789  20.079  0.00  0.00    +0.000 A 
ATOM     19  C   UNL     1       2.093   3.095  20.778  0.00  0.00    +0.000 A 
ATOM     20  C   UNL     1       1.656   4.412  20.828  0.00  0.00    +0.000 A 
ATOM     21  C   UNL     1       2.394   5.369  20.150  0.00  0.00    +0.000 A 
ATOM     22  N   UNL     1       3.556   5.085  19.511  0.00  0.00    +0.000 NA
ATOM     23  H   UNL     1       5.638   2.686  19.292  0.00  0.00    +0.000 HD
BRANCH  16  24
ATOM     24  C   UNL     1       6.166   4.617  18.785  0.00  0.00    +0.000 C 
BRANCH  24  25
ATOM     25  C   UNL     1       6.500   4.946  17.321  0.00  0.00    +0.000 C 
BRANCH  25  26
ATOM     26  C   UNL     1       5.671   4.154  16.304  0.00  0.00    +0.000 C 
BRANCH  26  28
ATOM     27  C   UNL     1       5.360   3.934  13.899  0.00  0.00    +0.000 C 
ATOM     28  N   UNL     1       6.322   3.937  15.003  0.00  0.00    +0.000 NA
ATOM     29  C   UNL     1       7.334   4.972  14.765  0.00  0.00    +0.000 C 
ENDBRANCH  26  28
ENDBRANCH  25  26
ENDBRANCH  24  25
ENDBRANCH  16  24
ENDBRANCH   1  21
TORSDOF 5
ENDMDL
MODEL 8
REMARK VINA RESULT:      -7.8      1.566      3.746
REMARK  Name = 
REMARK  9 active torsions:
REMARK  status: ('A' for Active; 'I' for Inactive)
REMARK    1  A    between atoms: C_1  and  N_2
REMARK    2  A    between atoms: N_2  and  C_3
REMARK    3  A    between atoms: N_2  and  C_4
REMARK    4  A    between atoms: C_4  and  C_5
REMARK    5  A    between atoms: C_5  and  C_6
REMARK    6  A    between atoms: C_6  and  N_7
REMARK    7  A    between atoms: C_12  and  C_13
REMARK    8  A    between atoms: C_23  and  C_24
REMARK    9  A    between atoms: C_23  and  C_25
REMARK                            x       y       z     vdW  Elec       q    Type
REMARK                         _______ _______ _______ _____ _____    ______ ____
ROOT
ATOM      1  C   UNL     1       2.038   6.480  20.282  0.00  0.00    +0.000 A 
ATOM      2  C   UNL     1       2.218   7.552  19.431  0.00  0.00    +0.000 A 
ATOM      3  C   UNL     1       1.432   8.622  19.928  0.00  0.00    +0.000 A 
ATOM      4  C   UNL     1       1.187   9.957  19.567  0.00  0.00    +0.000 A 
ATOM      5  C   UNL     1       0.327  10.730  20.358  0.00  0.00    +0.000 A 
ATOM      6  C   UNL     1      -0.336  10.178  21.454  0.00  0.00    +0.000 A 
ATOM      7  C   UNL     1      -0.104   8.850  21.836  0.00  0.00    +0.000 A 
ATOM      8  C   UNL     1       0.795   8.119  21.059  0.00  0.00    +0.000 A 
ATOM      9  O   UNL     1       1.170   6.826  21.281  0.00  0.00    +0.000 OA
ATOM     10  O   UNL     1       0.101  12.055  20.082  0.00  0.00    +0.000 OA
ATOM     11  C   UNL     1       1.179  12.724  19.380  0.00  0.00    +0.000 C 
ATOM     12  C   UNL     1       2.223  13.168  20.416  0.00  0.00    +0.000 C 
ATOM     13  C   UNL     1       0.559  13.959  18.716  0.00  0.00    +0.000 C 
ATOM     14  C   UNL     1       1.832  11.863  18.316  0.00  0.00    +0.000 C 
ATOM     15  C   UNL     1       1.833  10.528  18.397  0.00  0.00    +0.000 C 
ENDROOT
BRANCH   1  21
ATOM     16  N   UNL     1       5.540   3.617  18.869  0.00  0.00    +0.000 N 
ATOM     17  C   UNL     1       4.298   3.772  19.511  0.00  0.00    +0.000 A 
ATOM     18  C   UNL     1       3.635   2.638  19.970  0.00  0.00    +0.000 A 
ATOM     19  C   UNL     1       2.436   2.779  20.668  0.00  0.00    +0.000 A 
ATOM     20  C   UNL     1       1.892   4.045  20.834  0.00  0.00    +0.000 A 
ATOM     21  C   UNL     1       2.559   5.120  20.270  0.00  0.00    +0.000 A 
ATOM     22  N   UNL     1       3.749   4.995  19.633  0.00  0.00    +0.000 NA
ATOM     23  H   UNL     1       6.025   2.804  19.231  0.00  0.00    +0.000 HD
BRANCH  16  24
ATOM     24  C   UNL     1       6.399   4.812  18.925  0.00  0.00    +0.000 C 
BRANCH  24  25
ATOM     25  C   UNL     1       7.455   4.771  17.809  0.00  0.00    +0.000 C 
BRANCH  25  26
ATOM     26  C   UNL     1       6.934   5.241  16.446  0.00  0.00    +0.000 C 
BRANCH  26  28
ATOM     27  C   UNL     1       5.100   6.826  16.676  0.00  0.00    +0.000 C 
ATOM     28  N   UNL     1       6.525   6.653  16.388  0.00  0.00    +0.000 NA
ATOM     29  C   UNL     1       7.313   7.447  17.336  0.00  0.00    +0.000 C 
ENDBRANCH  26  28
ENDBRANCH  25  26
ENDBRANCH  24  25
ENDBRANCH  16  24
ENDBRANCH   1  21
TORSDOF 5
ENDMDL
MODEL 9
REMARK VINA RESULT:      -7.8      1.021      1.226
REMARK  Name = 
REMARK  9 active torsions:
REMARK  status: ('A' for Active; 'I' for Inactive)
REMARK    1  A    between atoms: C_1  and  N_2
REMARK    2  A    between atoms: N_2  and  C_3
REMARK    3  A    between atoms: N_2  and  C_4
REMARK    4  A    between atoms: C_4  and  C_5
REMARK    5  A    between atoms: C_5  and  C_6
REMARK    6  A    between atoms: C_6  and  N_7
REMARK    7  A    between atoms: C_12  and  C_13
REMARK    8  A    between atoms: C_23  and  C_24
REMARK    9  A    between atoms: C_23  and  C_25
REMARK                            x       y       z     vdW  Elec       q    Type
REMARK                         _______ _______ _______ _____ _____    ______ ____
ROOT
ATOM      1  C   UNL     1       2.543   7.785  18.521  0.00  0.00    +0.000 A 
ATOM      2  C   UNL     1       1.785   8.878  18.154  0.00  0.00    +0.000 A 
ATOM      3  C   UNL     1       1.071   9.301  19.303  0.00  0.00    +0.000 A 
ATOM      4  C   UNL     1       0.171  10.334  19.618  0.00  0.00    +0.000 A 
ATOM      5  C   UNL     1      -0.318  10.434  20.927  0.00  0.00    +0.000 A 
ATOM      6  C   UNL     1       0.021   9.492  21.899  0.00  0.00    +0.000 A 
ATOM      7  C   UNL     1       0.920   8.457  21.608  0.00  0.00    +0.000 A 
ATOM      8  C   UNL     1       1.429   8.411  20.310  0.00  0.00    +0.000 A 
ATOM      9  O   UNL     1       2.330   7.499  19.842  0.00  0.00    +0.000 OA
ATOM     10  O   UNL     1      -1.153  11.458  21.301  0.00  0.00    +0.000 OA
ATOM     11  C   UNL     1      -1.013  12.673  20.521  0.00  0.00    +0.000 C 
ATOM     12  C   UNL     1       0.158  13.481  21.100  0.00  0.00    +0.000 C 
ATOM     13  C   UNL     1      -2.317  13.457  20.708  0.00  0.00    +0.000 C 
ATOM     14  C   UNL     1      -0.793  12.419  19.042  0.00  0.00    +0.000 C 
ATOM     15  C   UNL     1      -0.229  11.290  18.601  0.00  0.00    +0.000 C 
ENDROOT
BRANCH   1  21
ATOM     16  N   UNL     1       3.589   3.342  17.249  0.00  0.00    +0.000 N 
ATOM     17  C   UNL     1       3.916   4.710  17.220  0.00  0.00    +0.000 A 
ATOM     18  C   UNL     1       5.096   5.104  16.595  0.00  0.00    +0.000 A 
ATOM     19  C   UNL     1       5.400   6.461  16.498  0.00  0.00    +0.000 A 
ATOM     20  C   UNL     1       4.554   7.391  17.086  0.00  0.00    +0.000 A 
ATOM     21  C   UNL     1       3.446   6.922  17.773  0.00  0.00    +0.000 A 
ATOM     22  N   UNL     1       3.119   5.607  17.828  0.00  0.00    +0.000 NA
ATOM     23  H   UNL     1       3.964   2.873  16.432  0.00  0.00    +0.000 HD
BRANCH  16  24
ATOM     24  C   UNL     1       2.150   3.070  17.400  0.00  0.00    +0.000 C 
BRANCH  24  25
ATOM     25  C   UNL     1       1.923   1.844  18.298  0.00  0.00    +0.000 C 
BRANCH  25  26
ATOM     26  C   UNL     1       1.819   2.180  19.790  0.00  0.00    +0.000 C 
BRANCH  26  28
ATOM     27  C   UNL     1       2.228   4.019  21.333  0.00  0.00    +0.000 C 
ATOM     28  N   UNL     1       2.786   3.177  20.273  0.00  0.00    +0.000 NA
ATOM     29  C   UNL     1       3.996   2.511  20.767  0.00  0.00    +0.000 C 
ENDBRANCH  26  28
ENDBRANCH  25  26
ENDBRANCH  24  25
ENDBRANCH  16  24
ENDBRANCH   1  21
TORSDOF 5
ENDMDL
