MODEL 1
REMARK VINA RESULT:      -7.5      0.000      0.000
REMARK  Name = 
REMARK  1 active torsions:
REMARK  status: ('A' for Active; 'I' for Inactive)
REMARK    1  A    between atoms: C_2  and  C_3
REMARK                            x       y       z     vdW  Elec       q    Type
REMARK                         _______ _______ _______ _____ _____    ______ ____
ROOT
ATOM      1  O   UNL     1       4.506   7.029  16.924  0.00  0.00    +0.000 OA
ATOM      2  C   UNL     1       3.959   6.708  17.978  0.00  0.00    +0.000 C 
ATOM      3  N   UNL     1       4.288   5.538  18.691  0.00  0.00    +0.000 N 
ATOM      4  C   UNL     1       5.088   4.564  17.975  0.00  0.00    +0.000 C 
ATOM      5  C   UNL     1       4.263   3.843  16.916  0.00  0.00    +0.000 C 
ATOM      6  C   UNL     1       3.169   2.901  17.438  0.00  0.00    +0.000 C 
ATOM      7  N   UNL     1       2.053   3.367  18.249  0.00  0.00    +0.000 NA
ATOM      8  C   UNL     1       1.244   2.268  18.786  0.00  0.00    +0.000 C 
ATOM      9  C   UNL     1       0.338   2.951  19.791  0.00  0.00    +0.000 C 
ATOM     10  C   UNL     1       1.290   3.928  20.443  0.00  0.00    +0.000 C 
ATOM     11  C   UNL     1       2.132   4.425  19.262  0.00  0.00    +0.000 C 
ATOM     12  C   UNL     1       3.479   4.955  19.758  0.00  0.00    +0.000 C 
ENDROOT
BRANCH   2  13
ATOM     13  C   UNL     1       2.828   7.562  18.438  0.00  0.00    +0.000 A 
ATOM     14  C   UNL     1       2.432   7.471  19.785  0.00  0.00    +0.000 A 
ATOM     15  C   UNL     1       1.461   8.346  20.285  0.00  0.00    +0.000 A 
ATOM     16  C   UNL     1       0.887   9.294  19.435  0.00  0.00    +0.000 A 
ATOM     17 CL   UNL     1      -0.241  10.434  20.062  0.00  0.00    +0.000 Cl
ATOM     18  C   UNL     1       1.233   9.338  18.085  0.00  0.00    +0.000 A 
ATOM     19  C   UNL     1       2.181   8.443  17.576  0.00  0.00    +0.000 A 
ENDBRANCH   2  13
TORSDOF 1
ENDMDL
MODEL 2
REMARK VINA RESULT:      -7.3      0.225      1.134
REMARK  Name = 
REMARK  1 active torsions:
REMARK  status: ('A' for Active; 'I' for Inactive)
REMARK    1  A    between atoms: C_2  and  C_3
REMARK                            x       y       z     vdW  Elec       q    Type
REMARK                         _______ _______ _______ _____ _____    ______ ____
ROOT
ATOM      1  O   UNL     1       4.477   6.915  16.747  0.00  0.00    +0.000 OA
ATOM      2  C   UNL     1       4.017   6.622  17.849  0.00  0.00    +0.000 C 
ATOM      3  N   UNL     1       4.348   5.433  18.530  0.00  0.00    +0.000 N 
ATOM      4  C   UNL     1       5.019   4.418  17.741  0.00  0.00    +0.000 C 
ATOM      5  C   UNL     1       4.056   3.748  16.768  0.00  0.00    +0.000 C 
ATOM      6  C   UNL     1       2.968   2.866  17.396  0.00  0.00    +0.000 C 
ATOM      7  N   UNL     1       1.963   3.391  18.310  0.00  0.00    +0.000 NA
ATOM      8  C   UNL     1       1.149   2.337  18.925  0.00  0.00    +0.000 C 
ATOM      9  C   UNL     1       0.384   3.066  20.011  0.00  0.00    +0.000 C 
ATOM     10  C   UNL     1       1.448   3.986  20.567  0.00  0.00    +0.000 C 
ATOM     11  C   UNL     1       2.198   4.439  19.309  0.00  0.00    +0.000 C 
ATOM     12  C   UNL     1       3.614   4.892  19.671  0.00  0.00    +0.000 C 
ENDROOT
BRANCH   2  13
ATOM     13  C   UNL     1       2.986   7.536  18.415  0.00  0.00    +0.000 A 
ATOM     14  C   UNL     1       2.426   8.511  17.568  0.00  0.00    +0.000 A 
ATOM     15  C   UNL     1       1.367   9.303  18.026  0.00  0.00    +0.000 A 
ATOM     16  C   UNL     1       0.886   9.125  19.325  0.00  0.00    +0.000 A 
ATOM     17 CL   UNL     1      -0.475  10.031  19.865  0.00  0.00    +0.000 Cl
ATOM     18  C   UNL     1       1.486   8.205  20.183  0.00  0.00    +0.000 A 
ATOM     19  C   UNL     1       2.566   7.434  19.738  0.00  0.00    +0.000 A 
ENDBRANCH   2  13
TORSDOF 1
ENDMDL
MODEL 3
REMARK VINA RESULT:      -7.1      3.084      4.218
REMARK  Name = 
REMARK  1 active torsions:
REMARK  status: ('A' for Active; 'I' for Inactive)
REMARK    1  A    between atoms: C_2  and  C_3
REMARK                            x       y       z     vdW  Elec       q    Type
REMARK                         _______ _______ _______ _____ _____    ______ ____
ROOT
ATOM      1  O   UNL     1       5.063   2.998  16.154  0.00  0.00    +0.000 OA
ATOM      2  C   UNL     1       5.068   3.459  17.294  0.00  0.00    +0.000 C 
ATOM      3  N   UNL     1       4.453   2.816  18.387  0.00  0.00    +0.000 N 
ATOM      4  C   UNL     1       3.546   1.733  18.056  0.00  0.00    +0.000 C 
ATOM      5  C   UNL     1       2.245   2.263  17.467  0.00  0.00    +0.000 C 
ATOM      6  C   UNL     1       1.334   3.038  18.430  0.00  0.00    +0.000 C 
ATOM      7  N   UNL     1       1.751   4.271  19.084  0.00  0.00    +0.000 NA
ATOM      8  C   UNL     1       0.793   4.727  20.097  0.00  0.00    +0.000 C 
ATOM      9  C   UNL     1       1.538   5.832  20.819  0.00  0.00    +0.000 C 
ATOM     10  C   UNL     1       2.928   5.244  20.922  0.00  0.00    +0.000 C 
ATOM     11  C   UNL     1       3.108   4.551  19.566  0.00  0.00    +0.000 C 
ATOM     12  C   UNL     1       4.162   3.447  19.671  0.00  0.00    +0.000 C 
ENDROOT
BRANCH   2  13
ATOM     13  C   UNL     1       5.669   4.810  17.473  0.00  0.00    +0.000 A 
ATOM     14  C   UNL     1       6.904   4.905  18.141  0.00  0.00    +0.000 A 
ATOM     15  C   UNL     1       7.560   6.139  18.217  0.00  0.00    +0.000 A 
ATOM     16  C   UNL     1       6.973   7.267  17.638  0.00  0.00    +0.000 A 
ATOM     17 CL   UNL     1       7.813   8.769  17.646  0.00  0.00    +0.000 Cl
ATOM     18  C   UNL     1       5.718   7.183  17.036  0.00  0.00    +0.000 A 
ATOM     19  C   UNL     1       5.046   5.956  16.986  0.00  0.00    +0.000 A 
ENDBRANCH   2  13
TORSDOF 1
ENDMDL
MODEL 4
REMARK VINA RESULT:      -6.9      1.952      3.941
REMARK  Name = 
REMARK  1 active torsions:
REMARK  status: ('A' for Active; 'I' for Inactive)
REMARK    1  A    between atoms: C_2  and  C_3
REMARK                            x       y       z     vdW  Elec       q    Type
REMARK                         _______ _______ _______ _____ _____    ______ ____
ROOT
ATOM      1  O   UNL     1       1.738   4.666  19.566  0.00  0.00    +0.000 OA
ATOM      2  C   UNL     1       2.353   5.360  18.757  0.00  0.00    +0.000 C 
ATOM      3  N   UNL     1       3.282   4.830  17.839  0.00  0.00    +0.000 N 
ATOM      4  C   UNL     1       3.715   3.469  18.091  0.00  0.00    +0.000 C 
ATOM      5  C   UNL     1       4.659   3.402  19.285  0.00  0.00    +0.000 C 
ATOM      6  C   UNL     1       6.037   4.049  19.094  0.00  0.00    +0.000 C 
ATOM      7  N   UNL     1       6.206   5.468  18.811  0.00  0.00    +0.000 NA
ATOM      8  C   UNL     1       7.592   5.819  18.483  0.00  0.00    +0.000 C 
ATOM      9  C   UNL     1       7.486   7.242  17.970  0.00  0.00    +0.000 C 
ATOM     10  C   UNL     1       6.228   7.170  17.134  0.00  0.00    +0.000 C 
ATOM     11  C   UNL     1       5.311   6.272  17.973  0.00  0.00    +0.000 C 
ATOM     12  C   UNL     1       4.251   5.619  17.083  0.00  0.00    +0.000 C 
ENDROOT
BRANCH   2  13
ATOM     13  C   UNL     1       2.161   6.834  18.849  0.00  0.00    +0.000 A 
ATOM     14  C   UNL     1       2.148   7.578  17.654  0.00  0.00    +0.000 A 
ATOM     15  C   UNL     1       1.846   8.944  17.689  0.00  0.00    +0.000 A 
ATOM     16  C   UNL     1       1.570   9.556  18.914  0.00  0.00    +0.000 A 
ATOM     17 CL   UNL     1       1.107  11.213  18.958  0.00  0.00    +0.000 Cl
ATOM     18  C   UNL     1       1.649   8.831  20.103  0.00  0.00    +0.000 A 
ATOM     19  C   UNL     1       1.983   7.472  20.073  0.00  0.00    +0.000 A 
ENDBRANCH   2  13
TORSDOF 1
ENDMDL
MODEL 5
REMARK VINA RESULT:      -6.8      9.640     11.490
REMARK  Name = 
REMARK  1 active torsions:
REMARK  status: ('A' for Active; 'I' for Inactive)
REMARK    1  A    between atoms: C_2  and  C_3
REMARK                            x       y       z     vdW  Elec       q    Type
REMARK                         _______ _______ _______ _____ _____    ______ ____
ROOT
ATOM      1  O   UNL     1      11.881  11.540  20.151  0.00  0.00    +0.000 OA
ATOM      2  C   UNL     1      10.783  12.007  19.853  0.00  0.00    +0.000 C 
ATOM      3  N   UNL     1      10.384  12.248  18.523  0.00  0.00    +0.000 N 
ATOM      4  C   UNL     1      11.440  12.208  17.529  0.00  0.00    +0.000 C 
ATOM      5  C   UNL     1      12.333  13.438  17.622  0.00  0.00    +0.000 C 
ATOM      6  C   UNL     1      11.690  14.772  17.218  0.00  0.00    +0.000 C 
ATOM      7  N   UNL     1      10.540  15.332  17.915  0.00  0.00    +0.000 NA
ATOM      8  C   UNL     1       9.986  16.510  17.240  0.00  0.00    +0.000 C 
ATOM      9  C   UNL     1       8.675  16.751  17.962  0.00  0.00    +0.000 C 
ATOM     10  C   UNL     1       8.160  15.339  18.135  0.00  0.00    +0.000 C 
ATOM     11  C   UNL     1       9.432  14.550  18.473  0.00  0.00    +0.000 C 
ATOM     12  C   UNL     1       9.245  13.071  18.129  0.00  0.00    +0.000 C 
ENDROOT
BRANCH   2  13
ATOM     13  C   UNL     1       9.900  12.425  20.978  0.00  0.00    +0.000 A 
ATOM     14  C   UNL     1       8.993  11.482  21.496  0.00  0.00    +0.000 A 
ATOM     15  C   UNL     1       8.238  11.795  22.631  0.00  0.00    +0.000 A 
ATOM     16  C   UNL     1       8.385  13.048  23.231  0.00  0.00    +0.000 A 
ATOM     17 CL   UNL     1       7.529  13.409  24.680  0.00  0.00    +0.000 Cl
ATOM     18  C   UNL     1       9.235  14.004  22.676  0.00  0.00    +0.000 A 
ATOM     19  C   UNL     1       9.967  13.705  21.522  0.00  0.00    +0.000 A 
ENDBRANCH   2  13
TORSDOF 1
ENDMDL
MODEL 6
REMARK VINA RESULT:      -6.5     10.054     12.235
REMARK  Name = 
REMARK  1 active torsions:
REMARK  status: ('A' for Active; 'I' for Inactive)
REMARK    1  A    between atoms: C_2  and  C_3
REMARK                            x       y       z     vdW  Elec       q    Type
REMARK                         _______ _______ _______ _____ _____    ______ ____
ROOT
ATOM      1  O   UNL     1      12.321  15.172  19.755  0.00  0.00    +0.000 OA
ATOM      2  C   UNL     1      11.387  14.913  18.998  0.00  0.00    +0.000 C 
ATOM      3  N   UNL     1      10.714  15.895  18.243  0.00  0.00    +0.000 N 
ATOM      4  C   UNL     1      10.966  17.271  18.626  0.00  0.00    +0.000 C 
ATOM      5  C   UNL     1      10.271  17.615  19.937  0.00  0.00    +0.000 C 
ATOM      6  C   UNL     1       8.737  17.667  19.894  0.00  0.00    +0.000 C 
ATOM      7  N   UNL     1       7.921  16.508  19.557  0.00  0.00    +0.000 NA
ATOM      8  C   UNL     1       6.502  16.842  19.398  0.00  0.00    +0.000 C 
ATOM      9  C   UNL     1       5.907  15.584  18.796  0.00  0.00    +0.000 C 
ATOM     10  C   UNL     1       6.978  15.185  17.805  0.00  0.00    +0.000 C 
ATOM     11  C   UNL     1       8.276  15.489  18.564  0.00  0.00    +0.000 C 
ATOM     12  C   UNL     1       9.427  15.702  17.579  0.00  0.00    +0.000 C 
ENDROOT
BRANCH   2  13
ATOM     13  C   UNL     1      10.902  13.505  18.980  0.00  0.00    +0.000 A 
ATOM     14  C   UNL     1      10.327  12.986  20.156  0.00  0.00    +0.000 A 
ATOM     15  C   UNL     1       9.747  11.713  20.142  0.00  0.00    +0.000 A 
ATOM     16  C   UNL     1       9.756  10.966  18.962  0.00  0.00    +0.000 A 
ATOM     17 CL   UNL     1       8.965   9.438  18.910  0.00  0.00    +0.000 Cl
ATOM     18  C   UNL     1      10.385  11.455  17.817  0.00  0.00    +0.000 A 
ATOM     19  C   UNL     1      10.994  12.715  17.838  0.00  0.00    +0.000 A 
ENDBRANCH   2  13
TORSDOF 1
ENDMDL
MODEL 7
REMARK VINA RESULT:      -6.5      5.033      8.025
REMARK  Name = 
REMARK  1 active torsions:
REMARK  status: ('A' for Active; 'I' for Inactive)
REMARK    1  A    between atoms: C_2  and  C_3
REMARK                            x       y       z     vdW  Elec       q    Type
REMARK                         _______ _______ _______ _____ _____    ______ ____
ROOT
ATOM      1  O   UNL     1       1.024  12.361  21.401  0.00  0.00    +0.000 OA
ATOM      2  C   UNL     1       0.669  12.127  20.247  0.00  0.00    +0.000 C 
ATOM      3  N   UNL     1      -0.133  13.008  19.494  0.00  0.00    +0.000 N 
ATOM      4  C   UNL     1      -0.781  14.069  20.241  0.00  0.00    +0.000 C 
ATOM      5  C   UNL     1      -1.932  13.530  21.081  0.00  0.00    +0.000 C 
ATOM      6  C   UNL     1      -3.153  13.020  20.304  0.00  0.00    +0.000 C 
ATOM      7  N   UNL     1      -3.079  11.908  19.366  0.00  0.00    +0.000 NA
ATOM      8  C   UNL     1      -4.320  11.722  18.607  0.00  0.00    +0.000 C 
ATOM      9  C   UNL     1      -3.934  10.725  17.533  0.00  0.00    +0.000 C 
ATOM     10  C   UNL     1      -2.562  11.221  17.136  0.00  0.00    +0.000 C 
ATOM     11  C   UNL     1      -1.944  11.629  18.480  0.00  0.00    +0.000 C 
ATOM     12  C   UNL     1      -0.831  12.655  18.261  0.00  0.00    +0.000 C 
ENDROOT
BRANCH   2  13
ATOM     13  C   UNL     1       1.032  10.795  19.686  0.00  0.00    +0.000 A 
ATOM     14  C   UNL     1       1.598  10.748  18.399  0.00  0.00    +0.000 A 
ATOM     15  C   UNL     1       2.067   9.532  17.890  0.00  0.00    +0.000 A 
ATOM     16  C   UNL     1       1.957   8.374  18.664  0.00  0.00    +0.000 A 
ATOM     17 CL   UNL     1       2.613   6.892  18.086  0.00  0.00    +0.000 Cl
ATOM     18  C   UNL     1       1.335   8.412  19.911  0.00  0.00    +0.000 A 
ATOM     19  C   UNL     1       0.836   9.621  20.409  0.00  0.00    +0.000 A 
ENDBRANCH   2  13
TORSDOF 1
ENDMDL
MODEL 8
REMARK VINA RESULT:      -6.5      9.917     11.746
REMARK  Name = 
REMARK  1 active torsions:
REMARK  status: ('A' for Active; 'I' for Inactive)
REMARK    1  A    between atoms: C_2  and  C_3
REMARK                            x       y       z     vdW  Elec       q    Type
REMARK                         _______ _______ _______ _____ _____    ______ ____
ROOT
ATOM      1  O   UNL     1      10.164  11.509  20.720  0.00  0.00    +0.000 OA
ATOM      2  C   UNL     1       9.515  12.473  20.317  0.00  0.00    +0.000 C 
ATOM      3  N   UNL     1       9.124  12.630  18.972  0.00  0.00    +0.000 N 
ATOM      4  C   UNL     1       9.782  11.759  18.016  0.00  0.00    +0.000 C 
ATOM      5  C   UNL     1      11.226  12.186  17.784  0.00  0.00    +0.000 C 
ATOM      6  C   UNL     1      11.427  13.520  17.052  0.00  0.00    +0.000 C 
ATOM      7  N   UNL     1      10.949  14.788  17.587  0.00  0.00    +0.000 NA
ATOM      8  C   UNL     1      11.086  15.894  16.633  0.00  0.00    +0.000 C 
ATOM      9  C   UNL     1      10.298  17.018  17.276  0.00  0.00    +0.000 C 
ATOM     10  C   UNL     1       9.093  16.277  17.810  0.00  0.00    +0.000 C 
ATOM     11  C   UNL     1       9.700  14.970  18.334  0.00  0.00    +0.000 C 
ATOM     12  C   UNL     1       8.633  13.874  18.384  0.00  0.00    +0.000 C 
ENDROOT
BRANCH   2  13
ATOM     13  C   UNL     1       9.235  13.557  21.300  0.00  0.00    +0.000 A 
ATOM     14  C   UNL     1       7.966  13.591  21.908  0.00  0.00    +0.000 A 
ATOM     15  C   UNL     1       7.709  14.515  22.927  0.00  0.00    +0.000 A 
ATOM     16  C   UNL     1       8.713  15.402  23.321  0.00  0.00    +0.000 A 
ATOM     17 CL   UNL     1       8.437  16.480  24.634  0.00  0.00    +0.000 Cl
ATOM     18  C   UNL     1       9.947  15.411  22.671  0.00  0.00    +0.000 A 
ATOM     19  C   UNL     1      10.196  14.509  21.630  0.00  0.00    +0.000 A 
ENDBRANCH   2  13
TORSDOF 1
ENDMDL
MODEL 9
REMARK VINA RESULT:      -6.5      5.224      8.024
REMARK  Name = 
REMARK  1 active torsions:
REMARK  status: ('A' for Active; 'I' for Inactive)
REMARK    1  A    between atoms: C_2  and  C_3
REMARK                            x       y       z     vdW  Elec       q    Type
REMARK                         _______ _______ _______ _____ _____    ______ ____
ROOT
ATOM      1  O   UNL     1       0.668  12.608  21.546  0.00  0.00    +0.000 OA
ATOM      2  C   UNL     1       0.439  12.376  20.360  0.00  0.00    +0.000 C 
ATOM      3  N   UNL     1      -0.397  13.186  19.566  0.00  0.00    +0.000 N 
ATOM      4  C   UNL     1      -1.225  14.136  20.283  0.00  0.00    +0.000 C 
ATOM      5  C   UNL     1      -2.369  13.436  21.006  0.00  0.00    +0.000 C 
ATOM      6  C   UNL     1      -3.454  12.817  20.113  0.00  0.00    +0.000 C 
ATOM      7  N   UNL     1      -3.171  11.756  19.156  0.00  0.00    +0.000 NA
ATOM      8  C   UNL     1      -4.315  11.456  18.288  0.00  0.00    +0.000 C 
ATOM      9  C   UNL     1      -3.726  10.550  17.225  0.00  0.00    +0.000 C 
ATOM     10  C   UNL     1      -2.394  11.217  16.961  0.00  0.00    +0.000 C 
ATOM     11  C   UNL     1      -1.942  11.644  18.363  0.00  0.00    +0.000 C 
ATOM     12  C   UNL     1      -0.944  12.800  18.268  0.00  0.00    +0.000 C 
ENDROOT
BRANCH   2  13
ATOM     13  C   UNL     1       1.003  11.117  19.798  0.00  0.00    +0.000 A 
ATOM     14  C   UNL     1       0.820   9.925  20.524  0.00  0.00    +0.000 A 
ATOM     15  C   UNL     1       1.223   8.706  19.969  0.00  0.00    +0.000 A 
ATOM     16  C   UNL     1       1.814   8.687  18.703  0.00  0.00    +0.000 A 
ATOM     17 CL   UNL     1       2.229   7.184  17.974  0.00  0.00    +0.000 Cl
ATOM     18  C   UNL     1       2.054   9.876  18.015  0.00  0.00    +0.000 A 
ATOM     19  C   UNL     1       1.681  11.100  18.582  0.00  0.00    +0.000 A 
ENDBRANCH   2  13
TORSDOF 1
ENDMDL
