MODEL 1
REMARK VINA RESULT:      -7.2      0.000      0.000
REMARK  Name = 
REMARK  3 active torsions:
REMARK  status: ('A' for Active; 'I' for Inactive)
REMARK    1  A    between atoms: C_16  and  C_17
REMARK    2  A    between atoms: C_17  and  O_18
REMARK    3  A    between atoms: C_19  and  O_20
REMARK                            x       y       z     vdW  Elec       q    Type
REMARK                         _______ _______ _______ _____ _____    ______ ____
ROOT
ATOM      1  O   UNL     1       8.225   5.131  18.945  0.00  0.00    +0.000 OA
ATOM      2  C   UNL     1       7.022   5.087  18.686  0.00  0.00    +0.000 A 
ATOM      3  N   UNL     1       6.048   5.162  19.669  0.00  0.00    +0.000 NA
ATOM      4  C   UNL     1       4.829   5.147  19.281  0.00  0.00    +0.000 A 
ATOM      5  N   UNL     1       4.384   5.051  17.997  0.00  0.00    +0.000 N 
ATOM      6  C   UNL     1       5.280   4.935  16.957  0.00  0.00    +0.000 A 
ATOM      7  C   UNL     1       6.589   4.943  17.239  0.00  0.00    +0.000 A 
ATOM      8  C   UNL     1       7.667   4.819  16.214  0.00  0.00    +0.000 C 
ATOM      9  C   UNL     1       7.226   4.649  14.757  0.00  0.00    +0.000 C 
ATOM     10  C   UNL     1       5.739   4.639  14.430  0.00  0.00    +0.000 C 
ATOM     11  C   UNL     1       4.745   4.816  15.566  0.00  0.00    +0.000 C 
ATOM     12  C   UNL     1       2.955   4.944  17.967  0.00  0.00    +0.000 C 
ATOM     13  C   UNL     1       2.582   5.391  19.380  0.00  0.00    +0.000 C 
ATOM     14  O   UNL     1       3.780   5.208  20.157  0.00  0.00    +0.000 OA
ATOM     15  O   UNL     1       1.485   4.564  19.823  0.00  0.00    +0.000 OA
ATOM     16  C   UNL     1       1.139   3.716  18.716  0.00  0.00    +0.000 C 
ATOM     17  C   UNL     1       2.451   3.506  17.977  0.00  0.00    +0.000 C 
ENDROOT
BRANCH  17  18
ATOM     18  O   UNL     1       2.283   2.903  16.702  0.00  0.00    +0.000 OA
ATOM     19  H   UNL     1       1.457   3.217  16.295  0.00  0.00    +0.000 HD
ENDBRANCH  17  18
BRANCH  16  20
ATOM     20  C   UNL     1       0.457   2.419  19.129  0.00  0.00    +0.000 C 
BRANCH  20  21
ATOM     21  O   UNL     1       1.316   1.300  18.928  0.00  0.00    +0.000 OA
ATOM     22  H   UNL     1       1.139   0.655  19.642  0.00  0.00    +0.000 HD
ENDBRANCH  20  21
ENDBRANCH  16  20
TORSDOF 3
ENDMDL
MODEL 2
REMARK VINA RESULT:      -7.2      2.296      5.384
REMARK  Name = 
REMARK  3 active torsions:
REMARK  status: ('A' for Active; 'I' for Inactive)
REMARK    1  A    between atoms: C_16  and  C_17
REMARK    2  A    between atoms: C_17  and  O_18
REMARK    3  A    between atoms: C_19  and  O_20
REMARK                            x       y       z     vdW  Elec       q    Type
REMARK                         _______ _______ _______ _____ _____    ______ ____
ROOT
ATOM      1  O   UNL     1       1.791   7.591  19.512  0.00  0.00    +0.000 OA
ATOM      2  C   UNL     1       2.741   6.949  19.067  0.00  0.00    +0.000 A 
ATOM      3  N   UNL     1       3.643   7.489  18.163  0.00  0.00    +0.000 NA
ATOM      4  C   UNL     1       4.618   6.743  17.799  0.00  0.00    +0.000 A 
ATOM      5  N   UNL     1       4.856   5.462  18.197  0.00  0.00    +0.000 N 
ATOM      6  C   UNL     1       3.993   4.831  19.066  0.00  0.00    +0.000 A 
ATOM      7  C   UNL     1       2.934   5.514  19.522  0.00  0.00    +0.000 A 
ATOM      8  C   UNL     1       1.917   4.954  20.460  0.00  0.00    +0.000 C 
ATOM      9  C   UNL     1       2.101   3.497  20.897  0.00  0.00    +0.000 C 
ATOM     10  C   UNL     1       3.302   2.716  20.381  0.00  0.00    +0.000 C 
ATOM     11  C   UNL     1       4.286   3.420  19.462  0.00  0.00    +0.000 C 
ATOM     12  C   UNL     1       5.972   4.914  17.484  0.00  0.00    +0.000 C 
ATOM     13  C   UNL     1       6.612   6.171  16.898  0.00  0.00    +0.000 C 
ATOM     14  O   UNL     1       5.566   7.161  16.907  0.00  0.00    +0.000 OA
ATOM     15  O   UNL     1       7.076   5.846  15.571  0.00  0.00    +0.000 OA
ATOM     16  C   UNL     1       6.819   4.445  15.380  0.00  0.00    +0.000 C 
ATOM     17  C   UNL     1       5.577   4.171  16.213  0.00  0.00    +0.000 C 
ENDROOT
BRANCH  17  18
ATOM     18  O   UNL     1       5.302   2.786  16.368  0.00  0.00    +0.000 OA
ATOM     19  H   UNL     1       6.136   2.290  16.425  0.00  0.00    +0.000 HD
ENDBRANCH  17  18
BRANCH  16  20
ATOM     20  C   UNL     1       6.674   4.043  13.918  0.00  0.00    +0.000 C 
BRANCH  20  21
ATOM     21  O   UNL     1       5.302   3.933  13.550  0.00  0.00    +0.000 OA
ATOM     22  H   UNL     1       4.773   4.410  14.223  0.00  0.00    +0.000 HD
ENDBRANCH  20  21
ENDBRANCH  16  20
TORSDOF 3
ENDMDL
MODEL 3
REMARK VINA RESULT:      -7.1      2.364      5.683
REMARK  Name = 
REMARK  3 active torsions:
REMARK  status: ('A' for Active; 'I' for Inactive)
REMARK    1  A    between atoms: C_16  and  C_17
REMARK    2  A    between atoms: C_17  and  O_18
REMARK    3  A    between atoms: C_19  and  O_20
REMARK                            x       y       z     vdW  Elec       q    Type
REMARK                         _______ _______ _______ _____ _____    ______ ____
ROOT
ATOM      1  O   UNL     1       1.976   7.181  18.765  0.00  0.00    +0.000 OA
ATOM      2  C   UNL     1       2.911   6.563  18.258  0.00  0.00    +0.000 A 
ATOM      3  N   UNL     1       4.055   7.194  17.794  0.00  0.00    +0.000 NA
ATOM      4  C   UNL     1       4.981   6.447  17.324  0.00  0.00    +0.000 A 
ATOM      5  N   UNL     1       4.957   5.088  17.218  0.00  0.00    +0.000 N 
ATOM      6  C   UNL     1       3.847   4.379  17.621  0.00  0.00    +0.000 A 
ATOM      7  C   UNL     1       2.810   5.053  18.136  0.00  0.00    +0.000 A 
ATOM      8  C   UNL     1       1.545   4.414  18.605  0.00  0.00    +0.000 C 
ATOM      9  C   UNL     1       1.437   2.894  18.457  0.00  0.00    +0.000 C 
ATOM     10  C   UNL     1       2.612   2.122  17.871  0.00  0.00    +0.000 C 
ATOM     11  C   UNL     1       3.860   2.891  17.470  0.00  0.00    +0.000 C 
ATOM     12  C   UNL     1       6.124   4.617  16.531  0.00  0.00    +0.000 C 
ATOM     13  C   UNL     1       7.035   5.842  16.596  0.00  0.00    +0.000 C 
ATOM     14  O   UNL     1       6.151   6.954  16.829  0.00  0.00    +0.000 OA
ATOM     15  O   UNL     1       7.738   5.928  15.338  0.00  0.00    +0.000 OA
ATOM     16  C   UNL     1       7.352   4.774  14.575  0.00  0.00    +0.000 C 
ATOM     17  C   UNL     1       5.931   4.480  15.026  0.00  0.00    +0.000 C 
ENDROOT
BRANCH  17  18
ATOM     18  O   UNL     1       5.451   3.220  14.578  0.00  0.00    +0.000 OA
ATOM     19  H   UNL     1       4.755   2.901  15.178  0.00  0.00    +0.000 HD
ENDBRANCH  17  18
BRANCH  16  20
ATOM     20  C   UNL     1       7.487   4.964  13.069  0.00  0.00    +0.000 C 
BRANCH  20  21
ATOM     21  O   UNL     1       8.508   5.910  12.762  0.00  0.00    +0.000 OA
ATOM     22  H   UNL     1       8.202   6.789  13.065  0.00  0.00    +0.000 HD
ENDBRANCH  20  21
ENDBRANCH  16  20
TORSDOF 3
ENDMDL
MODEL 4
REMARK VINA RESULT:      -6.9      3.072      5.521
REMARK  Name = 
REMARK  3 active torsions:
REMARK  status: ('A' for Active; 'I' for Inactive)
REMARK    1  A    between atoms: C_16  and  C_17
REMARK    2  A    between atoms: C_17  and  O_18
REMARK    3  A    between atoms: C_19  and  O_20
REMARK                            x       y       z     vdW  Elec       q    Type
REMARK                         _______ _______ _______ _____ _____    ______ ____
ROOT
ATOM      1  O   UNL     1       2.249   9.851  17.264  0.00  0.00    +0.000 OA
ATOM      2  C   UNL     1       2.360   8.828  17.938  0.00  0.00    +0.000 A 
ATOM      3  N   UNL     1       3.188   7.780  17.566  0.00  0.00    +0.000 NA
ATOM      4  C   UNL     1       3.257   6.782  18.365  0.00  0.00    +0.000 A 
ATOM      5  N   UNL     1       2.588   6.633  19.542  0.00  0.00    +0.000 N 
ATOM      6  C   UNL     1       1.715   7.608  19.975  0.00  0.00    +0.000 A 
ATOM      7  C   UNL     1       1.561   8.706  19.223  0.00  0.00    +0.000 A 
ATOM      8  C   UNL     1       0.647   9.835  19.566  0.00  0.00    +0.000 C 
ATOM      9  C   UNL     1      -0.176   9.697  20.851  0.00  0.00    +0.000 C 
ATOM     10  C   UNL     1      -0.006   8.451  21.709  0.00  0.00    +0.000 C 
ATOM     11  C   UNL     1       0.991   7.394  21.265  0.00  0.00    +0.000 C 
ATOM     12  C   UNL     1       2.828   5.333  20.095  0.00  0.00    +0.000 C 
ATOM     13  C   UNL     1       4.044   4.875  19.292  0.00  0.00    +0.000 C 
ATOM     14  O   UNL     1       4.033   5.687  18.103  0.00  0.00    +0.000 OA
ATOM     15  O   UNL     1       3.882   3.467  19.021  0.00  0.00    +0.000 OA
ATOM     16  C   UNL     1       2.681   3.057  19.695  0.00  0.00    +0.000 C 
ATOM     17  C   UNL     1       1.796   4.293  19.675  0.00  0.00    +0.000 C 
ENDROOT
BRANCH  17  18
ATOM     18  O   UNL     1       0.658   4.178  20.518  0.00  0.00    +0.000 OA
ATOM     19  H   UNL     1       0.841   3.546  21.234  0.00  0.00    +0.000 HD
ENDBRANCH  17  18
BRANCH  16  20
ATOM     20  C   UNL     1       2.025   1.827  19.080  0.00  0.00    +0.000 C 
BRANCH  20  21
ATOM     21  O   UNL     1       0.871   2.185  18.324  0.00  0.00    +0.000 OA
ATOM     22  H   UNL     1       1.044   3.055  17.909  0.00  0.00    +0.000 HD
ENDBRANCH  20  21
ENDBRANCH  16  20
TORSDOF 3
ENDMDL
MODEL 5
REMARK VINA RESULT:      -6.7      2.128      5.524
REMARK  Name = 
REMARK  3 active torsions:
REMARK  status: ('A' for Active; 'I' for Inactive)
REMARK    1  A    between atoms: C_16  and  C_17
REMARK    2  A    between atoms: C_17  and  O_18
REMARK    3  A    between atoms: C_19  and  O_20
REMARK                            x       y       z     vdW  Elec       q    Type
REMARK                         _______ _______ _______ _____ _____    ______ ____
ROOT
ATOM      1  O   UNL     1       1.819   3.827  21.789  0.00  0.00    +0.000 OA
ATOM      2  C   UNL     1       2.300   4.138  20.700  0.00  0.00    +0.000 A 
ATOM      3  N   UNL     1       2.969   3.229  19.896  0.00  0.00    +0.000 NA
ATOM      4  C   UNL     1       3.391   3.653  18.765  0.00  0.00    +0.000 A 
ATOM      5  N   UNL     1       3.263   4.916  18.269  0.00  0.00    +0.000 N 
ATOM      6  C   UNL     1       2.644   5.896  19.013  0.00  0.00    +0.000 A 
ATOM      7  C   UNL     1       2.155   5.570  20.217  0.00  0.00    +0.000 A 
ATOM      8  C   UNL     1       1.468   6.531  21.130  0.00  0.00    +0.000 C 
ATOM      9  C   UNL     1       1.346   7.980  20.651  0.00  0.00    +0.000 C 
ATOM     10  C   UNL     1       1.900   8.357  19.284  0.00  0.00    +0.000 C 
ATOM     11  C   UNL     1       2.541   7.271  18.435  0.00  0.00    +0.000 C 
ATOM     12  C   UNL     1       3.966   5.042  17.027  0.00  0.00    +0.000 C 
ATOM     13  C   UNL     1       4.195   3.578  16.652  0.00  0.00    +0.000 C 
ATOM     14  O   UNL     1       4.072   2.853  17.890  0.00  0.00    +0.000 OA
ATOM     15  O   UNL     1       5.510   3.480  16.064  0.00  0.00    +0.000 OA
ATOM     16  C   UNL     1       6.028   4.818  15.996  0.00  0.00    +0.000 C 
ATOM     17  C   UNL     1       5.402   5.527  17.186  0.00  0.00    +0.000 C 
ENDROOT
BRANCH  17  18
ATOM     18  O   UNL     1       5.584   6.936  17.156  0.00  0.00    +0.000 OA
ATOM     19  H   UNL     1       4.773   7.365  16.831  0.00  0.00    +0.000 HD
ENDBRANCH  17  18
BRANCH  16  20
ATOM     20  C   UNL     1       7.550   4.885  15.977  0.00  0.00    +0.000 C 
BRANCH  20  21
ATOM     21  O   UNL     1       8.108   4.157  17.068  0.00  0.00    +0.000 OA
ATOM     22  H   UNL     1       7.573   4.356  17.864  0.00  0.00    +0.000 HD
ENDBRANCH  20  21
ENDBRANCH  16  20
TORSDOF 3
ENDMDL
MODEL 6
REMARK VINA RESULT:      -6.6      3.123      4.643
REMARK  Name = 
REMARK  3 active torsions:
REMARK  status: ('A' for Active; 'I' for Inactive)
REMARK    1  A    between atoms: C_16  and  C_17
REMARK    2  A    between atoms: C_17  and  O_18
REMARK    3  A    between atoms: C_19  and  O_20
REMARK                            x       y       z     vdW  Elec       q    Type
REMARK                         _______ _______ _______ _____ _____    ______ ____
ROOT
ATOM      1  O   UNL     1       2.579   2.465  18.365  0.00  0.00    +0.000 OA
ATOM      2  C   UNL     1       2.608   3.678  18.571  0.00  0.00    +0.000 A 
ATOM      3  N   UNL     1       1.838   4.284  19.551  0.00  0.00    +0.000 NA
ATOM      4  C   UNL     1       1.980   5.546  19.705  0.00  0.00    +0.000 A 
ATOM      5  N   UNL     1       2.804   6.366  18.994  0.00  0.00    +0.000 N 
ATOM      6  C   UNL     1       3.581   5.858  17.975  0.00  0.00    +0.000 A 
ATOM      7  C   UNL     1       3.521   4.544  17.721  0.00  0.00    +0.000 A 
ATOM      8  C   UNL     1       4.301   3.862  16.647  0.00  0.00    +0.000 C 
ATOM      9  C   UNL     1       5.201   4.742  15.775  0.00  0.00    +0.000 C 
ATOM     10  C   UNL     1       5.273   6.237  16.059  0.00  0.00    +0.000 C 
ATOM     11  C   UNL     1       4.457   6.798  17.212  0.00  0.00    +0.000 C 
ATOM     12  C   UNL     1       2.600   7.733  19.371  0.00  0.00    +0.000 C 
ATOM     13  C   UNL     1       1.831   7.580  20.682  0.00  0.00    +0.000 C 
ATOM     14  O   UNL     1       1.269   6.256  20.633  0.00  0.00    +0.000 OA
ATOM     15  O   UNL     1       0.832   8.621  20.725  0.00  0.00    +0.000 OA
ATOM     16  C   UNL     1       1.030   9.426  19.551  0.00  0.00    +0.000 C 
ATOM     17  C   UNL     1       1.567   8.455  18.513  0.00  0.00    +0.000 C 
ENDROOT
BRANCH  17  18
ATOM     18  O   UNL     1       2.072   9.100  17.352  0.00  0.00    +0.000 OA
ATOM     19  H   UNL     1       2.985   9.397  17.512  0.00  0.00    +0.000 HD
ENDBRANCH  17  18
BRANCH  16  20
ATOM     20  C   UNL     1      -0.221  10.169  19.102  0.00  0.00    +0.000 C 
BRANCH  20  21
ATOM     21  O   UNL     1      -0.015  10.805  17.843  0.00  0.00    +0.000 OA
ATOM     22  H   UNL     1      -0.535  10.315  17.172  0.00  0.00    +0.000 HD
ENDBRANCH  20  21
ENDBRANCH  16  20
TORSDOF 3
ENDMDL
MODEL 7
REMARK VINA RESULT:      -6.5      1.910      3.323
REMARK  Name = 
REMARK  3 active torsions:
REMARK  status: ('A' for Active; 'I' for Inactive)
REMARK    1  A    between atoms: C_16  and  C_17
REMARK    2  A    between atoms: C_17  and  O_18
REMARK    3  A    between atoms: C_19  and  O_20
REMARK                            x       y       z     vdW  Elec       q    Type
REMARK                         _______ _______ _______ _____ _____    ______ ____
ROOT
ATOM      1  O   UNL     1       6.028   5.842  14.675  0.00  0.00    +0.000 OA
ATOM      2  C   UNL     1       5.666   5.259  15.696  0.00  0.00    +0.000 A 
ATOM      3  N   UNL     1       4.661   4.304  15.689  0.00  0.00    +0.000 NA
ATOM      4  C   UNL     1       4.396   3.733  16.803  0.00  0.00    +0.000 A 
ATOM      5  N   UNL     1       4.991   3.974  18.005  0.00  0.00    +0.000 N 
ATOM      6  C   UNL     1       5.975   4.932  18.114  0.00  0.00    +0.000 A 
ATOM      7  C   UNL     1       6.344   5.597  17.012  0.00  0.00    +0.000 A 
ATOM      8  C   UNL     1       7.389   6.662  16.986  0.00  0.00    +0.000 C 
ATOM      9  C   UNL     1       8.052   7.018  18.320  0.00  0.00    +0.000 C 
ATOM     10  C   UNL     1       7.637   6.265  19.577  0.00  0.00    +0.000 C 
ATOM     11  C   UNL     1       6.588   5.173  19.456  0.00  0.00    +0.000 C 
ATOM     12  C   UNL     1       4.345   3.227  19.044  0.00  0.00    +0.000 C 
ATOM     13  C   UNL     1       3.543   2.206  18.238  0.00  0.00    +0.000 C 
ATOM     14  O   UNL     1       3.420   2.782  16.924  0.00  0.00    +0.000 OA
ATOM     15  O   UNL     1       2.274   2.028  18.901  0.00  0.00    +0.000 OA
ATOM     16  C   UNL     1       2.322   2.823  20.097  0.00  0.00    +0.000 C 
ATOM     17  C   UNL     1       3.223   3.993  19.737  0.00  0.00    +0.000 C 
ENDROOT
BRANCH  17  18
ATOM     18  O   UNL     1       3.610   4.768  20.863  0.00  0.00    +0.000 OA
ATOM     19  H   UNL     1       3.333   4.320  21.681  0.00  0.00    +0.000 HD
ENDBRANCH  17  18
BRANCH  16  20
ATOM     20  C   UNL     1       0.950   3.244  20.607  0.00  0.00    +0.000 C 
BRANCH  20  21
ATOM     21  O   UNL     1      -0.082   2.798  19.730  0.00  0.00    +0.000 OA
ATOM     22  H   UNL     1      -0.455   3.586  19.284  0.00  0.00    +0.000 HD
ENDBRANCH  20  21
ENDBRANCH  16  20
TORSDOF 3
ENDMDL
MODEL 8
REMARK VINA RESULT:      -6.3      1.959      5.328
REMARK  Name = 
REMARK  3 active torsions:
REMARK  status: ('A' for Active; 'I' for Inactive)
REMARK    1  A    between atoms: C_16  and  C_17
REMARK    2  A    between atoms: C_17  and  O_18
REMARK    3  A    between atoms: C_19  and  O_20
REMARK                            x       y       z     vdW  Elec       q    Type
REMARK                         _______ _______ _______ _____ _____    ______ ____
ROOT
ATOM      1  O   UNL     1       1.881   6.389  20.372  0.00  0.00    +0.000 OA
ATOM      2  C   UNL     1       2.748   5.820  19.710  0.00  0.00    +0.000 A 
ATOM      3  N   UNL     1       3.962   6.416  19.407  0.00  0.00    +0.000 NA
ATOM      4  C   UNL     1       4.805   5.715  18.747  0.00  0.00    +0.000 A 
ATOM      5  N   UNL     1       4.630   4.442  18.296  0.00  0.00    +0.000 N 
ATOM      6  C   UNL     1       3.441   3.782  18.519  0.00  0.00    +0.000 A 
ATOM      7  C   UNL     1       2.479   4.414  19.205  0.00  0.00    +0.000 A 
ATOM      8  C   UNL     1       1.143   3.823  19.513  0.00  0.00    +0.000 C 
ATOM      9  C   UNL     1       0.866   2.414  18.981  0.00  0.00    +0.000 C 
ATOM     10  C   UNL     1       1.955   1.691  18.200  0.00  0.00    +0.000 C 
ATOM     11  C   UNL     1       3.288   2.392  17.992  0.00  0.00    +0.000 C 
ATOM     12  C   UNL     1       5.746   4.034  17.495  0.00  0.00    +0.000 C 
ATOM     13  C   UNL     1       6.789   5.090  17.858  0.00  0.00    +0.000 C 
ATOM     14  O   UNL     1       6.032   6.197  18.382  0.00  0.00    +0.000 OA
ATOM     15  O   UNL     1       7.516   5.416  16.655  0.00  0.00    +0.000 OA
ATOM     16  C   UNL     1       7.013   4.549  15.626  0.00  0.00    +0.000 C 
ATOM     17  C   UNL     1       5.561   4.311  16.007  0.00  0.00    +0.000 C 
ENDROOT
BRANCH  17  18
ATOM     18  O   UNL     1       4.949   3.271  15.258  0.00  0.00    +0.000 OA
ATOM     19  H   UNL     1       5.016   2.432  15.745  0.00  0.00    +0.000 HD
ENDBRANCH  17  18
BRANCH  16  20
ATOM     20  C   UNL     1       7.192   5.103  14.218  0.00  0.00    +0.000 C 
BRANCH  20  21
ATOM     21  O   UNL     1       6.708   4.185  13.241  0.00  0.00    +0.000 OA
ATOM     22  H   UNL     1       5.940   4.600  12.796  0.00  0.00    +0.000 HD
ENDBRANCH  20  21
ENDBRANCH  16  20
TORSDOF 3
ENDMDL
MODEL 9
REMARK VINA RESULT:      -6.1      3.254      5.437
REMARK  Name = 
REMARK  3 active torsions:
REMARK  status: ('A' for Active; 'I' for Inactive)
REMARK    1  A    between atoms: C_16  and  C_17
REMARK    2  A    between atoms: C_17  and  O_18
REMARK    3  A    between atoms: C_19  and  O_20
REMARK                            x       y       z     vdW  Elec       q    Type
REMARK                         _______ _______ _______ _____ _____    ______ ____
ROOT
ATOM      1  O   UNL     1       5.896   4.099  18.765  0.00  0.00    +0.000 OA
ATOM      2  C   UNL     1       4.894   4.811  18.821  0.00  0.00    +0.000 A 
ATOM      3  N   UNL     1       4.818   6.038  18.181  0.00  0.00    +0.000 NA
ATOM      4  C   UNL     1       3.711   6.674  18.273  0.00  0.00    +0.000 A 
ATOM      5  N   UNL     1       2.597   6.276  18.949  0.00  0.00    +0.000 N 
ATOM      6  C   UNL     1       2.593   5.087  19.645  0.00  0.00    +0.000 A 
ATOM      7  C   UNL     1       3.697   4.329  19.620  0.00  0.00    +0.000 A 
ATOM      8  C   UNL     1       3.833   3.024  20.332  0.00  0.00    +0.000 C 
ATOM      9  C   UNL     1       2.633   2.553  21.158  0.00  0.00    +0.000 C 
ATOM     10  C   UNL     1       1.375   3.411  21.191  0.00  0.00    +0.000 C 
ATOM     11  C   UNL     1       1.353   4.700  20.386  0.00  0.00    +0.000 C 
ATOM     12  C   UNL     1       1.601   7.306  18.925  0.00  0.00    +0.000 C 
ATOM     13  C   UNL     1       2.118   8.210  17.807  0.00  0.00    +0.000 C 
ATOM     14  O   UNL     1       3.519   7.897  17.692  0.00  0.00    +0.000 OA
ATOM     15  O   UNL     1       1.871   9.576  18.202  0.00  0.00    +0.000 OA
ATOM     16  C   UNL     1       1.162   9.518  19.450  0.00  0.00    +0.000 C 
ATOM     17  C   UNL     1       1.672   8.252  20.118  0.00  0.00    +0.000 C 
ENDROOT
BRANCH  17  18
ATOM     18  O   UNL     1       0.909   7.871  21.253  0.00  0.00    +0.000 OA
ATOM     19  H   UNL     1       0.096   7.420  20.966  0.00  0.00    +0.000 HD
ENDBRANCH  17  18
BRANCH  16  20
ATOM     20  C   UNL     1       1.326  10.768  20.305  0.00  0.00    +0.000 C 
BRANCH  20  21
ATOM     21  O   UNL     1       0.879  10.539  21.639  0.00  0.00    +0.000 OA
ATOM     22  H   UNL     1       1.161   9.638  21.897  0.00  0.00    +0.000 HD
ENDBRANCH  20  21
ENDBRANCH  16  20
TORSDOF 3
ENDMDL
