MODEL 1
REMARK VINA RESULT:      -6.9      0.000      0.000
REMARK  Name = 
REMARK  11 active torsions:
REMARK  status: ('A' for Active; 'I' for Inactive)
REMARK    1  A    between atoms: C_1  and  C_2
REMARK    2  A    between atoms: C_2  and  C_3
REMARK    3  A    between atoms: C_3  and  C_4
REMARK    4  A    between atoms: C_4  and  C_5
REMARK    5  A    between atoms: C_5  and  S_6
REMARK    6  A    between atoms: S_6  and  N_9
REMARK    7  A    between atoms: N_9  and  C_10
REMARK    8  A    between atoms: C_10  and  C_11
REMARK    9  A    between atoms: C_16  and  C_17
REMARK   10  A    between atoms: C_17  and  C_18
REMARK   11  A    between atoms: C_18  and  O_20
REMARK                            x       y       z     vdW  Elec       q    Type
REMARK                         _______ _______ _______ _____ _____    ______ ____
ROOT
ATOM      1  C   UNL     1       2.438   6.889  18.822  0.00  0.00    +0.000 C 
ATOM      2  C   UNL     1       2.127   7.382  20.248  0.00  0.00    +0.000 C 
ATOM      3  C   UNL     1       1.223   8.544  19.956  0.00  0.00    +0.000 A 
ATOM      4  C   UNL     1       0.357   9.176  20.828  0.00  0.00    +0.000 A 
ATOM      5  C   UNL     1      -0.378  10.274  20.371  0.00  0.00    +0.000 A 
ATOM      6  C   UNL     1      -0.235  10.761  19.052  0.00  0.00    +0.000 A 
ATOM      7  C   UNL     1       0.660  10.101  18.181  0.00  0.00    +0.000 A 
ATOM      8  C   UNL     1       1.371   8.996  18.644  0.00  0.00    +0.000 A 
ATOM      9  C   UNL     1       2.394   8.162  17.929  0.00  0.00    +0.000 C 
ENDROOT
BRANCH   1  10
ATOM     10  C   UNL     1       3.752   6.138  18.636  0.00  0.00    +0.000 C 
BRANCH  10  11
ATOM     11  N   UNL     1       3.967   5.040  19.618  0.00  0.00    +0.000 NA
ATOM     12  H   UNL     1       4.491   5.329  20.445  0.00  0.00    +0.000 HD
BRANCH  11  13
ATOM     13  S   UNL     1       4.693   3.662  18.893  0.00  0.00    +0.000 S 
ATOM     14  O   UNL     1       4.959   2.721  19.950  0.00  0.00    +0.000 OA
ATOM     15  O   UNL     1       5.746   4.140  18.006  0.00  0.00    +0.000 OA
BRANCH  13  16
ATOM     16  C   UNL     1       3.355   3.011  17.897  0.00  0.00    +0.000 C 
BRANCH  16  17
ATOM     17  C   UNL     1       2.387   2.251  18.801  0.00  0.00    +0.000 C 
BRANCH  17  18
ATOM     18  C   UNL     1       1.009   2.901  18.866  0.00  0.00    +0.000 C 
BRANCH  18  20
ATOM     19  C   UNL     1       1.487   2.935  21.339  0.00  0.00    +0.000 C 
ATOM     20  C   UNL     1       0.839   3.670  20.178  0.00  0.00    +0.000 C 
ENDBRANCH  18  20
ENDBRANCH  17  18
ENDBRANCH  16  17
ENDBRANCH  13  16
ENDBRANCH  11  13
ENDBRANCH  10  11
ENDBRANCH   1  10
BRANCH   6  21
ATOM     21  C   UNL     1      -1.050  11.956  18.558  0.00  0.00    +0.000 C 
BRANCH  21  22
ATOM     22  C   UNL     1      -2.281  11.661  17.723  0.00  0.00    +0.000 C 
ATOM     23  O   UNL     1      -3.331  11.217  18.191  0.00  0.00    +0.000 OA
BRANCH  22  24
ATOM     24  O   UNL     1      -2.124  11.828  16.386  0.00  0.00    +0.000 OA
ATOM     25  H   UNL     1      -2.099  10.977  15.904  0.00  0.00    +0.000 HD
ENDBRANCH  22  24
ENDBRANCH  21  22
ENDBRANCH   6  21
TORSDOF 10
ENDMDL
MODEL 2
REMARK VINA RESULT:      -6.9      3.293      7.970
REMARK  Name = 
REMARK  11 active torsions:
REMARK  status: ('A' for Active; 'I' for Inactive)
REMARK    1  A    between atoms: C_1  and  C_2
REMARK    2  A    between atoms: C_2  and  C_3
REMARK    3  A    between atoms: C_3  and  C_4
REMARK    4  A    between atoms: C_4  and  C_5
REMARK    5  A    between atoms: C_5  and  S_6
REMARK    6  A    between atoms: S_6  and  N_9
REMARK    7  A    between atoms: N_9  and  C_10
REMARK    8  A    between atoms: C_10  and  C_11
REMARK    9  A    between atoms: C_16  and  C_17
REMARK   10  A    between atoms: C_17  and  C_18
REMARK   11  A    between atoms: C_18  and  O_20
REMARK                            x       y       z     vdW  Elec       q    Type
REMARK                         _______ _______ _______ _____ _____    ______ ____
ROOT
ATOM      1  C   UNL     1       2.435   6.554  19.991  0.00  0.00    +0.000 C 
ATOM      2  C   UNL     1       2.123   5.066  19.743  0.00  0.00    +0.000 C 
ATOM      3  C   UNL     1       3.074   4.758  18.624  0.00  0.00    +0.000 A 
ATOM      4  C   UNL     1       3.499   3.513  18.200  0.00  0.00    +0.000 A 
ATOM      5  C   UNL     1       4.366   3.434  17.106  0.00  0.00    +0.000 A 
ATOM      6  C   UNL     1       4.793   4.591  16.416  0.00  0.00    +0.000 A 
ATOM      7  C   UNL     1       4.341   5.851  16.866  0.00  0.00    +0.000 A 
ATOM      8  C   UNL     1       3.493   5.917  17.970  0.00  0.00    +0.000 A 
ATOM      9  C   UNL     1       2.859   7.120  18.605  0.00  0.00    +0.000 C 
ENDROOT
BRANCH   1  10
ATOM     10  C   UNL     1       1.315   7.389  20.601  0.00  0.00    +0.000 C 
BRANCH  10  11
ATOM     11  N   UNL     1       1.772   8.353  21.640  0.00  0.00    +0.000 NA
ATOM     12  H   UNL     1       2.300   7.916  22.397  0.00  0.00    +0.000 HD
BRANCH  11  13
ATOM     13  S   UNL     1       0.475   9.287  22.267  0.00  0.00    +0.000 S 
ATOM     14  O   UNL     1       0.847   9.684  23.601  0.00  0.00    +0.000 OA
ATOM     15  O   UNL     1      -0.758   8.557  21.998  0.00  0.00    +0.000 OA
BRANCH  13  16
ATOM     16  C   UNL     1       0.520  10.743  21.225  0.00  0.00    +0.000 C 
BRANCH  16  17
ATOM     17  C   UNL     1      -0.714  10.748  20.326  0.00  0.00    +0.000 C 
BRANCH  17  18
ATOM     18  C   UNL     1      -0.367  10.586  18.850  0.00  0.00    +0.000 C 
BRANCH  18  20
ATOM     19  C   UNL     1      -2.149   9.880  17.216  0.00  0.00    +0.000 C 
ATOM     20  C   UNL     1      -1.531  11.045  17.970  0.00  0.00    +0.000 C 
ENDBRANCH  18  20
ENDBRANCH  17  18
ENDBRANCH  16  17
ENDBRANCH  13  16
ENDBRANCH  11  13
ENDBRANCH  10  11
ENDBRANCH   1  10
BRANCH   6  21
ATOM     21  C   UNL     1       5.748   4.495  15.227  0.00  0.00    +0.000 C 
BRANCH  21  22
ATOM     22  C   UNL     1       7.214   4.788  15.487  0.00  0.00    +0.000 C 
ATOM     23  O   UNL     1       7.797   4.472  16.526  0.00  0.00    +0.000 OA
BRANCH  22  24
ATOM     24  O   UNL     1       7.834   5.518  14.528  0.00  0.00    +0.000 OA
ATOM     25  H   UNL     1       7.896   6.466  14.761  0.00  0.00    +0.000 HD
ENDBRANCH  22  24
ENDBRANCH  21  22
ENDBRANCH   6  21
TORSDOF 10
ENDMDL
MODEL 3
REMARK VINA RESULT:      -6.9      3.087      7.812
REMARK  Name = 
REMARK  11 active torsions:
REMARK  status: ('A' for Active; 'I' for Inactive)
REMARK    1  A    between atoms: C_1  and  C_2
REMARK    2  A    between atoms: C_2  and  C_3
REMARK    3  A    between atoms: C_3  and  C_4
REMARK    4  A    between atoms: C_4  and  C_5
REMARK    5  A    between atoms: C_5  and  S_6
REMARK    6  A    between atoms: S_6  and  N_9
REMARK    7  A    between atoms: N_9  and  C_10
REMARK    8  A    between atoms: C_10  and  C_11
REMARK    9  A    between atoms: C_16  and  C_17
REMARK   10  A    between atoms: C_17  and  C_18
REMARK   11  A    between atoms: C_18  and  O_20
REMARK                            x       y       z     vdW  Elec       q    Type
REMARK                         _______ _______ _______ _____ _____    ______ ____
ROOT
ATOM      1  C   UNL     1       2.154   5.569  20.335  0.00  0.00    +0.000 C 
ATOM      2  C   UNL     1       1.445   4.565  19.406  0.00  0.00    +0.000 C 
ATOM      3  C   UNL     1       2.549   4.243  18.441  0.00  0.00    +0.000 A 
ATOM      4  C   UNL     1       2.629   3.160  17.586  0.00  0.00    +0.000 A 
ATOM      5  C   UNL     1       3.729   3.057  16.731  0.00  0.00    +0.000 A 
ATOM      6  C   UNL     1       4.741   4.044  16.706  0.00  0.00    +0.000 A 
ATOM      7  C   UNL     1       4.634   5.143  17.585  0.00  0.00    +0.000 A 
ATOM      8  C   UNL     1       3.542   5.223  18.447  0.00  0.00    +0.000 A 
ATOM      9  C   UNL     1       3.192   6.298  19.434  0.00  0.00    +0.000 C 
ENDROOT
BRANCH   1  10
ATOM     10  C   UNL     1       1.260   6.572  21.056  0.00  0.00    +0.000 C 
BRANCH  10  11
ATOM     11  N   UNL     1       1.781   7.967  21.048  0.00  0.00    +0.000 NA
ATOM     12  H   UNL     1       2.720   8.052  21.439  0.00  0.00    +0.000 HD
BRANCH  11  13
ATOM     13  S   UNL     1       0.703   9.061  21.815  0.00  0.00    +0.000 S 
ATOM     14  O   UNL     1       1.298   9.425  23.075  0.00  0.00    +0.000 OA
ATOM     15  O   UNL     1      -0.634   8.486  21.733  0.00  0.00    +0.000 OA
BRANCH  13  16
ATOM     16  C   UNL     1       0.781  10.488  20.735  0.00  0.00    +0.000 C 
BRANCH  16  17
ATOM     17  C   UNL     1      -0.393  10.438  19.760  0.00  0.00    +0.000 C 
BRANCH  17  18
ATOM     18  C   UNL     1       0.005   9.906  18.387  0.00  0.00    +0.000 C 
BRANCH  18  20
ATOM     19  C   UNL     1       2.144   8.834  17.601  0.00  0.00    +0.000 C 
ATOM     20  C   UNL     1       1.504  10.097  18.150  0.00  0.00    +0.000 C 
ENDBRANCH  18  20
ENDBRANCH  17  18
ENDBRANCH  16  17
ENDBRANCH  13  16
ENDBRANCH  11  13
ENDBRANCH  10  11
ENDBRANCH   1  10
BRANCH   6  21
ATOM     21  C   UNL     1       5.945   3.917  15.774  0.00  0.00    +0.000 C 
BRANCH  21  22
ATOM     22  C   UNL     1       7.187   4.713  16.130  0.00  0.00    +0.000 C 
ATOM     23  O   UNL     1       7.495   5.775  15.586  0.00  0.00    +0.000 OA
BRANCH  22  24
ATOM     24  O   UNL     1       8.006   4.126  17.038  0.00  0.00    +0.000 OA
ATOM     25  H   UNL     1       8.737   4.714  17.315  0.00  0.00    +0.000 HD
ENDBRANCH  22  24
ENDBRANCH  21  22
ENDBRANCH   6  21
TORSDOF 10
ENDMDL
MODEL 4
REMARK VINA RESULT:      -6.8      3.415      4.933
REMARK  Name = 
REMARK  11 active torsions:
REMARK  status: ('A' for Active; 'I' for Inactive)
REMARK    1  A    between atoms: C_1  and  C_2
REMARK    2  A    between atoms: C_2  and  C_3
REMARK    3  A    between atoms: C_3  and  C_4
REMARK    4  A    between atoms: C_4  and  C_5
REMARK    5  A    between atoms: C_5  and  S_6
REMARK    6  A    between atoms: S_6  and  N_9
REMARK    7  A    between atoms: N_9  and  C_10
REMARK    8  A    between atoms: C_10  and  C_11
REMARK    9  A    between atoms: C_16  and  C_17
REMARK   10  A    between atoms: C_17  and  C_18
REMARK   11  A    between atoms: C_18  and  O_20
REMARK                            x       y       z     vdW  Elec       q    Type
REMARK                         _______ _______ _______ _____ _____    ______ ____
ROOT
ATOM      1  C   UNL     1       3.818   6.436  18.215  0.00  0.00    +0.000 C 
ATOM      2  C   UNL     1       2.959   7.496  17.499  0.00  0.00    +0.000 C 
ATOM      3  C   UNL     1       2.197   8.073  18.656  0.00  0.00    +0.000 A 
ATOM      4  C   UNL     1       1.521   9.278  18.700  0.00  0.00    +0.000 A 
ATOM      5  C   UNL     1       0.835   9.622  19.869  0.00  0.00    +0.000 A 
ATOM      6  C   UNL     1       0.798   8.758  20.986  0.00  0.00    +0.000 A 
ATOM      7  C   UNL     1       1.492   7.530  20.913  0.00  0.00    +0.000 A 
ATOM      8  C   UNL     1       2.189   7.208  19.750  0.00  0.00    +0.000 A 
ATOM      9  C   UNL     1       2.961   5.964  19.424  0.00  0.00    +0.000 C 
ENDROOT
BRANCH   1  10
ATOM     10  C   UNL     1       4.272   5.249  17.371  0.00  0.00    +0.000 C 
BRANCH  10  11
ATOM     11  N   UNL     1       5.670   4.814  17.639  0.00  0.00    +0.000 NA
ATOM     12  H   UNL     1       6.001   5.058  18.574  0.00  0.00    +0.000 HD
BRANCH  11  13
ATOM     13  S   UNL     1       6.762   5.384  16.442  0.00  0.00    +0.000 S 
ATOM     14  O   UNL     1       7.869   4.463  16.409  0.00  0.00    +0.000 OA
ATOM     15  O   UNL     1       6.954   6.810  16.671  0.00  0.00    +0.000 OA
BRANCH  13  16
ATOM     16  C   UNL     1       5.818   5.166  14.936  0.00  0.00    +0.000 C 
BRANCH  16  17
ATOM     17  C   UNL     1       6.214   3.841  14.289  0.00  0.00    +0.000 C 
BRANCH  17  18
ATOM     18  C   UNL     1       6.359   3.946  12.774  0.00  0.00    +0.000 C 
BRANCH  18  20
ATOM     19  C   UNL     1       4.343   3.304  11.407  0.00  0.00    +0.000 C 
ATOM     20  C   UNL     1       5.609   2.806  12.082  0.00  0.00    +0.000 C 
ENDBRANCH  18  20
ENDBRANCH  17  18
ENDBRANCH  16  17
ENDBRANCH  13  16
ENDBRANCH  11  13
ENDBRANCH  10  11
ENDBRANCH   1  10
BRANCH   6  21
ATOM     21  C   UNL     1       0.053   9.147  22.262  0.00  0.00    +0.000 C 
BRANCH  21  22
ATOM     22  C   UNL     1      -0.334  10.605  22.424  0.00  0.00    +0.000 C 
ATOM     23  O   UNL     1       0.375  11.543  22.056  0.00  0.00    +0.000 OA
BRANCH  22  24
ATOM     24  O   UNL     1      -1.491  10.822  23.097  0.00  0.00    +0.000 OA
ATOM     25  H   UNL     1      -2.002   9.999  23.236  0.00  0.00    +0.000 HD
ENDBRANCH  22  24
ENDBRANCH  21  22
ENDBRANCH   6  21
TORSDOF 10
ENDMDL
MODEL 5
REMARK VINA RESULT:      -6.7      3.192      8.006
REMARK  Name = 
REMARK  11 active torsions:
REMARK  status: ('A' for Active; 'I' for Inactive)
REMARK    1  A    between atoms: C_1  and  C_2
REMARK    2  A    between atoms: C_2  and  C_3
REMARK    3  A    between atoms: C_3  and  C_4
REMARK    4  A    between atoms: C_4  and  C_5
REMARK    5  A    between atoms: C_5  and  S_6
REMARK    6  A    between atoms: S_6  and  N_9
REMARK    7  A    between atoms: N_9  and  C_10
REMARK    8  A    between atoms: C_10  and  C_11
REMARK    9  A    between atoms: C_16  and  C_17
REMARK   10  A    between atoms: C_17  and  C_18
REMARK   11  A    between atoms: C_18  and  O_20
REMARK                            x       y       z     vdW  Elec       q    Type
REMARK                         _______ _______ _______ _____ _____    ______ ____
ROOT
ATOM      1  C   UNL     1       2.306   6.871  20.312  0.00  0.00    +0.000 C 
ATOM      2  C   UNL     1       2.031   5.355  20.323  0.00  0.00    +0.000 C 
ATOM      3  C   UNL     1       2.971   4.888  19.251  0.00  0.00    +0.000 A 
ATOM      4  C   UNL     1       3.424   3.600  19.031  0.00  0.00    +0.000 A 
ATOM      5  C   UNL     1       4.274   3.360  17.948  0.00  0.00    +0.000 A 
ATOM      6  C   UNL     1       4.656   4.396  17.065  0.00  0.00    +0.000 A 
ATOM      7  C   UNL     1       4.177   5.702  17.308  0.00  0.00    +0.000 A 
ATOM      8  C   UNL     1       3.347   5.931  18.404  0.00  0.00    +0.000 A 
ATOM      9  C   UNL     1       2.690   7.207  18.843  0.00  0.00    +0.000 C 
ENDROOT
BRANCH   1  10
ATOM     10  C   UNL     1       1.173   7.768  20.798  0.00  0.00    +0.000 C 
BRANCH  10  11
ATOM     11  N   UNL     1       1.542   8.646  21.943  0.00  0.00    +0.000 NA
ATOM     12  H   UNL     1       1.493   8.178  22.848  0.00  0.00    +0.000 HD
BRANCH  11  13
ATOM     13  S   UNL     1       0.626  10.099  21.961  0.00  0.00    +0.000 S 
ATOM     14  O   UNL     1       1.492  11.149  21.491  0.00  0.00    +0.000 OA
ATOM     15  O   UNL     1      -0.044  10.175  23.253  0.00  0.00    +0.000 OA
BRANCH  13  16
ATOM     16  C   UNL     1      -0.602   9.786  20.695  0.00  0.00    +0.000 C 
BRANCH  16  17
ATOM     17  C   UNL     1      -0.403  10.782  19.554  0.00  0.00    +0.000 C 
BRANCH  17  18
ATOM     18  C   UNL     1      -0.454  10.120  18.181  0.00  0.00    +0.000 C 
BRANCH  18  20
ATOM     19  C   UNL     1      -2.416  11.363  17.207  0.00  0.00    +0.000 C 
ATOM     20  C   UNL     1      -1.897  10.018  17.686  0.00  0.00    +0.000 C 
ENDBRANCH  18  20
ENDBRANCH  17  18
ENDBRANCH  16  17
ENDBRANCH  13  16
ENDBRANCH  11  13
ENDBRANCH  10  11
ENDBRANCH   1  10
BRANCH   6  21
ATOM     21  C   UNL     1       5.594   4.126  15.889  0.00  0.00    +0.000 C 
BRANCH  21  22
ATOM     22  C   UNL     1       6.997   4.699  15.972  0.00  0.00    +0.000 C 
ATOM     23  O   UNL     1       7.425   5.563  15.205  0.00  0.00    +0.000 OA
BRANCH  22  24
ATOM     24  O   UNL     1       7.799   4.124  16.901  0.00  0.00    +0.000 OA
ATOM     25  H   UNL     1       7.670   4.506  17.793  0.00  0.00    +0.000 HD
ENDBRANCH  22  24
ENDBRANCH  21  22
ENDBRANCH   6  21
TORSDOF 10
ENDMDL
MODEL 6
REMARK VINA RESULT:      -6.6      2.195      2.454
REMARK  Name = 
REMARK  11 active torsions:
REMARK  status: ('A' for Active; 'I' for Inactive)
REMARK    1  A    between atoms: C_1  and  C_2
REMARK    2  A    between atoms: C_2  and  C_3
REMARK    3  A    between atoms: C_3  and  C_4
REMARK    4  A    between atoms: C_4  and  C_5
REMARK    5  A    between atoms: C_5  and  S_6
REMARK    6  A    between atoms: S_6  and  N_9
REMARK    7  A    between atoms: N_9  and  C_10
REMARK    8  A    between atoms: C_10  and  C_11
REMARK    9  A    between atoms: C_16  and  C_17
REMARK   10  A    between atoms: C_17  and  C_18
REMARK   11  A    between atoms: C_18  and  O_20
REMARK                            x       y       z     vdW  Elec       q    Type
REMARK                         _______ _______ _______ _____ _____    ______ ____
ROOT
ATOM      1  C   UNL     1       2.709   7.023  18.100  0.00  0.00    +0.000 C 
ATOM      2  C   UNL     1       2.689   6.774  19.620  0.00  0.00    +0.000 C 
ATOM      3  C   UNL     1       1.735   7.843  20.070  0.00  0.00    +0.000 A 
ATOM      4  C   UNL     1       1.058   7.913  21.273  0.00  0.00    +0.000 A 
ATOM      5  C   UNL     1       0.237   9.017  21.520  0.00  0.00    +0.000 A 
ATOM      6  C   UNL     1       0.107  10.066  20.581  0.00  0.00    +0.000 A 
ATOM      7  C   UNL     1       0.814   9.973  19.362  0.00  0.00    +0.000 A 
ATOM      8  C   UNL     1       1.612   8.857  19.120  0.00  0.00    +0.000 A 
ATOM      9  C   UNL     1       2.476   8.552  17.932  0.00  0.00    +0.000 C 
ENDROOT
BRANCH   1  10
ATOM     10  C   UNL     1       3.965   6.578  17.358  0.00  0.00    +0.000 C 
BRANCH  10  11
ATOM     11  N   UNL     1       5.058   6.099  18.248  0.00  0.00    +0.000 NA
ATOM     12  H   UNL     1       5.875   6.710  18.255  0.00  0.00    +0.000 HD
BRANCH  11  13
ATOM     13  S   UNL     1       5.515   4.482  17.892  0.00  0.00    +0.000 S 
ATOM     14  O   UNL     1       6.852   4.301  18.395  0.00  0.00    +0.000 OA
ATOM     15  O   UNL     1       5.177   4.230  16.497  0.00  0.00    +0.000 OA
BRANCH  13  16
ATOM     16  C   UNL     1       4.402   3.538  18.932  0.00  0.00    +0.000 C 
BRANCH  16  17
ATOM     17  C   UNL     1       3.428   2.768  18.044  0.00  0.00    +0.000 C 
BRANCH  17  18
ATOM     18  C   UNL     1       2.076   3.462  17.914  0.00  0.00    +0.000 C 
BRANCH  18  20
ATOM     19  C   UNL     1       0.883   3.607  20.127  0.00  0.00    +0.000 C 
ATOM     20  C   UNL     1       1.047   2.814  18.841  0.00  0.00    +0.000 C 
ENDBRANCH  18  20
ENDBRANCH  17  18
ENDBRANCH  16  17
ENDBRANCH  13  16
ENDBRANCH  11  13
ENDBRANCH  10  11
ENDBRANCH   1  10
BRANCH   6  21
ATOM     21  C   UNL     1      -0.800  11.265  20.856  0.00  0.00    +0.000 C 
BRANCH  21  22
ATOM     22  C   UNL     1      -0.377  12.219  21.957  0.00  0.00    +0.000 C 
ATOM     23  O   UNL     1      -0.726  12.099  23.133  0.00  0.00    +0.000 OA
BRANCH  22  24
ATOM     24  O   UNL     1       0.347  13.289  21.545  0.00  0.00    +0.000 OA
ATOM     25  H   UNL     1       0.261  13.450  20.584  0.00  0.00    +0.000 HD
ENDBRANCH  22  24
ENDBRANCH  21  22
ENDBRANCH   6  21
TORSDOF 10
ENDMDL
MODEL 7
REMARK VINA RESULT:      -6.5      3.181      4.775
REMARK  Name = 
REMARK  11 active torsions:
REMARK  status: ('A' for Active; 'I' for Inactive)
REMARK    1  A    between atoms: C_1  and  C_2
REMARK    2  A    between atoms: C_2  and  C_3
REMARK    3  A    between atoms: C_3  and  C_4
REMARK    4  A    between atoms: C_4  and  C_5
REMARK    5  A    between atoms: C_5  and  S_6
REMARK    6  A    between atoms: S_6  and  N_9
REMARK    7  A    between atoms: N_9  and  C_10
REMARK    8  A    between atoms: C_10  and  C_11
REMARK    9  A    between atoms: C_16  and  C_17
REMARK   10  A    between atoms: C_17  and  C_18
REMARK   11  A    between atoms: C_18  and  O_20
REMARK                            x       y       z     vdW  Elec       q    Type
REMARK                         _______ _______ _______ _____ _____    ______ ____
ROOT
ATOM      1  C   UNL     1       4.251   5.665  19.088  0.00  0.00    +0.000 C 
ATOM      2  C   UNL     1       3.705   6.326  17.808  0.00  0.00    +0.000 C 
ATOM      3  C   UNL     1       2.753   7.330  18.391  0.00  0.00    +0.000 A 
ATOM      4  C   UNL     1       2.217   8.441  17.768  0.00  0.00    +0.000 A 
ATOM      5  C   UNL     1       1.311   9.238  18.474  0.00  0.00    +0.000 A 
ATOM      6  C   UNL     1       0.917   8.917  19.793  0.00  0.00    +0.000 A 
ATOM      7  C   UNL     1       1.474   7.773  20.405  0.00  0.00    +0.000 A 
ATOM      8  C   UNL     1       2.392   7.000  19.697  0.00  0.00    +0.000 A 
ATOM      9  C   UNL     1       3.084   5.736  20.115  0.00  0.00    +0.000 C 
ENDROOT
BRANCH   1  10
ATOM     10  C   UNL     1       4.766   4.236  18.946  0.00  0.00    +0.000 C 
BRANCH  10  11
ATOM     11  N   UNL     1       5.690   4.036  17.796  0.00  0.00    +0.000 NA
ATOM     12  H   UNL     1       5.885   3.055  17.596  0.00  0.00    +0.000 HD
BRANCH  11  13
ATOM     13  S   UNL     1       7.152   4.918  17.985  0.00  0.00    +0.000 S 
ATOM     14  O   UNL     1       8.233   3.991  17.774  0.00  0.00    +0.000 OA
ATOM     15  O   UNL     1       7.035   5.698  19.210  0.00  0.00    +0.000 OA
BRANCH  13  16
ATOM     16  C   UNL     1       7.102   6.036  16.586  0.00  0.00    +0.000 C 
BRANCH  16  17
ATOM     17  C   UNL     1       6.115   5.496  15.554  0.00  0.00    +0.000 C 
BRANCH  17  18
ATOM     18  C   UNL     1       6.806   4.788  14.393  0.00  0.00    +0.000 C 
BRANCH  18  20
ATOM     19  C   UNL     1       6.404   3.497  12.269  0.00  0.00    +0.000 C 
ATOM     20  C   UNL     1       5.792   3.996  13.566  0.00  0.00    +0.000 C 
ENDBRANCH  18  20
ENDBRANCH  17  18
ENDBRANCH  16  17
ENDBRANCH  13  16
ENDBRANCH  11  13
ENDBRANCH  10  11
ENDBRANCH   1  10
BRANCH   6  21
ATOM     21  C   UNL     1      -0.067   9.800  20.560  0.00  0.00    +0.000 C 
BRANCH  21  22
ATOM     22  C   UNL     1       0.509  10.743  21.599  0.00  0.00    +0.000 C 
ATOM     23  O   UNL     1       1.340  11.615  21.340  0.00  0.00    +0.000 OA
BRANCH  22  24
ATOM     24  O   UNL     1       0.116  10.503  22.875  0.00  0.00    +0.000 OA
ATOM     25  H   UNL     1       0.785  10.786  23.530  0.00  0.00    +0.000 HD
ENDBRANCH  22  24
ENDBRANCH  21  22
ENDBRANCH   6  21
TORSDOF 10
ENDMDL
MODEL 8
REMARK VINA RESULT:      -6.5      1.087      1.311
REMARK  Name = 
REMARK  11 active torsions:
REMARK  status: ('A' for Active; 'I' for Inactive)
REMARK    1  A    between atoms: C_1  and  C_2
REMARK    2  A    between atoms: C_2  and  C_3
REMARK    3  A    between atoms: C_3  and  C_4
REMARK    4  A    between atoms: C_4  and  C_5
REMARK    5  A    between atoms: C_5  and  S_6
REMARK    6  A    between atoms: S_6  and  N_9
REMARK    7  A    between atoms: N_9  and  C_10
REMARK    8  A    between atoms: C_10  and  C_11
REMARK    9  A    between atoms: C_16  and  C_17
REMARK   10  A    between atoms: C_17  and  C_18
REMARK   11  A    between atoms: C_18  and  O_20
REMARK                            x       y       z     vdW  Elec       q    Type
REMARK                         _______ _______ _______ _____ _____    ______ ____
ROOT
ATOM      1  C   UNL     1       2.495   7.134  18.437  0.00  0.00    +0.000 C 
ATOM      2  C   UNL     1       2.258   7.282  19.952  0.00  0.00    +0.000 C 
ATOM      3  C   UNL     1       1.338   8.468  19.981  0.00  0.00    +0.000 A 
ATOM      4  C   UNL     1       0.517   8.870  21.018  0.00  0.00    +0.000 A 
ATOM      5  C   UNL     1      -0.243  10.033  20.862  0.00  0.00    +0.000 A 
ATOM      6  C   UNL     1      -0.169  10.813  19.685  0.00  0.00    +0.000 A 
ATOM      7  C   UNL     1       0.681  10.383  18.643  0.00  0.00    +0.000 A 
ATOM      8  C   UNL     1       1.417   9.211  18.803  0.00  0.00    +0.000 A 
ATOM      9  C   UNL     1       2.403   8.577  17.865  0.00  0.00    +0.000 C 
ENDROOT
BRANCH   1  10
ATOM     10  C   UNL     1       3.800   6.464  18.018  0.00  0.00    +0.000 C 
BRANCH  10  11
ATOM     11  N   UNL     1       4.370   5.550  19.047  0.00  0.00    +0.000 NA
ATOM     12  H   UNL     1       5.093   5.985  19.621  0.00  0.00    +0.000 HD
BRANCH  11  13
ATOM     13  S   UNL     1       4.942   4.084  18.359  0.00  0.00    +0.000 S 
ATOM     14  O   UNL     1       5.127   3.154  19.443  0.00  0.00    +0.000 OA
ATOM     15  O   UNL     1       6.024   4.425  17.444  0.00  0.00    +0.000 OA
BRANCH  13  16
ATOM     16  C   UNL     1       3.530   3.541  17.400  0.00  0.00    +0.000 C 
BRANCH  16  17
ATOM     17  C   UNL     1       2.284   3.585  18.282  0.00  0.00    +0.000 C 
BRANCH  17  18
ATOM     18  C   UNL     1       1.957   2.233  18.906  0.00  0.00    +0.000 C 
BRANCH  18  20
ATOM     19  C   UNL     1       1.221   3.859  20.682  0.00  0.00    +0.000 C 
ATOM     20  C   UNL     1       1.514   2.404  20.360  0.00  0.00    +0.000 C 
ENDBRANCH  18  20
ENDBRANCH  17  18
ENDBRANCH  16  17
ENDBRANCH  13  16
ENDBRANCH  11  13
ENDBRANCH  10  11
ENDBRANCH   1  10
BRANCH   6  21
ATOM     21  C   UNL     1      -1.010  12.078  19.521  0.00  0.00    +0.000 C 
BRANCH  21  22
ATOM     22  C   UNL     1      -0.645  13.014  18.384  0.00  0.00    +0.000 C 
ATOM     23  O   UNL     1       0.067  14.009  18.524  0.00  0.00    +0.000 OA
BRANCH  22  24
ATOM     24  O   UNL     1      -1.238  12.736  17.197  0.00  0.00    +0.000 OA
ATOM     25  H   UNL     1      -2.150  12.401  17.305  0.00  0.00    +0.000 HD
ENDBRANCH  22  24
ENDBRANCH  21  22
ENDBRANCH   6  21
TORSDOF 10
ENDMDL
MODEL 9
REMARK VINA RESULT:      -6.5      3.086      4.247
REMARK  Name = 
REMARK  11 active torsions:
REMARK  status: ('A' for Active; 'I' for Inactive)
REMARK    1  A    between atoms: C_1  and  C_2
REMARK    2  A    between atoms: C_2  and  C_3
REMARK    3  A    between atoms: C_3  and  C_4
REMARK    4  A    between atoms: C_4  and  C_5
REMARK    5  A    between atoms: C_5  and  S_6
REMARK    6  A    between atoms: S_6  and  N_9
REMARK    7  A    between atoms: N_9  and  C_10
REMARK    8  A    between atoms: C_10  and  C_11
REMARK    9  A    between atoms: C_16  and  C_17
REMARK   10  A    between atoms: C_17  and  C_18
REMARK   11  A    between atoms: C_18  and  O_20
REMARK                            x       y       z     vdW  Elec       q    Type
REMARK                         _______ _______ _______ _____ _____    ______ ____
ROOT
ATOM      1  C   UNL     1       3.021   5.528  18.249  0.00  0.00    +0.000 C 
ATOM      2  C   UNL     1       2.922   5.914  19.737  0.00  0.00    +0.000 C 
ATOM      3  C   UNL     1       2.191   7.221  19.644  0.00  0.00    +0.000 A 
ATOM      4  C   UNL     1       1.518   7.882  20.655  0.00  0.00    +0.000 A 
ATOM      5  C   UNL     1       0.927   9.117  20.375  0.00  0.00    +0.000 A 
ATOM      6  C   UNL     1       1.026   9.710  19.096  0.00  0.00    +0.000 A 
ATOM      7  C   UNL     1       1.723   9.018  18.081  0.00  0.00    +0.000 A 
ATOM      8  C   UNL     1       2.289   7.778  18.369  0.00  0.00    +0.000 A 
ATOM      9  C   UNL     1       3.098   6.879  17.480  0.00  0.00    +0.000 C 
ENDROOT
BRANCH   1  10
ATOM     10  C   UNL     1       4.178   4.613  17.861  0.00  0.00    +0.000 C 
BRANCH  10  11
ATOM     11  N   UNL     1       4.704   4.849  16.489  0.00  0.00    +0.000 NA
ATOM     12  H   UNL     1       4.522   4.078  15.845  0.00  0.00    +0.000 HD
BRANCH  11  13
ATOM     13  S   UNL     1       6.375   5.246  16.500  0.00  0.00    +0.000 S 
ATOM     14  O   UNL     1       6.932   4.692  17.708  0.00  0.00    +0.000 OA
ATOM     15  O   UNL     1       6.489   6.663  16.180  0.00  0.00    +0.000 OA
BRANCH  13  16
ATOM     16  C   UNL     1       6.999   4.293  15.117  0.00  0.00    +0.000 C 
BRANCH  16  17
ATOM     17  C   UNL     1       5.885   4.126  14.087  0.00  0.00    +0.000 C 
BRANCH  17  18
ATOM     18  C   UNL     1       6.418   3.863  12.682  0.00  0.00    +0.000 C 
BRANCH  18  20
ATOM     19  C   UNL     1       4.254   3.354  11.497  0.00  0.00    +0.000 C 
ATOM     20  C   UNL     1       5.580   2.792  11.982  0.00  0.00    +0.000 C 
ENDBRANCH  18  20
ENDBRANCH  17  18
ENDBRANCH  16  17
ENDBRANCH  13  16
ENDBRANCH  11  13
ENDBRANCH  10  11
ENDBRANCH   1  10
BRANCH   6  21
ATOM     21  C   UNL     1       0.369  11.057  18.797  0.00  0.00    +0.000 C 
BRANCH  21  22
ATOM     22  C   UNL     1      -1.144  11.128  18.885  0.00  0.00    +0.000 C 
ATOM     23  O   UNL     1      -1.896  10.317  18.341  0.00  0.00    +0.000 OA
BRANCH  22  24
ATOM     24  O   UNL     1      -1.633  12.214  19.533  0.00  0.00    +0.000 OA
ATOM     25  H   UNL     1      -1.009  12.562  20.201  0.00  0.00    +0.000 HD
ENDBRANCH  22  24
ENDBRANCH  21  22
ENDBRANCH   6  21
TORSDOF 10
ENDMDL
