MODEL 1
REMARK VINA RESULT:      -7.0      0.000      0.000
REMARK  Name = 
REMARK  2 active torsions:
REMARK  status: ('A' for Active; 'I' for Inactive)
REMARK    1  A    between atoms: C_2  and  C_3
REMARK    2  A    between atoms: C_6  and  C_7
REMARK                            x       y       z     vdW  Elec       q    Type
REMARK                         _______ _______ _______ _____ _____    ______ ____
ROOT
ATOM      1  C   UNL     1       3.425   5.645  19.098  0.00  0.00    +0.000 C 
ATOM      2  O   UNL     1       3.561   4.825  20.005  0.00  0.00    +0.000 OA
ATOM      3  N   UNL     1       2.465   6.649  19.133  0.00  0.00    +0.000 N 
ATOM      4  C   UNL     1       1.701   6.864  20.368  0.00  0.00    +0.000 C 
ATOM      5  C   UNL     1       1.605   8.365  20.720  0.00  0.00    +0.000 C 
ATOM      6  N   UNL     1       1.193   9.155  19.554  0.00  0.00    +0.000 N 
ATOM      7  C   UNL     1       0.185  10.089  19.596  0.00  0.00    +0.000 A 
ATOM      8  C   UNL     1      -0.077  10.830  20.748  0.00  0.00    +0.000 A 
ATOM      9  C   UNL     1      -1.113  11.765  20.763  0.00  0.00    +0.000 A 
ATOM     10  C   UNL     1      -1.884  11.935  19.626  0.00  0.00    +0.000 A 
ATOM     11  C   UNL     1      -1.569  11.174  18.519  0.00  0.00    +0.000 A 
ATOM     12  N   UNL     1      -0.555  10.278  18.481  0.00  0.00    +0.000 NA
ATOM     13  C   UNL     1       1.887   8.901  18.287  0.00  0.00    +0.000 C 
ATOM     14  C   UNL     1       1.922   7.396  17.985  0.00  0.00    +0.000 C 
ENDROOT
BRANCH   1  18
ATOM     15  C   UNL     1       6.156   5.319  15.805  0.00  0.00    +0.000 A 
ATOM     16  C   UNL     1       5.118   4.396  15.961  0.00  0.00    +0.000 A 
ATOM     17  C   UNL     1       4.226   4.516  17.033  0.00  0.00    +0.000 A 
ATOM     18  C   UNL     1       4.371   5.562  17.955  0.00  0.00    +0.000 A 
ATOM     19  C   UNL     1       5.457   6.437  17.835  0.00  0.00    +0.000 A 
ATOM     20  C   UNL     1       6.325   6.340  16.745  0.00  0.00    +0.000 A 
BRANCH  15  22
ATOM     21  N   UNL     1       7.788   5.146  13.797  0.00  0.00    +0.000 NA
ATOM     22  C   UNL     1       7.056   5.217  14.692  0.00  0.00    +0.000 C 
ENDBRANCH  15  22
ENDBRANCH   1  18
TORSDOF 2
ENDMDL
MODEL 2
REMARK VINA RESULT:      -7.0      0.324      1.080
REMARK  Name = 
REMARK  2 active torsions:
REMARK  status: ('A' for Active; 'I' for Inactive)
REMARK    1  A    between atoms: C_2  and  C_3
REMARK    2  A    between atoms: C_6  and  C_7
REMARK                            x       y       z     vdW  Elec       q    Type
REMARK                         _______ _______ _______ _____ _____    ______ ____
ROOT
ATOM      1  C   UNL     1       3.423   5.303  19.006  0.00  0.00    +0.000 C 
ATOM      2  O   UNL     1       3.507   4.415  19.854  0.00  0.00    +0.000 OA
ATOM      3  N   UNL     1       2.513   6.347  19.102  0.00  0.00    +0.000 N 
ATOM      4  C   UNL     1       1.743   6.512  20.341  0.00  0.00    +0.000 C 
ATOM      5  C   UNL     1       1.714   7.988  20.797  0.00  0.00    +0.000 C 
ATOM      6  N   UNL     1       1.357   8.877  19.686  0.00  0.00    +0.000 N 
ATOM      7  C   UNL     1       0.395   9.854  19.784  0.00  0.00    +0.000 A 
ATOM      8  C   UNL     1       0.153  10.524  20.982  0.00  0.00    +0.000 A 
ATOM      9  C   UNL     1      -0.837  11.505  21.052  0.00  0.00    +0.000 A 
ATOM     10  C   UNL     1      -1.583  11.792  19.923  0.00  0.00    +0.000 A 
ATOM     11  C   UNL     1      -1.290  11.096  18.768  0.00  0.00    +0.000 A 
ATOM     12  N   UNL     1      -0.320  10.157  18.677  0.00  0.00    +0.000 NA
ATOM     13  C   UNL     1       2.055   8.679  18.412  0.00  0.00    +0.000 C 
ATOM     14  C   UNL     1       2.022   7.198  18.004  0.00  0.00    +0.000 C 
ENDROOT
BRANCH   1  18
ATOM     15  C   UNL     1       6.182   5.244  15.720  0.00  0.00    +0.000 A 
ATOM     16  C   UNL     1       6.273   6.231  16.707  0.00  0.00    +0.000 A 
ATOM     17  C   UNL     1       5.375   6.236  17.780  0.00  0.00    +0.000 A 
ATOM     18  C   UNL     1       4.380   5.253  17.869  0.00  0.00    +0.000 A 
ATOM     19  C   UNL     1       4.247   4.314  16.839  0.00  0.00    +0.000 A 
ATOM     20  C   UNL     1       5.166   4.286  15.787  0.00  0.00    +0.000 A 
BRANCH  15  22
ATOM     21  N   UNL     1       7.880   5.206  13.760  0.00  0.00    +0.000 NA
ATOM     22  C   UNL     1       7.117   5.218  14.632  0.00  0.00    +0.000 C 
ENDBRANCH  15  22
ENDBRANCH   1  18
TORSDOF 2
ENDMDL
MODEL 3
REMARK VINA RESULT:      -6.6      1.234      1.639
REMARK  Name = 
REMARK  2 active torsions:
REMARK  status: ('A' for Active; 'I' for Inactive)
REMARK    1  A    between atoms: C_2  and  C_3
REMARK    2  A    between atoms: C_6  and  C_7
REMARK                            x       y       z     vdW  Elec       q    Type
REMARK                         _______ _______ _______ _____ _____    ______ ____
ROOT
ATOM      1  C   UNL     1       3.546   4.421  18.238  0.00  0.00    +0.000 C 
ATOM      2  O   UNL     1       3.470   3.276  18.681  0.00  0.00    +0.000 OA
ATOM      3  N   UNL     1       2.760   5.462  18.714  0.00  0.00    +0.000 N 
ATOM      4  C   UNL     1       1.935   5.247  19.908  0.00  0.00    +0.000 C 
ATOM      5  C   UNL     1       2.049   6.429  20.895  0.00  0.00    +0.000 C 
ATOM      6  N   UNL     1       1.872   7.712  20.206  0.00  0.00    +0.000 N 
ATOM      7  C   UNL     1       1.026   8.698  20.655  0.00  0.00    +0.000 A 
ATOM      8  C   UNL     1       0.786   8.891  22.015  0.00  0.00    +0.000 A 
ATOM      9  C   UNL     1      -0.084   9.895  22.441  0.00  0.00    +0.000 A 
ATOM     10  C   UNL     1      -0.716  10.685  21.497  0.00  0.00    +0.000 A 
ATOM     11  C   UNL     1      -0.431  10.446  20.167  0.00  0.00    +0.000 A 
ATOM     12  N   UNL     1       0.426   9.490  19.739  0.00  0.00    +0.000 NA
ATOM     13  C   UNL     1       2.624   7.921  18.964  0.00  0.00    +0.000 C 
ATOM     14  C   UNL     1       2.446   6.723  18.018  0.00  0.00    +0.000 C 
ENDROOT
BRANCH   1  18
ATOM     15  C   UNL     1       6.482   5.082  15.180  0.00  0.00    +0.000 A 
ATOM     16  C   UNL     1       5.439   4.172  14.979  0.00  0.00    +0.000 A 
ATOM     17  C   UNL     1       4.481   3.971  15.978  0.00  0.00    +0.000 A 
ATOM     18  C   UNL     1       4.563   4.678  17.185  0.00  0.00    +0.000 A 
ATOM     19  C   UNL     1       5.651   5.530  17.409  0.00  0.00    +0.000 A 
ATOM     20  C   UNL     1       6.587   5.760  16.398  0.00  0.00    +0.000 A 
BRANCH  15  22
ATOM     21  N   UNL     1       8.226   5.493  13.305  0.00  0.00    +0.000 NA
ATOM     22  C   UNL     1       7.451   5.313  14.147  0.00  0.00    +0.000 C 
ENDBRANCH  15  22
ENDBRANCH   1  18
TORSDOF 2
ENDMDL
MODEL 4
REMARK VINA RESULT:      -6.1      4.527      6.028
REMARK  Name = 
REMARK  2 active torsions:
REMARK  status: ('A' for Active; 'I' for Inactive)
REMARK    1  A    between atoms: C_2  and  C_3
REMARK    2  A    between atoms: C_6  and  C_7
REMARK                            x       y       z     vdW  Elec       q    Type
REMARK                         _______ _______ _______ _____ _____    ______ ____
ROOT
ATOM      1  C   UNL     1       5.280   5.895  15.332  0.00  0.00    +0.000 C 
ATOM      2  O   UNL     1       5.254   7.107  15.127  0.00  0.00    +0.000 OA
ATOM      3  N   UNL     1       4.800   5.322  16.503  0.00  0.00    +0.000 N 
ATOM      4  C   UNL     1       4.068   6.159  17.460  0.00  0.00    +0.000 C 
ATOM      5  C   UNL     1       2.790   5.454  17.967  0.00  0.00    +0.000 C 
ATOM      6  N   UNL     1       3.079   4.080  18.393  0.00  0.00    +0.000 N 
ATOM      7  C   UNL     1       2.658   3.561  19.594  0.00  0.00    +0.000 A 
ATOM      8  C   UNL     1       1.463   3.965  20.186  0.00  0.00    +0.000 A 
ATOM      9  C   UNL     1       1.066   3.426  21.411  0.00  0.00    +0.000 A 
ATOM     10  C   UNL     1       1.881   2.497  22.034  0.00  0.00    +0.000 A 
ATOM     11  C   UNL     1       3.048   2.136  21.393  0.00  0.00    +0.000 A 
ATOM     12  N   UNL     1       3.437   2.634  20.196  0.00  0.00    +0.000 NA
ATOM     13  C   UNL     1       3.879   3.247  17.490  0.00  0.00    +0.000 C 
ATOM     14  C   UNL     1       5.145   3.996  17.046  0.00  0.00    +0.000 C 
ENDROOT
BRANCH   1  18
ATOM     15  C   UNL     1       6.764   3.336  12.223  0.00  0.00    +0.000 A 
ATOM     16  C   UNL     1       5.430   3.252  12.637  0.00  0.00    +0.000 A 
ATOM     17  C   UNL     1       4.953   4.098  13.644  0.00  0.00    +0.000 A 
ATOM     18  C   UNL     1       5.810   5.031  14.245  0.00  0.00    +0.000 A 
ATOM     19  C   UNL     1       7.161   5.057  13.879  0.00  0.00    +0.000 A 
ATOM     20  C   UNL     1       7.629   4.240  12.848  0.00  0.00    +0.000 A 
BRANCH  15  22
ATOM     21  N   UNL     1       7.634   1.799  10.324  0.00  0.00    +0.000 NA
ATOM     22  C   UNL     1       7.251   2.490  11.171  0.00  0.00    +0.000 C 
ENDBRANCH  15  22
ENDBRANCH   1  18
TORSDOF 2
ENDMDL
MODEL 5
REMARK VINA RESULT:      -6.1      4.546      6.125
REMARK  Name = 
REMARK  2 active torsions:
REMARK  status: ('A' for Active; 'I' for Inactive)
REMARK    1  A    between atoms: C_2  and  C_3
REMARK    2  A    between atoms: C_6  and  C_7
REMARK                            x       y       z     vdW  Elec       q    Type
REMARK                         _______ _______ _______ _____ _____    ______ ____
ROOT
ATOM      1  C   UNL     1       5.294   5.796  15.312  0.00  0.00    +0.000 C 
ATOM      2  O   UNL     1       5.293   7.008  15.101  0.00  0.00    +0.000 OA
ATOM      3  N   UNL     1       4.809   5.240  16.489  0.00  0.00    +0.000 N 
ATOM      4  C   UNL     1       4.102   6.098  17.446  0.00  0.00    +0.000 C 
ATOM      5  C   UNL     1       2.812   5.424  17.966  0.00  0.00    +0.000 C 
ATOM      6  N   UNL     1       3.074   4.047  18.398  0.00  0.00    +0.000 N 
ATOM      7  C   UNL     1       2.650   3.543  19.604  0.00  0.00    +0.000 A 
ATOM      8  C   UNL     1       1.468   3.976  20.202  0.00  0.00    +0.000 A 
ATOM      9  C   UNL     1       1.067   3.452  21.432  0.00  0.00    +0.000 A 
ATOM     10  C   UNL     1       1.866   2.510  22.056  0.00  0.00    +0.000 A 
ATOM     11  C   UNL     1       3.021   2.120  21.409  0.00  0.00    +0.000 A 
ATOM     12  N   UNL     1       3.413   2.603  20.206  0.00  0.00    +0.000 NA
ATOM     13  C   UNL     1       3.850   3.192  17.494  0.00  0.00    +0.000 C 
ATOM     14  C   UNL     1       5.129   3.910  17.038  0.00  0.00    +0.000 C 
ENDROOT
BRANCH   1  18
ATOM     15  C   UNL     1       6.793   3.316  12.147  0.00  0.00    +0.000 A 
ATOM     16  C   UNL     1       7.627   4.245  12.778  0.00  0.00    +0.000 A 
ATOM     17  C   UNL     1       7.131   5.042  13.816  0.00  0.00    +0.000 A 
ATOM     18  C   UNL     1       5.797   4.914  14.227  0.00  0.00    +0.000 A 
ATOM     19  C   UNL     1       4.949   4.037  13.540  0.00  0.00    +0.000 A 
ATOM     20  C   UNL     1       5.452   3.215  12.530  0.00  0.00    +0.000 A 
BRANCH  15  22
ATOM     21  N   UNL     1       7.723   1.792  10.266  0.00  0.00    +0.000 NA
ATOM     22  C   UNL     1       7.303   2.477  11.102  0.00  0.00    +0.000 C 
ENDBRANCH  15  22
ENDBRANCH   1  18
TORSDOF 2
ENDMDL
MODEL 6
REMARK VINA RESULT:      -6.0      3.322      9.329
REMARK  Name = 
REMARK  2 active torsions:
REMARK  status: ('A' for Active; 'I' for Inactive)
REMARK    1  A    between atoms: C_2  and  C_3
REMARK    2  A    between atoms: C_6  and  C_7
REMARK                            x       y       z     vdW  Elec       q    Type
REMARK                         _______ _______ _______ _____ _____    ______ ____
ROOT
ATOM      1  C   UNL     1      -1.465  11.784  19.714  0.00  0.00    +0.000 C 
ATOM      2  O   UNL     1      -2.127  12.237  18.781  0.00  0.00    +0.000 OA
ATOM      3  N   UNL     1      -0.694  10.635  19.597  0.00  0.00    +0.000 N 
ATOM      4  C   UNL     1      -0.506  10.032  18.273  0.00  0.00    +0.000 C 
ATOM      5  C   UNL     1       0.970   9.646  18.030  0.00  0.00    +0.000 C 
ATOM      6  N   UNL     1       1.513   8.897  19.169  0.00  0.00    +0.000 N 
ATOM      7  C   UNL     1       2.208   7.719  19.033  0.00  0.00    +0.000 A 
ATOM      8  C   UNL     1       3.003   7.465  17.916  0.00  0.00    +0.000 A 
ATOM      9  C   UNL     1       3.690   6.256  17.801  0.00  0.00    +0.000 A 
ATOM     10  C   UNL     1       3.559   5.308  18.801  0.00  0.00    +0.000 A 
ATOM     11  C   UNL     1       2.760   5.624  19.881  0.00  0.00    +0.000 A 
ATOM     12  N   UNL     1       2.104   6.799  20.018  0.00  0.00    +0.000 NA
ATOM     13  C   UNL     1       1.270   9.437  20.511  0.00  0.00    +0.000 C 
ATOM     14  C   UNL     1      -0.218   9.773  20.694  0.00  0.00    +0.000 C 
ENDROOT
BRANCH   1  18
ATOM     15  C   UNL     1      -1.578  14.002  23.386  0.00  0.00    +0.000 A 
ATOM     16  C   UNL     1      -2.662  13.205  23.003  0.00  0.00    +0.000 A 
ATOM     17  C   UNL     1      -2.612  12.478  21.809  0.00  0.00    +0.000 A 
ATOM     18  C   UNL     1      -1.476  12.546  20.990  0.00  0.00    +0.000 A 
ATOM     19  C   UNL     1      -0.427  13.404  21.342  0.00  0.00    +0.000 A 
ATOM     20  C   UNL     1      -0.460  14.101  22.552  0.00  0.00    +0.000 A 
BRANCH  15  22
ATOM     21  N   UNL     1      -1.654  15.317  25.620  0.00  0.00    +0.000 NA
ATOM     22  C   UNL     1      -1.613  14.727  24.623  0.00  0.00    +0.000 C 
ENDBRANCH  15  22
ENDBRANCH   1  18
TORSDOF 2
ENDMDL
MODEL 7
REMARK VINA RESULT:      -6.0      3.305      9.316
REMARK  Name = 
REMARK  2 active torsions:
REMARK  status: ('A' for Active; 'I' for Inactive)
REMARK    1  A    between atoms: C_2  and  C_3
REMARK    2  A    between atoms: C_6  and  C_7
REMARK                            x       y       z     vdW  Elec       q    Type
REMARK                         _______ _______ _______ _____ _____    ______ ____
ROOT
ATOM      1  C   UNL     1      -1.424  11.818  19.655  0.00  0.00    +0.000 C 
ATOM      2  O   UNL     1      -2.069  12.274  18.712  0.00  0.00    +0.000 OA
ATOM      3  N   UNL     1      -0.662  10.662  19.553  0.00  0.00    +0.000 N 
ATOM      4  C   UNL     1      -0.462  10.052  18.234  0.00  0.00    +0.000 C 
ATOM      5  C   UNL     1       1.013   9.651  18.013  0.00  0.00    +0.000 C 
ATOM      6  N   UNL     1       1.534   8.901  19.161  0.00  0.00    +0.000 N 
ATOM      7  C   UNL     1       2.220   7.716  19.038  0.00  0.00    +0.000 A 
ATOM      8  C   UNL     1       3.028   7.451  17.934  0.00  0.00    +0.000 A 
ATOM      9  C   UNL     1       3.705   6.235  17.832  0.00  0.00    +0.000 A 
ATOM     10  C   UNL     1       3.551   5.292  18.833  0.00  0.00    +0.000 A 
ATOM     11  C   UNL     1       2.740   5.619  19.901  0.00  0.00    +0.000 A 
ATOM     12  N   UNL     1       2.094   6.801  20.025  0.00  0.00    +0.000 NA
ATOM     13  C   UNL     1       1.277   9.448  20.497  0.00  0.00    +0.000 C 
ATOM     14  C   UNL     1      -0.210   9.799  20.659  0.00  0.00    +0.000 C 
ENDROOT
BRANCH   1  18
ATOM     15  C   UNL     1      -1.402  14.019  23.339  0.00  0.00    +0.000 A 
ATOM     16  C   UNL     1      -0.363  14.169  22.416  0.00  0.00    +0.000 A 
ATOM     17  C   UNL     1      -0.384  13.454  21.213  0.00  0.00    +0.000 A 
ATOM     18  C   UNL     1      -1.446  12.584  20.929  0.00  0.00    +0.000 A 
ATOM     19  C   UNL     1      -2.443  12.383  21.890  0.00  0.00    +0.000 A 
ATOM     20  C   UNL     1      -2.443  13.123  23.075  0.00  0.00    +0.000 A 
BRANCH  15  22
ATOM     21  N   UNL     1      -1.401  15.365  25.556  0.00  0.00    +0.000 NA
ATOM     22  C   UNL     1      -1.400  14.770  24.562  0.00  0.00    +0.000 C 
ENDBRANCH  15  22
ENDBRANCH   1  18
TORSDOF 2
ENDMDL
MODEL 8
REMARK VINA RESULT:      -6.0      2.668      3.642
REMARK  Name = 
REMARK  2 active torsions:
REMARK  status: ('A' for Active; 'I' for Inactive)
REMARK    1  A    between atoms: C_2  and  C_3
REMARK    2  A    between atoms: C_6  and  C_7
REMARK                            x       y       z     vdW  Elec       q    Type
REMARK                         _______ _______ _______ _____ _____    ______ ____
ROOT
ATOM      1  C   UNL     1       2.846   7.753  17.817  0.00  0.00    +0.000 C 
ATOM      2  O   UNL     1       3.358   8.208  16.796  0.00  0.00    +0.000 OA
ATOM      3  N   UNL     1       2.116   8.536  18.703  0.00  0.00    +0.000 N 
ATOM      4  C   UNL     1       1.781   9.915  18.328  0.00  0.00    +0.000 C 
ATOM      5  C   UNL     1       0.304  10.243  18.640  0.00  0.00    +0.000 C 
ATOM      6  N   UNL     1      -0.051   9.835  20.004  0.00  0.00    +0.000 N 
ATOM      7  C   UNL     1      -0.706  10.658  20.889  0.00  0.00    +0.000 A 
ATOM      8  C   UNL     1      -1.631  11.607  20.456  0.00  0.00    +0.000 A 
ATOM      9  C   UNL     1      -2.274  12.435  21.378  0.00  0.00    +0.000 A 
ATOM     10  C   UNL     1      -1.970  12.310  22.722  0.00  0.00    +0.000 A 
ATOM     11  C   UNL     1      -1.049  11.348  23.085  0.00  0.00    +0.000 A 
ATOM     12  N   UNL     1      -0.433  10.524  22.206  0.00  0.00    +0.000 NA
ATOM     13  C   UNL     1       0.345   8.489  20.430  0.00  0.00    +0.000 C 
ATOM     14  C   UNL     1       1.828   8.239  20.117  0.00  0.00    +0.000 C 
ENDROOT
BRANCH   1  18
ATOM     15  C   UNL     1       3.347   3.545  18.489  0.00  0.00    +0.000 A 
ATOM     16  C   UNL     1       4.422   4.424  18.654  0.00  0.00    +0.000 A 
ATOM     17  C   UNL     1       4.246   5.796  18.442  0.00  0.00    +0.000 A 
ATOM     18  C   UNL     1       2.993   6.295  18.062  0.00  0.00    +0.000 A 
ATOM     19  C   UNL     1       1.941   5.401  17.826  0.00  0.00    +0.000 A 
ATOM     20  C   UNL     1       2.105   4.036  18.073  0.00  0.00    +0.000 A 
BRANCH  15  22
ATOM     21  N   UNL     1       3.652   1.005  18.915  0.00  0.00    +0.000 NA
ATOM     22  C   UNL     1       3.515   2.141  18.732  0.00  0.00    +0.000 C 
ENDBRANCH  15  22
ENDBRANCH   1  18
TORSDOF 2
ENDMDL
MODEL 9
REMARK VINA RESULT:      -5.8      2.721      3.572
REMARK  Name = 
REMARK  2 active torsions:
REMARK  status: ('A' for Active; 'I' for Inactive)
REMARK    1  A    between atoms: C_2  and  C_3
REMARK    2  A    between atoms: C_6  and  C_7
REMARK                            x       y       z     vdW  Elec       q    Type
REMARK                         _______ _______ _______ _____ _____    ______ ____
ROOT
ATOM      1  C   UNL     1       2.869   7.803  17.813  0.00  0.00    +0.000 C 
ATOM      2  O   UNL     1       3.367   8.263  16.786  0.00  0.00    +0.000 OA
ATOM      3  N   UNL     1       2.132   8.577  18.700  0.00  0.00    +0.000 N 
ATOM      4  C   UNL     1       1.771   9.948  18.323  0.00  0.00    +0.000 C 
ATOM      5  C   UNL     1       0.291  10.253  18.643  0.00  0.00    +0.000 C 
ATOM      6  N   UNL     1      -0.048   9.844  20.011  0.00  0.00    +0.000 N 
ATOM      7  C   UNL     1      -0.710  10.658  20.898  0.00  0.00    +0.000 A 
ATOM      8  C   UNL     1      -1.654  11.590  20.468  0.00  0.00    +0.000 A 
ATOM      9  C   UNL     1      -2.305  12.410  21.391  0.00  0.00    +0.000 A 
ATOM     10  C   UNL     1      -1.990  12.296  22.734  0.00  0.00    +0.000 A 
ATOM     11  C   UNL     1      -1.050  11.351  23.094  0.00  0.00    +0.000 A 
ATOM     12  N   UNL     1      -0.426  10.534  22.214  0.00  0.00    +0.000 NA
ATOM     13  C   UNL     1       0.374   8.506  20.440  0.00  0.00    +0.000 C 
ATOM     14  C   UNL     1       1.859   8.280  20.117  0.00  0.00    +0.000 C 
ENDROOT
BRANCH   1  18
ATOM     15  C   UNL     1       3.291   3.599  18.565  0.00  0.00    +0.000 A 
ATOM     16  C   UNL     1       2.077   4.121  18.108  0.00  0.00    +0.000 A 
ATOM     17  C   UNL     1       1.952   5.492  17.856  0.00  0.00    +0.000 A 
ATOM     18  C   UNL     1       3.042   6.348  18.062  0.00  0.00    +0.000 A 
ATOM     19  C   UNL     1       4.231   5.830  18.590  0.00  0.00    +0.000 A 
ATOM     20  C   UNL     1       4.369   4.457  18.807  0.00  0.00    +0.000 A 
BRANCH  15  22
ATOM     21  N   UNL     1       3.561   1.054  18.984  0.00  0.00    +0.000 NA
ATOM     22  C   UNL     1       3.433   2.191  18.798  0.00  0.00    +0.000 C 
ENDBRANCH  15  22
ENDBRANCH   1  18
TORSDOF 2
ENDMDL
