MODEL 1
REMARK VINA RESULT:      -8.4      0.000      0.000
REMARK  Name = 
REMARK  11 active torsions:
REMARK  status: ('A' for Active; 'I' for Inactive)
REMARK    1  A    between atoms: C_1  and  C_2
REMARK    2  A    between atoms: C_2  and  C_3
REMARK    3  A    between atoms: C_2  and  N_14
REMARK    4  A    between atoms: C_3  and  C_4
REMARK    5  A    between atoms: C_4  and  C_5
REMARK    6  A    between atoms: N_14  and  C_15
REMARK    7  A    between atoms: C_15  and  C_16
REMARK    8  A    between atoms: C_16  and  O_17
REMARK    9  A    between atoms: C_16  and  C_18
REMARK   10  A    between atoms: C_21  and  O_22
REMARK   11  A    between atoms: C_23  and  C_24
REMARK                            x       y       z     vdW  Elec       q    Type
REMARK                         _______ _______ _______ _____ _____    ______ ____
ROOT
ATOM      1  C   UNL     1       2.638   2.599  18.643  0.00  0.00    +0.000 C 
ENDROOT
BRANCH   1   2
ATOM      2  N   UNL     1       1.676   2.015  19.595  0.00  0.00    +0.000 NA
ATOM      3  H   UNL     1       0.903   1.606  19.065  0.00  0.00    +0.000 HD
BRANCH   2   5
ATOM      4  C   UNL     1       2.074   3.068  21.833  0.00  0.00    +0.000 C 
ATOM      5  C   UNL     1       1.180   2.982  20.586  0.00  0.00    +0.000 C 
BRANCH   5   6
ATOM      6  C   UNL     1       1.078   4.393  19.963  0.00  0.00    +0.000 C 
BRANCH   6   7
ATOM      7  C   UNL     1       2.065   5.410  20.546  0.00  0.00    +0.000 C 
BRANCH   7   8
ATOM      8  C   UNL     1       2.089   6.689  19.737  0.00  0.00    +0.000 A 
ATOM      9  C   UNL     1       2.744   6.720  18.484  0.00  0.00    +0.000 A 
ATOM     10  C   UNL     1       2.789   7.893  17.720  0.00  0.00    +0.000 A 
ATOM     11  C   UNL     1       2.183   9.015  18.235  0.00  0.00    +0.000 A 
ATOM     12  C   UNL     1       1.548   9.000  19.454  0.00  0.00    +0.000 A 
ATOM     13  C   UNL     1       1.486   7.859  20.229  0.00  0.00    +0.000 A 
ATOM     14  O   UNL     1       1.022  10.212  19.779  0.00  0.00    +0.000 OA
ATOM     15  C   UNL     1       1.422  10.998  18.636  0.00  0.00    +0.000 C 
ATOM     16  O   UNL     1       2.132  10.238  17.637  0.00  0.00    +0.000 OA
ENDBRANCH   7   8
ENDBRANCH   6   7
ENDBRANCH   5   6
ENDBRANCH   2   5
ENDBRANCH   1   2
BRANCH   1  17
ATOM     17  C   UNL     1       4.064   2.745  19.233  0.00  0.00    +0.000 C 
BRANCH  17  18
ATOM     18  C   UNL     1       4.908   3.708  18.412  0.00  0.00    +0.000 A 
ATOM     19  C   UNL     1       4.680   3.846  17.037  0.00  0.00    +0.000 A 
ATOM     20  C   UNL     1       5.467   4.703  16.262  0.00  0.00    +0.000 A 
ATOM     21  C   UNL     1       6.495   5.444  16.851  0.00  0.00    +0.000 A 
ATOM     22  C   UNL     1       6.746   5.333  18.226  0.00  0.00    +0.000 A 
ATOM     23  C   UNL     1       5.943   4.465  18.991  0.00  0.00    +0.000 A 
BRANCH  22  24
ATOM     24  C   UNL     1       7.818   6.078  18.955  0.00  0.00    +0.000 C 
ATOM     25  N   UNL     1       8.357   5.499  20.065  0.00  0.00    +0.000 N 
ATOM     26  O   UNL     1       8.209   7.176  18.575  0.00  0.00    +0.000 OA
ATOM     27  H   UNL     1       8.037   4.590  20.384  0.00  0.00    +0.000 HD
ATOM     28  H   UNL     1       9.085   5.983  20.570  0.00  0.00    +0.000 HD
ENDBRANCH  22  24
BRANCH  21  29
ATOM     29  O   UNL     1       7.247   6.271  16.058  0.00  0.00    +0.000 OA
ATOM     30  H   UNL     1       6.803   6.370  15.198  0.00  0.00    +0.000 HD
ENDBRANCH  21  29
ENDBRANCH  17  18
BRANCH  17  31
ATOM     31  O   UNL     1       4.705   1.465  19.288  0.00  0.00    +0.000 OA
ATOM     32  H   UNL     1       4.578   1.104  20.180  0.00  0.00    +0.000 HD
ENDBRANCH  17  31
ENDBRANCH   1  17
TORSDOF 10
ENDMDL
MODEL 2
REMARK VINA RESULT:      -8.2      1.044      1.292
REMARK  Name = 
REMARK  11 active torsions:
REMARK  status: ('A' for Active; 'I' for Inactive)
REMARK    1  A    between atoms: C_1  and  C_2
REMARK    2  A    between atoms: C_2  and  C_3
REMARK    3  A    between atoms: C_2  and  N_14
REMARK    4  A    between atoms: C_3  and  C_4
REMARK    5  A    between atoms: C_4  and  C_5
REMARK    6  A    between atoms: N_14  and  C_15
REMARK    7  A    between atoms: C_15  and  C_16
REMARK    8  A    between atoms: C_16  and  O_17
REMARK    9  A    between atoms: C_16  and  C_18
REMARK   10  A    between atoms: C_21  and  O_22
REMARK   11  A    between atoms: C_23  and  C_24
REMARK                            x       y       z     vdW  Elec       q    Type
REMARK                         _______ _______ _______ _____ _____    ______ ____
ROOT
ATOM      1  C   UNL     1       2.383   2.893  17.986  0.00  0.00    +0.000 C 
ENDROOT
BRANCH   1   2
ATOM      2  N   UNL     1       1.825   4.229  18.259  0.00  0.00    +0.000 NA
ATOM      3  H   UNL     1       2.571   4.921  18.151  0.00  0.00    +0.000 HD
BRANCH   2   5
ATOM      4  C   UNL     1       0.981   2.969  20.252  0.00  0.00    +0.000 C 
ATOM      5  C   UNL     1       1.195   4.336  19.584  0.00  0.00    +0.000 C 
BRANCH   5   6
ATOM      6  C   UNL     1       2.057   5.207  20.525  0.00  0.00    +0.000 C 
BRANCH   6   7
ATOM      7  C   UNL     1       2.955   6.216  19.800  0.00  0.00    +0.000 C 
BRANCH   7   8
ATOM      8  C   UNL     1       2.219   7.506  19.506  0.00  0.00    +0.000 A 
ATOM      9  C   UNL     1       2.292   8.082  18.216  0.00  0.00    +0.000 A 
ATOM     10  C   UNL     1       1.629   9.279  17.920  0.00  0.00    +0.000 A 
ATOM     11  C   UNL     1       0.913   9.880  18.929  0.00  0.00    +0.000 A 
ATOM     12  C   UNL     1       0.839   9.334  20.189  0.00  0.00    +0.000 A 
ATOM     13  C   UNL     1       1.480   8.154  20.509  0.00  0.00    +0.000 A 
ATOM     14  O   UNL     1       0.087  10.087  21.037  0.00  0.00    +0.000 OA
ATOM     15  C   UNL     1      -0.280  11.184  20.173  0.00  0.00    +0.000 C 
ATOM     16  O   UNL     1       0.214  11.044  18.825  0.00  0.00    +0.000 OA
ENDBRANCH   7   8
ENDBRANCH   6   7
ENDBRANCH   5   6
ENDBRANCH   2   5
ENDBRANCH   1   2
BRANCH   1  17
ATOM     17  C   UNL     1       3.827   2.716  18.525  0.00  0.00    +0.000 C 
BRANCH  17  18
ATOM     18  C   UNL     1       4.795   3.668  17.838  0.00  0.00    +0.000 A 
ATOM     19  C   UNL     1       4.778   3.803  16.444  0.00  0.00    +0.000 A 
ATOM     20  C   UNL     1       5.682   4.649  15.795  0.00  0.00    +0.000 A 
ATOM     21  C   UNL     1       6.618   5.381  16.532  0.00  0.00    +0.000 A 
ATOM     22  C   UNL     1       6.658   5.272  17.928  0.00  0.00    +0.000 A 
ATOM     23  C   UNL     1       5.739   4.415  18.566  0.00  0.00    +0.000 A 
BRANCH  22  24
ATOM     24  C   UNL     1       7.615   6.009  18.810  0.00  0.00    +0.000 C 
ATOM     25  N   UNL     1       7.966   5.432  19.995  0.00  0.00    +0.000 N 
ATOM     26  O   UNL     1       8.079   7.097  18.487  0.00  0.00    +0.000 OA
ATOM     27  H   UNL     1       7.585   4.532  20.267  0.00  0.00    +0.000 HD
ATOM     28  H   UNL     1       8.614   5.911  20.603  0.00  0.00    +0.000 HD
ENDBRANCH  22  24
BRANCH  21  29
ATOM     29  O   UNL     1       7.490   6.197  15.859  0.00  0.00    +0.000 OA
ATOM     30  H   UNL     1       7.080   6.471  15.020  0.00  0.00    +0.000 HD
ENDBRANCH  21  29
ENDBRANCH  17  18
BRANCH  17  31
ATOM     31  O   UNL     1       4.258   1.364  18.333  0.00  0.00    +0.000 OA
ATOM     32  H   UNL     1       3.490   0.784  18.458  0.00  0.00    +0.000 HD
ENDBRANCH  17  31
ENDBRANCH   1  17
TORSDOF 10
ENDMDL
MODEL 3
REMARK VINA RESULT:      -8.1      1.435      2.105
REMARK  Name = 
REMARK  11 active torsions:
REMARK  status: ('A' for Active; 'I' for Inactive)
REMARK    1  A    between atoms: C_1  and  C_2
REMARK    2  A    between atoms: C_2  and  C_3
REMARK    3  A    between atoms: C_2  and  N_14
REMARK    4  A    between atoms: C_3  and  C_4
REMARK    5  A    between atoms: C_4  and  C_5
REMARK    6  A    between atoms: N_14  and  C_15
REMARK    7  A    between atoms: C_15  and  C_16
REMARK    8  A    between atoms: C_16  and  O_17
REMARK    9  A    between atoms: C_16  and  C_18
REMARK   10  A    between atoms: C_21  and  O_22
REMARK   11  A    between atoms: C_23  and  C_24
REMARK                            x       y       z     vdW  Elec       q    Type
REMARK                         _______ _______ _______ _____ _____    ______ ____
ROOT
ATOM      1  C   UNL     1       3.181   2.890  18.554  0.00  0.00    +0.000 C 
ENDROOT
BRANCH   1   2
ATOM      2  N   UNL     1       2.265   2.017  19.309  0.00  0.00    +0.000 NA
ATOM      3  H   UNL     1       1.755   1.430  18.644  0.00  0.00    +0.000 HD
BRANCH   2   5
ATOM      4  C   UNL     1       1.822   2.846  21.630  0.00  0.00    +0.000 C 
ATOM      5  C   UNL     1       1.337   2.759  20.175  0.00  0.00    +0.000 C 
BRANCH   5   6
ATOM      6  C   UNL     1       1.132   4.196  19.645  0.00  0.00    +0.000 C 
BRANCH   6   7
ATOM      7  C   UNL     1       1.753   5.285  20.527  0.00  0.00    +0.000 C 
BRANCH   7   8
ATOM      8  C   UNL     1       1.882   6.597  19.782  0.00  0.00    +0.000 A 
ATOM      9  C   UNL     1       2.591   6.648  18.559  0.00  0.00    +0.000 A 
ATOM     10  C   UNL     1       2.734   7.850  17.855  0.00  0.00    +0.000 A 
ATOM     11  C   UNL     1       2.171   8.981  18.399  0.00  0.00    +0.000 A 
ATOM     12  C   UNL     1       1.484   8.946  19.590  0.00  0.00    +0.000 A 
ATOM     13  C   UNL     1       1.325   7.775  20.305  0.00  0.00    +0.000 A 
ATOM     14  O   UNL     1       1.012  10.170  19.953  0.00  0.00    +0.000 OA
ATOM     15  C   UNL     1       1.505  10.983  18.866  0.00  0.00    +0.000 C 
ATOM     16  O   UNL     1       2.214  10.230  17.860  0.00  0.00    +0.000 OA
ENDBRANCH   7   8
ENDBRANCH   6   7
ENDBRANCH   5   6
ENDBRANCH   2   5
ENDBRANCH   1   2
BRANCH   1  17
ATOM     17  C   UNL     1       4.436   3.301  19.367  0.00  0.00    +0.000 C 
BRANCH  17  18
ATOM     18  C   UNL     1       5.340   4.224  18.563  0.00  0.00    +0.000 A 
ATOM     19  C   UNL     1       6.075   5.226  19.210  0.00  0.00    +0.000 A 
ATOM     20  C   UNL     1       6.886   6.103  18.482  0.00  0.00    +0.000 A 
ATOM     21  C   UNL     1       6.979   5.988  17.093  0.00  0.00    +0.000 A 
ATOM     22  C   UNL     1       6.261   4.994  16.416  0.00  0.00    +0.000 A 
ATOM     23  C   UNL     1       5.450   4.119  17.165  0.00  0.00    +0.000 A 
BRANCH  22  24
ATOM     24  C   UNL     1       6.290   4.784  14.935  0.00  0.00    +0.000 C 
ATOM     25  N   UNL     1       7.353   5.280  14.240  0.00  0.00    +0.000 N 
ATOM     26  O   UNL     1       5.392   4.185  14.354  0.00  0.00    +0.000 OA
ATOM     27  H   UNL     1       8.099   5.776  14.716  0.00  0.00    +0.000 HD
ATOM     28  H   UNL     1       7.394   5.146  13.240  0.00  0.00    +0.000 HD
ENDBRANCH  22  24
BRANCH  21  29
ATOM     29  O   UNL     1       7.782   6.869  16.414  0.00  0.00    +0.000 OA
ATOM     30  H   UNL     1       7.219   7.488  15.917  0.00  0.00    +0.000 HD
ENDBRANCH  21  29
ENDBRANCH  17  18
BRANCH  17  31
ATOM     31  O   UNL     1       5.166   2.135  19.765  0.00  0.00    +0.000 OA
ATOM     32  H   UNL     1       5.966   2.425  20.230  0.00  0.00    +0.000 HD
ENDBRANCH  17  31
ENDBRANCH   1  17
TORSDOF 10
ENDMDL
MODEL 4
REMARK VINA RESULT:      -7.8      1.304      1.387
REMARK  Name = 
REMARK  11 active torsions:
REMARK  status: ('A' for Active; 'I' for Inactive)
REMARK    1  A    between atoms: C_1  and  C_2
REMARK    2  A    between atoms: C_2  and  C_3
REMARK    3  A    between atoms: C_2  and  N_14
REMARK    4  A    between atoms: C_3  and  C_4
REMARK    5  A    between atoms: C_4  and  C_5
REMARK    6  A    between atoms: N_14  and  C_15
REMARK    7  A    between atoms: C_15  and  C_16
REMARK    8  A    between atoms: C_16  and  O_17
REMARK    9  A    between atoms: C_16  and  C_18
REMARK   10  A    between atoms: C_21  and  O_22
REMARK   11  A    between atoms: C_23  and  C_24
REMARK                            x       y       z     vdW  Elec       q    Type
REMARK                         _______ _______ _______ _____ _____    ______ ____
ROOT
ATOM      1  C   UNL     1       3.072   2.874  19.110  0.00  0.00    +0.000 C 
ENDROOT
BRANCH   1   2
ATOM      2  N   UNL     1       1.704   3.419  19.164  0.00  0.00    +0.000 NA
ATOM      3  H   UNL     1       1.657   4.238  18.552  0.00  0.00    +0.000 HD
BRANCH   2   5
ATOM      4  C   UNL     1       1.954   2.898  21.601  0.00  0.00    +0.000 C 
ATOM      5  C   UNL     1       1.265   3.754  20.527  0.00  0.00    +0.000 C 
BRANCH   5   6
ATOM      6  C   UNL     1       1.547   5.242  20.837  0.00  0.00    +0.000 C 
BRANCH   6   7
ATOM      7  C   UNL     1       2.578   5.892  19.908  0.00  0.00    +0.000 C 
BRANCH   7   8
ATOM      8  C   UNL     1       2.152   7.283  19.490  0.00  0.00    +0.000 A 
ATOM      9  C   UNL     1       2.409   7.734  18.174  0.00  0.00    +0.000 A 
ATOM     10  C   UNL     1       2.034   9.019  17.763  0.00  0.00    +0.000 A 
ATOM     11  C   UNL     1       1.415   9.831  18.686  0.00  0.00    +0.000 A 
ATOM     12  C   UNL     1       1.164   9.406  19.970  0.00  0.00    +0.000 A 
ATOM     13  C   UNL     1       1.521   8.144  20.402  0.00  0.00    +0.000 A 
ATOM     14  O   UNL     1       0.551  10.361  20.720  0.00  0.00    +0.000 OA
ATOM     15  C   UNL     1       0.470  11.444  19.769  0.00  0.00    +0.000 C 
ATOM     16  O   UNL     1       0.988  11.104  18.466  0.00  0.00    +0.000 OA
ENDBRANCH   7   8
ENDBRANCH   6   7
ENDBRANCH   5   6
ENDBRANCH   2   5
ENDBRANCH   1   2
BRANCH   1  17
ATOM     17  C   UNL     1       3.678   2.893  17.683  0.00  0.00    +0.000 C 
BRANCH  17  18
ATOM     18  C   UNL     1       4.573   4.106  17.477  0.00  0.00    +0.000 A 
ATOM     19  C   UNL     1       4.436   4.892  16.326  0.00  0.00    +0.000 A 
ATOM     20  C   UNL     1       5.271   5.992  16.106  0.00  0.00    +0.000 A 
ATOM     21  C   UNL     1       6.256   6.328  17.038  0.00  0.00    +0.000 A 
ATOM     22  C   UNL     1       6.416   5.565  18.202  0.00  0.00    +0.000 A 
ATOM     23  C   UNL     1       5.565   4.461  18.408  0.00  0.00    +0.000 A 
BRANCH  22  24
ATOM     24  C   UNL     1       7.436   5.837  19.262  0.00  0.00    +0.000 C 
ATOM     25  N   UNL     1       8.326   6.847  19.048  0.00  0.00    +0.000 N 
ATOM     26  O   UNL     1       7.478   5.179  20.296  0.00  0.00    +0.000 OA
ATOM     27  H   UNL     1       8.295   7.394  18.194  0.00  0.00    +0.000 HD
ATOM     28  H   UNL     1       9.020   7.049  19.753  0.00  0.00    +0.000 HD
ENDBRANCH  22  24
BRANCH  21  29
ATOM     29  O   UNL     1       7.057   7.411  16.785  0.00  0.00    +0.000 OA
ATOM     30  H   UNL     1       7.046   7.999  17.561  0.00  0.00    +0.000 HD
ENDBRANCH  21  29
ENDBRANCH  17  18
BRANCH  17  31
ATOM     31  O   UNL     1       2.631   2.891  16.707  0.00  0.00    +0.000 OA
ATOM     32  H   UNL     1       2.289   3.797  16.631  0.00  0.00    +0.000 HD
ENDBRANCH  17  31
ENDBRANCH   1  17
TORSDOF 10
ENDMDL
MODEL 5
REMARK VINA RESULT:      -7.7      4.211      6.997
REMARK  Name = 
REMARK  11 active torsions:
REMARK  status: ('A' for Active; 'I' for Inactive)
REMARK    1  A    between atoms: C_1  and  C_2
REMARK    2  A    between atoms: C_2  and  C_3
REMARK    3  A    between atoms: C_2  and  N_14
REMARK    4  A    between atoms: C_3  and  C_4
REMARK    5  A    between atoms: C_4  and  C_5
REMARK    6  A    between atoms: N_14  and  C_15
REMARK    7  A    between atoms: C_15  and  C_16
REMARK    8  A    between atoms: C_16  and  O_17
REMARK    9  A    between atoms: C_16  and  C_18
REMARK   10  A    between atoms: C_21  and  O_22
REMARK   11  A    between atoms: C_23  and  C_24
REMARK                            x       y       z     vdW  Elec       q    Type
REMARK                         _______ _______ _______ _____ _____    ______ ____
ROOT
ATOM      1  C   UNL     1       6.972   5.441  16.202  0.00  0.00    +0.000 C 
ENDROOT
BRANCH   1   2
ATOM      2  N   UNL     1       7.520   6.745  16.618  0.00  0.00    +0.000 NA
ATOM      3  H   UNL     1       8.472   6.827  16.255  0.00  0.00    +0.000 HD
BRANCH   2   5
ATOM      4  C   UNL     1       7.877   5.685  18.859  0.00  0.00    +0.000 C 
ATOM      5  C   UNL     1       7.492   6.948  18.075  0.00  0.00    +0.000 C 
BRANCH   5   6
ATOM      6  C   UNL     1       8.455   8.086  18.481  0.00  0.00    +0.000 C 
BRANCH   6   7
ATOM      7  C   UNL     1       8.192   9.417  17.769  0.00  0.00    +0.000 C 
BRANCH   7   8
ATOM      8  C   UNL     1       8.908  10.564  18.451  0.00  0.00    +0.000 A 
ATOM      9  C   UNL     1       9.505  10.370  19.718  0.00  0.00    +0.000 A 
ATOM     10  C   UNL     1      10.165  11.416  20.375  0.00  0.00    +0.000 A 
ATOM     11  C   UNL     1      10.203  12.641  19.749  0.00  0.00    +0.000 A 
ATOM     12  C   UNL     1       9.622  12.844  18.519  0.00  0.00    +0.000 A 
ATOM     13  C   UNL     1       8.966  11.831  17.848  0.00  0.00    +0.000 A 
ATOM     14  O   UNL     1       9.768  14.124  18.082  0.00  0.00    +0.000 OA
ATOM     15  C   UNL     1      10.485  14.709  19.190  0.00  0.00    +0.000 C 
ATOM     16  O   UNL     1      10.793  13.767  20.238  0.00  0.00    +0.000 OA
ENDBRANCH   7   8
ENDBRANCH   6   7
ENDBRANCH   5   6
ENDBRANCH   2   5
ENDBRANCH   1   2
BRANCH   1  17
ATOM     17  C   UNL     1       5.456   5.492  15.884  0.00  0.00    +0.000 C 
BRANCH  17  18
ATOM     18  C   UNL     1       4.621   5.436  17.154  0.00  0.00    +0.000 A 
ATOM     19  C   UNL     1       3.907   6.564  17.577  0.00  0.00    +0.000 A 
ATOM     20  C   UNL     1       3.160   6.539  18.759  0.00  0.00    +0.000 A 
ATOM     21  C   UNL     1       3.109   5.379  19.537  0.00  0.00    +0.000 A 
ATOM     22  C   UNL     1       3.808   4.231  19.140  0.00  0.00    +0.000 A 
ATOM     23  C   UNL     1       4.555   4.275  17.946  0.00  0.00    +0.000 A 
BRANCH  22  24
ATOM     24  C   UNL     1       3.822   2.941  19.896  0.00  0.00    +0.000 C 
ATOM     25  N   UNL     1       2.627   2.428  20.307  0.00  0.00    +0.000 N 
ATOM     26  O   UNL     1       4.869   2.354  20.144  0.00  0.00    +0.000 OA
ATOM     27  H   UNL     1       1.757   2.911  20.105  0.00  0.00    +0.000 HD
ATOM     28  H   UNL     1       2.614   1.556  20.816  0.00  0.00    +0.000 HD
ENDBRANCH  22  24
BRANCH  21  29
ATOM     29  O   UNL     1       2.369   5.394  20.691  0.00  0.00    +0.000 OA
ATOM     30  H   UNL     1       2.229   4.477  20.986  0.00  0.00    +0.000 HD
ENDBRANCH  21  29
ENDBRANCH  17  18
BRANCH  17  31
ATOM     31  O   UNL     1       5.100   4.406  15.021  0.00  0.00    +0.000 OA
ATOM     32  H   UNL     1       4.438   3.863  15.479  0.00  0.00    +0.000 HD
ENDBRANCH  17  31
ENDBRANCH   1  17
TORSDOF 10
ENDMDL
MODEL 6
REMARK VINA RESULT:      -7.5      2.370      6.699
REMARK  Name = 
REMARK  11 active torsions:
REMARK  status: ('A' for Active; 'I' for Inactive)
REMARK    1  A    between atoms: C_1  and  C_2
REMARK    2  A    between atoms: C_2  and  C_3
REMARK    3  A    between atoms: C_2  and  N_14
REMARK    4  A    between atoms: C_3  and  C_4
REMARK    5  A    between atoms: C_4  and  C_5
REMARK    6  A    between atoms: N_14  and  C_15
REMARK    7  A    between atoms: C_15  and  C_16
REMARK    8  A    between atoms: C_16  and  O_17
REMARK    9  A    between atoms: C_16  and  C_18
REMARK   10  A    between atoms: C_21  and  O_22
REMARK   11  A    between atoms: C_23  and  C_24
REMARK                            x       y       z     vdW  Elec       q    Type
REMARK                         _______ _______ _______ _____ _____    ______ ____
ROOT
ATOM      1  C   UNL     1       1.656   5.676  20.471  0.00  0.00    +0.000 C 
ENDROOT
BRANCH   1   2
ATOM      2  N   UNL     1       2.576   4.861  21.285  0.00  0.00    +0.000 NA
ATOM      3  H   UNL     1       3.535   5.065  20.992  0.00  0.00    +0.000 HD
BRANCH   2   5
ATOM      4  C   UNL     1       0.926   3.111  20.584  0.00  0.00    +0.000 C 
ATOM      5  C   UNL     1       2.296   3.419  21.208  0.00  0.00    +0.000 C 
BRANCH   5   6
ATOM      6  C   UNL     1       3.382   2.701  20.375  0.00  0.00    +0.000 C 
BRANCH   6   7
ATOM      7  C   UNL     1       3.167   2.780  18.860  0.00  0.00    +0.000 C 
BRANCH   7   8
ATOM      8  C   UNL     1       4.329   3.459  18.167  0.00  0.00    +0.000 A 
ATOM      9  C   UNL     1       5.303   4.145  18.930  0.00  0.00    +0.000 A 
ATOM     10  C   UNL     1       6.382   4.790  18.315  0.00  0.00    +0.000 A 
ATOM     11  C   UNL     1       6.458   4.741  16.942  0.00  0.00    +0.000 A 
ATOM     12  C   UNL     1       5.516   4.081  16.188  0.00  0.00    +0.000 A 
ATOM     13  C   UNL     1       4.441   3.436  16.768  0.00  0.00    +0.000 A 
ATOM     14  O   UNL     1       5.773   4.158  14.854  0.00  0.00    +0.000 OA
ATOM     15  C   UNL     1       6.971   4.964  14.855  0.00  0.00    +0.000 C 
ATOM     16  O   UNL     1       7.430   5.311  16.177  0.00  0.00    +0.000 OA
ENDBRANCH   7   8
ENDBRANCH   6   7
ENDBRANCH   5   6
ENDBRANCH   2   5
ENDBRANCH   1   2
BRANCH   1  17
ATOM     17  C   UNL     1       2.385   6.750  19.622  0.00  0.00    +0.000 C 
BRANCH  17  18
ATOM     18  C   UNL     1       1.716   8.110  19.754  0.00  0.00    +0.000 A 
ATOM     19  C   UNL     1       1.740   9.012  18.683  0.00  0.00    +0.000 A 
ATOM     20  C   UNL     1       1.157  10.278  18.799  0.00  0.00    +0.000 A 
ATOM     21  C   UNL     1       0.534  10.661  19.989  0.00  0.00    +0.000 A 
ATOM     22  C   UNL     1       0.487   9.780  21.078  0.00  0.00    +0.000 A 
ATOM     23  C   UNL     1       1.079   8.509  20.944  0.00  0.00    +0.000 A 
BRANCH  22  24
ATOM     24  C   UNL     1      -0.153  10.089  22.394  0.00  0.00    +0.000 C 
ATOM     25  N   UNL     1      -0.698   9.056  23.098  0.00  0.00    +0.000 N 
ATOM     26  O   UNL     1      -0.192  11.232  22.836  0.00  0.00    +0.000 OA
ATOM     27  H   UNL     1      -0.669   8.109  22.736  0.00  0.00    +0.000 HD
ATOM     28  H   UNL     1      -1.132   9.243  23.990  0.00  0.00    +0.000 HD
ENDBRANCH  22  24
BRANCH  21  29
ATOM     29  O   UNL     1      -0.024  11.912  20.066  0.00  0.00    +0.000 OA
ATOM     30  H   UNL     1      -0.085  12.283  19.168  0.00  0.00    +0.000 HD
ENDBRANCH  21  29
ENDBRANCH  17  18
BRANCH  17  31
ATOM     31  O   UNL     1       2.409   6.353  18.246  0.00  0.00    +0.000 OA
ATOM     32  H   UNL     1       2.004   5.473  18.181  0.00  0.00    +0.000 HD
ENDBRANCH  17  31
ENDBRANCH   1  17
TORSDOF 10
ENDMDL
MODEL 7
REMARK VINA RESULT:      -7.5      0.915      1.022
REMARK  Name = 
REMARK  11 active torsions:
REMARK  status: ('A' for Active; 'I' for Inactive)
REMARK    1  A    between atoms: C_1  and  C_2
REMARK    2  A    between atoms: C_2  and  C_3
REMARK    3  A    between atoms: C_2  and  N_14
REMARK    4  A    between atoms: C_3  and  C_4
REMARK    5  A    between atoms: C_4  and  C_5
REMARK    6  A    between atoms: N_14  and  C_15
REMARK    7  A    between atoms: C_15  and  C_16
REMARK    8  A    between atoms: C_16  and  O_17
REMARK    9  A    between atoms: C_16  and  C_18
REMARK   10  A    between atoms: C_21  and  O_22
REMARK   11  A    between atoms: C_23  and  C_24
REMARK                            x       y       z     vdW  Elec       q    Type
REMARK                         _______ _______ _______ _____ _____    ______ ____
ROOT
ATOM      1  C   UNL     1       2.460   2.971  17.296  0.00  0.00    +0.000 C 
ENDROOT
BRANCH   1   2
ATOM      2  N   UNL     1       1.506   4.004  17.739  0.00  0.00    +0.000 NA
ATOM      3  H   UNL     1       1.924   4.923  17.574  0.00  0.00    +0.000 HD
BRANCH   2   5
ATOM      4  C   UNL     1       0.706   2.413  19.500  0.00  0.00    +0.000 C 
ATOM      5  C   UNL     1       1.100   3.855  19.144  0.00  0.00    +0.000 C 
BRANCH   5   6
ATOM      6  C   UNL     1       2.242   4.293  20.088  0.00  0.00    +0.000 C 
BRANCH   6   7
ATOM      7  C   UNL     1       1.956   5.583  20.864  0.00  0.00    +0.000 C 
BRANCH   7   8
ATOM      8  C   UNL     1       2.029   6.801  19.968  0.00  0.00    +0.000 A 
ATOM      9  C   UNL     1       2.821   6.768  18.796  0.00  0.00    +0.000 A 
ATOM     10  C   UNL     1       2.913   7.883  17.954  0.00  0.00    +0.000 A 
ATOM     11  C   UNL     1       2.215   9.014  18.311  0.00  0.00    +0.000 A 
ATOM     12  C   UNL     1       1.446   9.061  19.450  0.00  0.00    +0.000 A 
ATOM     13  C   UNL     1       1.335   7.976  20.298  0.00  0.00    +0.000 A 
ATOM     14  O   UNL     1       0.846  10.269  19.621  0.00  0.00    +0.000 OA
ATOM     15  C   UNL     1       1.348  10.986  18.473  0.00  0.00    +0.000 C 
ATOM     16  O   UNL     1       2.192  10.187  17.620  0.00  0.00    +0.000 OA
ENDBRANCH   7   8
ENDBRANCH   6   7
ENDBRANCH   5   6
ENDBRANCH   2   5
ENDBRANCH   1   2
BRANCH   1  17
ATOM     17  C   UNL     1       3.758   2.939  18.144  0.00  0.00    +0.000 C 
BRANCH  17  18
ATOM     18  C   UNL     1       4.823   3.856  17.562  0.00  0.00    +0.000 A 
ATOM     19  C   UNL     1       4.903   4.050  16.176  0.00  0.00    +0.000 A 
ATOM     20  C   UNL     1       5.895   4.865  15.623  0.00  0.00    +0.000 A 
ATOM     21  C   UNL     1       6.823   5.506  16.448  0.00  0.00    +0.000 A 
ATOM     22  C   UNL     1       6.768   5.337  17.838  0.00  0.00    +0.000 A 
ATOM     23  C   UNL     1       5.761   4.513  18.378  0.00  0.00    +0.000 A 
BRANCH  22  24
ATOM     24  C   UNL     1       7.710   5.975  18.809  0.00  0.00    +0.000 C 
ATOM     25  N   UNL     1       8.073   5.260  19.911  0.00  0.00    +0.000 N 
ATOM     26  O   UNL     1       8.149   7.105  18.629  0.00  0.00    +0.000 OA
ATOM     27  H   UNL     1       7.712   4.324  20.065  0.00  0.00    +0.000 HD
ATOM     28  H   UNL     1       8.711   5.671  20.577  0.00  0.00    +0.000 HD
ENDBRANCH  22  24
BRANCH  21  29
ATOM     29  O   UNL     1       7.784   6.294  15.868  0.00  0.00    +0.000 OA
ATOM     30  H   UNL     1       7.545   7.228  16.000  0.00  0.00    +0.000 HD
ENDBRANCH  21  29
ENDBRANCH  17  18
BRANCH  17  31
ATOM     31  O   UNL     1       4.260   1.600  18.219  0.00  0.00    +0.000 OA
ATOM     32  H   UNL     1       5.229   1.640  18.185  0.00  0.00    +0.000 HD
ENDBRANCH  17  31
ENDBRANCH   1  17
TORSDOF 10
ENDMDL
MODEL 8
REMARK VINA RESULT:      -7.5      2.130      5.697
REMARK  Name = 
REMARK  11 active torsions:
REMARK  status: ('A' for Active; 'I' for Inactive)
REMARK    1  A    between atoms: C_1  and  C_2
REMARK    2  A    between atoms: C_2  and  C_3
REMARK    3  A    between atoms: C_2  and  N_14
REMARK    4  A    between atoms: C_3  and  C_4
REMARK    5  A    between atoms: C_4  and  C_5
REMARK    6  A    between atoms: N_14  and  C_15
REMARK    7  A    between atoms: C_15  and  C_16
REMARK    8  A    between atoms: C_16  and  O_17
REMARK    9  A    between atoms: C_16  and  C_18
REMARK   10  A    between atoms: C_21  and  O_22
REMARK   11  A    between atoms: C_23  and  C_24
REMARK                            x       y       z     vdW  Elec       q    Type
REMARK                         _______ _______ _______ _____ _____    ______ ____
ROOT
ATOM      1  C   UNL     1       1.263   4.394  20.110  0.00  0.00    +0.000 C 
ENDROOT
BRANCH   1   2
ATOM      2  N   UNL     1       2.095   3.235  19.741  0.00  0.00    +0.000 NA
ATOM      3  H   UNL     1       3.051   3.407  20.064  0.00  0.00    +0.000 HD
BRANCH   2   5
ATOM      4  C   UNL     1       1.346   4.017  17.483  0.00  0.00    +0.000 C 
ATOM      5  C   UNL     1       2.072   2.938  18.301  0.00  0.00    +0.000 C 
BRANCH   5   6
ATOM      6  C   UNL     1       3.509   2.797  17.753  0.00  0.00    +0.000 C 
BRANCH   6   7
ATOM      7  C   UNL     1       3.922   3.906  16.780  0.00  0.00    +0.000 C 
BRANCH   7   8
ATOM      8  C   UNL     1       5.067   4.731  17.329  0.00  0.00    +0.000 A 
ATOM      9  C   UNL     1       5.728   4.323  18.511  0.00  0.00    +0.000 A 
ATOM     10  C   UNL     1       6.783   5.072  19.046  0.00  0.00    +0.000 A 
ATOM     11  C   UNL     1       7.148   6.223  18.387  0.00  0.00    +0.000 A 
ATOM     12  C   UNL     1       6.510   6.635  17.241  0.00  0.00    +0.000 A 
ATOM     13  C   UNL     1       5.468   5.915  16.689  0.00  0.00    +0.000 A 
ATOM     14  O   UNL     1       7.020   7.798  16.753  0.00  0.00    +0.000 OA
ATOM     15  C   UNL     1       8.034   8.085  17.740  0.00  0.00    +0.000 C 
ATOM     16  O   UNL     1       8.142   7.074  18.763  0.00  0.00    +0.000 OA
ENDBRANCH   7   8
ENDBRANCH   6   7
ENDBRANCH   5   6
ENDBRANCH   2   5
ENDBRANCH   1   2
BRANCH   1  17
ATOM     17  C   UNL     1       2.079   5.555  20.734  0.00  0.00    +0.000 C 
BRANCH  17  18
ATOM     18  C   UNL     1       1.990   6.814  19.886  0.00  0.00    +0.000 A 
ATOM     19  C   UNL     1       2.570   6.845  18.611  0.00  0.00    +0.000 A 
ATOM     20  C   UNL     1       2.524   8.005  17.831  0.00  0.00    +0.000 A 
ATOM     21  C   UNL     1       1.891   9.154  18.311  0.00  0.00    +0.000 A 
ATOM     22  C   UNL     1       1.296   9.155  19.581  0.00  0.00    +0.000 A 
ATOM     23  C   UNL     1       1.352   7.978  20.353  0.00  0.00    +0.000 A 
BRANCH  22  24
ATOM     24  C   UNL     1       0.595  10.328  20.189  0.00  0.00    +0.000 C 
ATOM     25  N   UNL     1       0.511  10.387  21.549  0.00  0.00    +0.000 N 
ATOM     26  O   UNL     1       0.110  11.215  19.497  0.00  0.00    +0.000 OA
ATOM     27  H   UNL     1       0.911   9.655  22.126  0.00  0.00    +0.000 HD
ATOM     28  H   UNL     1       0.045  11.172  21.980  0.00  0.00    +0.000 HD
ENDBRANCH  22  24
BRANCH  21  29
ATOM     29  O   UNL     1       1.870  10.273  17.519  0.00  0.00    +0.000 OA
ATOM     30  H   UNL     1       2.556  10.185  16.833  0.00  0.00    +0.000 HD
ENDBRANCH  21  29
ENDBRANCH  17  18
BRANCH  17  31
ATOM     31  O   UNL     1       3.449   5.165  20.882  0.00  0.00    +0.000 OA
ATOM     32  H   UNL     1       3.470   4.224  21.118  0.00  0.00    +0.000 HD
ENDBRANCH  17  31
ENDBRANCH   1  17
TORSDOF 10
ENDMDL
MODEL 9
REMARK VINA RESULT:      -7.4      1.042      1.058
REMARK  Name = 
REMARK  11 active torsions:
REMARK  status: ('A' for Active; 'I' for Inactive)
REMARK    1  A    between atoms: C_1  and  C_2
REMARK    2  A    between atoms: C_2  and  C_3
REMARK    3  A    between atoms: C_2  and  N_14
REMARK    4  A    between atoms: C_3  and  C_4
REMARK    5  A    between atoms: C_4  and  C_5
REMARK    6  A    between atoms: N_14  and  C_15
REMARK    7  A    between atoms: C_15  and  C_16
REMARK    8  A    between atoms: C_16  and  O_17
REMARK    9  A    between atoms: C_16  and  C_18
REMARK   10  A    between atoms: C_21  and  O_22
REMARK   11  A    between atoms: C_23  and  C_24
REMARK                            x       y       z     vdW  Elec       q    Type
REMARK                         _______ _______ _______ _____ _____    ______ ____
ROOT
ATOM      1  C   UNL     1       3.678   2.593  20.058  0.00  0.00    +0.000 C 
ENDROOT
BRANCH   1   2
ATOM      2  N   UNL     1       2.284   2.408  19.616  0.00  0.00    +0.000 NA
ATOM      3  H   UNL     1       2.160   2.892  18.724  0.00  0.00    +0.000 HD
BRANCH   2   5
ATOM      4  C   UNL     1       1.818   2.789  22.048  0.00  0.00    +0.000 C 
ATOM      5  C   UNL     1       1.295   2.866  20.605  0.00  0.00    +0.000 C 
BRANCH   5   6
ATOM      6  C   UNL     1       0.877   4.325  20.317  0.00  0.00    +0.000 C 
BRANCH   6   7
ATOM      7  C   UNL     1       1.841   5.377  20.876  0.00  0.00    +0.000 C 
BRANCH   7   8
ATOM      8  C   UNL     1       1.923   6.592  19.976  0.00  0.00    +0.000 A 
ATOM      9  C   UNL     1       2.536   6.490  18.706  0.00  0.00    +0.000 A 
ATOM     10  C   UNL     1       2.634   7.599  17.857  0.00  0.00    +0.000 A 
ATOM     11  C   UNL     1       2.121   8.795  18.306  0.00  0.00    +0.000 A 
ATOM     12  C   UNL     1       1.527   8.909  19.542  0.00  0.00    +0.000 A 
ATOM     13  C   UNL     1       1.415   7.832  20.398  0.00  0.00    +0.000 A 
ATOM     14  O   UNL     1       1.093  10.174  19.793  0.00  0.00    +0.000 OA
ATOM     15  C   UNL     1       1.506  10.847  18.585  0.00  0.00    +0.000 C 
ATOM     16  O   UNL     1       2.131   9.972  17.623  0.00  0.00    +0.000 OA
ENDBRANCH   7   8
ENDBRANCH   6   7
ENDBRANCH   5   6
ENDBRANCH   2   5
ENDBRANCH   1   2
BRANCH   1  17
ATOM     17  C   UNL     1       4.714   2.284  18.947  0.00  0.00    +0.000 C 
BRANCH  17  18
ATOM     18  C   UNL     1       4.957   3.498  18.063  0.00  0.00    +0.000 A 
ATOM     19  C   UNL     1       4.206   3.678  16.894  0.00  0.00    +0.000 A 
ATOM     20  C   UNL     1       4.439   4.772  16.055  0.00  0.00    +0.000 A 
ATOM     21  C   UNL     1       5.425   5.709  16.373  0.00  0.00    +0.000 A 
ATOM     22  C   UNL     1       6.191   5.561  17.538  0.00  0.00    +0.000 A 
ATOM     23  C   UNL     1       5.942   4.453  18.373  0.00  0.00    +0.000 A 
BRANCH  22  24
ATOM     24  C   UNL     1       7.268   6.503  17.972  0.00  0.00    +0.000 C 
ATOM     25  N   UNL     1       7.434   7.655  17.260  0.00  0.00    +0.000 N 
ATOM     26  O   UNL     1       7.984   6.259  18.936  0.00  0.00    +0.000 OA
ATOM     27  H   UNL     1       6.844   7.861  16.461  0.00  0.00    +0.000 HD
ATOM     28  H   UNL     1       8.154   8.306  17.539  0.00  0.00    +0.000 HD
ENDBRANCH  22  24
BRANCH  21  29
ATOM     29  O   UNL     1       5.626   6.766  15.523  0.00  0.00    +0.000 OA
ATOM     30  H   UNL     1       5.905   7.539  16.044  0.00  0.00    +0.000 HD
ENDBRANCH  21  29
ENDBRANCH  17  18
BRANCH  17  31
ATOM     31  O   UNL     1       4.260   1.185  18.148  0.00  0.00    +0.000 OA
ATOM     32  H   UNL     1       4.722   0.385  18.448  0.00  0.00    +0.000 HD
ENDBRANCH  17  31
ENDBRANCH   1  17
TORSDOF 10
ENDMDL
