MODEL 1
REMARK VINA RESULT:      -7.5      0.000      0.000
REMARK  Name = 
REMARK  21 active torsions:
REMARK  status: ('A' for Active; 'I' for Inactive)
REMARK    1  A    between atoms: C_1  and  C_2
REMARK    2  A    between atoms: C_2  and  O_3
REMARK    3  A    between atoms: O_3  and  C_4
REMARK    4  A    between atoms: C_4  and  C_6
REMARK    5  A    between atoms: C_6  and  O_7
REMARK    6  A    between atoms: O_7  and  C_8
REMARK    7  A    between atoms: C_11  and  C_12
REMARK    8  A    between atoms: C_15  and  O_16
REMARK    9  A    between atoms: O_16  and  C_17
REMARK   10  A    between atoms: C_17  and  C_18
REMARK   11  A    between atoms: C_18  and  N_19
REMARK   12  A    between atoms: N_19  and  C_20
REMARK   13  A    between atoms: N_19  and  C_21
REMARK   14  A    between atoms: C_22  and  C_23
REMARK   15  A    between atoms: C_23  and  C_24
REMARK   16  A    between atoms: C_23  and  C_25
REMARK   17  A    between atoms: C_25  and  C_26
REMARK   18  A    between atoms: C_29  and  C_30
REMARK   19  A    between atoms: C_30  and  C_31
REMARK   20  A    between atoms: C_30  and  C_32
REMARK   21  A    between atoms: C_32  and  C_33
REMARK                            x       y       z     vdW  Elec       q    Type
REMARK                         _______ _______ _______ _____ _____    ______ ____
ROOT
ATOM      1  C   UNL     1       3.596   5.462  17.820  0.00  0.00    +0.000 A 
ATOM      2  C   UNL     1       3.638   6.828  17.485  0.00  0.00    +0.000 A 
ATOM      3  C   UNL     1       2.936   7.785  18.223  0.00  0.00    +0.000 A 
ATOM      4  C   UNL     1       2.180   7.418  19.336  0.00  0.00    +0.000 A 
ATOM      5  C   UNL     1       2.101   6.051  19.629  0.00  0.00    +0.000 A 
ATOM      6  C   UNL     1       2.772   5.051  18.880  0.00  0.00    +0.000 A 
ENDROOT
BRANCH   4   7
ATOM      7  C   UNL     1       1.505   8.451  20.148  0.00  0.00    +0.000 A 
ATOM      8  C   UNL     1       1.105   8.171  21.451  0.00  0.00    +0.000 A 
ATOM      9  C   UNL     1       0.512   9.147  22.244  0.00  0.00    +0.000 A 
ATOM     10  C   UNL     1       0.328  10.468  21.793  0.00  0.00    +0.000 A 
ATOM     11  C   UNL     1       0.648  10.770  20.460  0.00  0.00    +0.000 A 
ATOM     12  C   UNL     1       1.236   9.744  19.669  0.00  0.00    +0.000 A 
BRANCH  11  13
ATOM     13  C   UNL     1       0.409  12.091  19.738  0.00  0.00    +0.000 C 
ATOM     14  C   UNL     1       1.714  12.619  19.118  0.00  0.00    +0.000 C 
BRANCH  13  15
ATOM     15  C   UNL     1      -0.732  12.169  18.708  0.00  0.00    +0.000 C 
ATOM     16  C   UNL     1      -2.024  11.532  19.196  0.00  0.00    +0.000 C 
ENDBRANCH  13  15
ENDBRANCH  11  13
BRANCH  10  17
ATOM     17  O   UNL     1      -0.128  11.459  22.648  0.00  0.00    +0.000 OA
BRANCH  17  18
ATOM     18  C   UNL     1      -1.521  11.282  22.974  0.00  0.00    +0.000 C 
BRANCH  18  19
ATOM     19  C   UNL     1      -2.414  12.513  22.776  0.00  0.00    +0.000 C 
BRANCH  19  20
ATOM     20  N   UNL     1      -3.825  12.209  23.137  0.00  0.00    +0.000 NA
ATOM     21  C   UNL     1      -4.135  12.529  24.534  0.00  0.00    +0.000 C 
ATOM     22  C   UNL     1      -4.753  12.913  22.254  0.00  0.00    +0.000 C 
ENDBRANCH  19  20
ENDBRANCH  18  19
ENDBRANCH  17  18
ENDBRANCH  10  17
ENDBRANCH   4   7
BRANCH   6  23
ATOM     23  C   UNL     1       2.497   3.606  19.290  0.00  0.00    +0.000 C 
ATOM     24  C   UNL     1       3.707   3.010  20.023  0.00  0.00    +0.000 C 
BRANCH  23  25
ATOM     25  C   UNL     1       1.208   3.339  20.082  0.00  0.00    +0.000 C 
ATOM     26  C   UNL     1       1.439   2.792  21.483  0.00  0.00    +0.000 C 
ENDBRANCH  23  25
ENDBRANCH   6  23
BRANCH   1  27
ATOM     27  O   UNL     1       4.336   4.527  17.126  0.00  0.00    +0.000 OA
BRANCH  27  28
ATOM     28  C   UNL     1       4.953   5.042  15.946  0.00  0.00    +0.000 C 
BRANCH  28  29
ATOM     29  C   UNL     1       6.469   4.967  15.826  0.00  0.00    +0.000 C 
ATOM     30  O   UNL     1       7.105   4.437  14.928  0.00  0.00    +0.000 OA
BRANCH  29  31
ATOM     31  O   UNL     1       7.007   5.681  16.867  0.00  0.00    +0.000 OA
BRANCH  31  33
ATOM     32  C   UNL     1       7.767   5.784  19.176  0.00  0.00    +0.000 C 
ATOM     33  C   UNL     1       7.582   4.924  17.942  0.00  0.00    +0.000 C 
ENDBRANCH  31  33
ENDBRANCH  29  31
ENDBRANCH  28  29
ENDBRANCH  27  28
ENDBRANCH   1  27
TORSDOF 14
ENDMDL
MODEL 2
REMARK VINA RESULT:      -7.4      1.856      3.520
REMARK  Name = 
REMARK  21 active torsions:
REMARK  status: ('A' for Active; 'I' for Inactive)
REMARK    1  A    between atoms: C_1  and  C_2
REMARK    2  A    between atoms: C_2  and  O_3
REMARK    3  A    between atoms: O_3  and  C_4
REMARK    4  A    between atoms: C_4  and  C_6
REMARK    5  A    between atoms: C_6  and  O_7
REMARK    6  A    between atoms: O_7  and  C_8
REMARK    7  A    between atoms: C_11  and  C_12
REMARK    8  A    between atoms: C_15  and  O_16
REMARK    9  A    between atoms: O_16  and  C_17
REMARK   10  A    between atoms: C_17  and  C_18
REMARK   11  A    between atoms: C_18  and  N_19
REMARK   12  A    between atoms: N_19  and  C_20
REMARK   13  A    between atoms: N_19  and  C_21
REMARK   14  A    between atoms: C_22  and  C_23
REMARK   15  A    between atoms: C_23  and  C_24
REMARK   16  A    between atoms: C_23  and  C_25
REMARK   17  A    between atoms: C_25  and  C_26
REMARK   18  A    between atoms: C_29  and  C_30
REMARK   19  A    between atoms: C_30  and  C_31
REMARK   20  A    between atoms: C_30  and  C_32
REMARK   21  A    between atoms: C_32  and  C_33
REMARK                            x       y       z     vdW  Elec       q    Type
REMARK                         _______ _______ _______ _____ _____    ______ ____
ROOT
ATOM      1  C   UNL     1       4.344   5.142  17.678  0.00  0.00    +0.000 A 
ATOM      2  C   UNL     1       4.581   6.389  17.070  0.00  0.00    +0.000 A 
ATOM      3  C   UNL     1       3.803   7.510  17.370  0.00  0.00    +0.000 A 
ATOM      4  C   UNL     1       2.767   7.436  18.302  0.00  0.00    +0.000 A 
ATOM      5  C   UNL     1       2.505   6.179  18.861  0.00  0.00    +0.000 A 
ATOM      6  C   UNL     1       3.253   5.014  18.553  0.00  0.00    +0.000 A 
ENDROOT
BRANCH   4   7
ATOM      7  C   UNL     1       2.003   8.647  18.661  0.00  0.00    +0.000 A 
ATOM      8  C   UNL     1       2.104   9.798  17.886  0.00  0.00    +0.000 A 
ATOM      9  C   UNL     1       1.355  10.931  18.185  0.00  0.00    +0.000 A 
ATOM     10  C   UNL     1       0.430  10.958  19.245  0.00  0.00    +0.000 A 
ATOM     11  C   UNL     1       0.354   9.844  20.096  0.00  0.00    +0.000 A 
ATOM     12  C   UNL     1       1.148   8.708  19.774  0.00  0.00    +0.000 A 
BRANCH  11  13
ATOM     13  C   UNL     1      -0.477   9.718  21.367  0.00  0.00    +0.000 C 
ATOM     14  C   UNL     1      -0.430   8.279  21.910  0.00  0.00    +0.000 C 
BRANCH  13  15
ATOM     15  C   UNL     1      -0.233  10.720  22.508  0.00  0.00    +0.000 C 
ATOM     16  C   UNL     1      -1.490  11.464  22.932  0.00  0.00    +0.000 C 
ENDBRANCH  13  15
ENDBRANCH  11  13
BRANCH  10  17
ATOM     17  O   UNL     1      -0.411  12.044  19.433  0.00  0.00    +0.000 OA
BRANCH  17  18
ATOM     18  C   UNL     1      -1.414  12.127  18.401  0.00  0.00    +0.000 C 
BRANCH  18  19
ATOM     19  C   UNL     1      -2.827  11.691  18.807  0.00  0.00    +0.000 C 
BRANCH  19  20
ATOM     20  N   UNL     1      -3.485  10.933  17.709  0.00  0.00    +0.000 NA
ATOM     21  C   UNL     1      -4.690  11.597  17.202  0.00  0.00    +0.000 C 
ATOM     22  C   UNL     1      -2.554  10.696  16.606  0.00  0.00    +0.000 C 
ENDBRANCH  19  20
ENDBRANCH  18  19
ENDBRANCH  17  18
ENDBRANCH  10  17
ENDBRANCH   4   7
BRANCH   6  23
ATOM     23  C   UNL     1       2.766   3.715  19.189  0.00  0.00    +0.000 C 
ATOM     24  C   UNL     1       1.950   4.002  20.456  0.00  0.00    +0.000 C 
BRANCH  23  25
ATOM     25  C   UNL     1       2.013   2.732  18.279  0.00  0.00    +0.000 C 
ATOM     26  C   UNL     1       0.577   2.466  18.703  0.00  0.00    +0.000 C 
ENDBRANCH  23  25
ENDBRANCH   6  23
BRANCH   1  27
ATOM     27  O   UNL     1       5.151   4.052  17.425  0.00  0.00    +0.000 OA
BRANCH  27  28
ATOM     28  C   UNL     1       6.489   4.398  17.067  0.00  0.00    +0.000 C 
BRANCH  28  29
ATOM     29  C   UNL     1       6.858   4.445  15.591  0.00  0.00    +0.000 C 
ATOM     30  O   UNL     1       7.686   5.175  15.067  0.00  0.00    +0.000 OA
BRANCH  29  31
ATOM     31  O   UNL     1       6.155   3.455  14.951  0.00  0.00    +0.000 OA
BRANCH  31  33
ATOM     32  C   UNL     1       6.417   3.669  12.542  0.00  0.00    +0.000 C 
ATOM     33  C   UNL     1       5.491   3.816  13.732  0.00  0.00    +0.000 C 
ENDBRANCH  31  33
ENDBRANCH  29  31
ENDBRANCH  28  29
ENDBRANCH  27  28
ENDBRANCH   1  27
TORSDOF 14
ENDMDL
MODEL 3
REMARK VINA RESULT:      -7.3      1.192      1.475
REMARK  Name = 
REMARK  21 active torsions:
REMARK  status: ('A' for Active; 'I' for Inactive)
REMARK    1  A    between atoms: C_1  and  C_2
REMARK    2  A    between atoms: C_2  and  O_3
REMARK    3  A    between atoms: O_3  and  C_4
REMARK    4  A    between atoms: C_4  and  C_6
REMARK    5  A    between atoms: C_6  and  O_7
REMARK    6  A    between atoms: O_7  and  C_8
REMARK    7  A    between atoms: C_11  and  C_12
REMARK    8  A    between atoms: C_15  and  O_16
REMARK    9  A    between atoms: O_16  and  C_17
REMARK   10  A    between atoms: C_17  and  C_18
REMARK   11  A    between atoms: C_18  and  N_19
REMARK   12  A    between atoms: N_19  and  C_20
REMARK   13  A    between atoms: N_19  and  C_21
REMARK   14  A    between atoms: C_22  and  C_23
REMARK   15  A    between atoms: C_23  and  C_24
REMARK   16  A    between atoms: C_23  and  C_25
REMARK   17  A    between atoms: C_25  and  C_26
REMARK   18  A    between atoms: C_29  and  C_30
REMARK   19  A    between atoms: C_30  and  C_31
REMARK   20  A    between atoms: C_30  and  C_32
REMARK   21  A    between atoms: C_32  and  C_33
REMARK                            x       y       z     vdW  Elec       q    Type
REMARK                         _______ _______ _______ _____ _____    ______ ____
ROOT
ATOM      1  C   UNL     1       3.280   6.223  17.916  0.00  0.00    +0.000 A 
ATOM      2  C   UNL     1       3.204   7.603  17.651  0.00  0.00    +0.000 A 
ATOM      3  C   UNL     1       2.464   8.466  18.464  0.00  0.00    +0.000 A 
ATOM      4  C   UNL     1       1.783   7.987  19.584  0.00  0.00    +0.000 A 
ATOM      5  C   UNL     1       1.821   6.606  19.809  0.00  0.00    +0.000 A 
ATOM      6  C   UNL     1       2.533   5.698  18.984  0.00  0.00    +0.000 A 
ENDROOT
BRANCH   4   7
ATOM      7  C   UNL     1       1.067   8.924  20.474  0.00  0.00    +0.000 A 
ATOM      8  C   UNL     1       0.486   8.468  21.654  0.00  0.00    +0.000 A 
ATOM      9  C   UNL     1      -0.151   9.346  22.524  0.00  0.00    +0.000 A 
ATOM     10  C   UNL     1      -0.201  10.732  22.285  0.00  0.00    +0.000 A 
ATOM     11  C   UNL     1       0.306  11.220  21.071  0.00  0.00    +0.000 A 
ATOM     12  C   UNL     1       0.934  10.294  20.193  0.00  0.00    +0.000 A 
BRANCH  11  13
ATOM     13  C   UNL     1       0.236  12.655  20.560  0.00  0.00    +0.000 C 
ATOM     14  C   UNL     1       1.575  13.077  19.931  0.00  0.00    +0.000 C 
BRANCH  13  15
ATOM     15  C   UNL     1      -0.928  13.049  19.634  0.00  0.00    +0.000 C 
ATOM     16  C   UNL     1      -0.500  13.258  18.189  0.00  0.00    +0.000 C 
ENDBRANCH  13  15
ENDBRANCH  11  13
BRANCH  10  17
ATOM     17  O   UNL     1      -0.709  11.603  23.236  0.00  0.00    +0.000 OA
BRANCH  17  18
ATOM     18  C   UNL     1      -2.142  11.720  23.141  0.00  0.00    +0.000 C 
BRANCH  18  19
ATOM     19  C   UNL     1      -2.688  13.145  22.995  0.00  0.00    +0.000 C 
BRANCH  19  20
ATOM     20  N   UNL     1      -3.401  13.570  24.229  0.00  0.00    +0.000 NA
ATOM     21  C   UNL     1      -4.171  14.805  24.044  0.00  0.00    +0.000 C 
ATOM     22  C   UNL     1      -4.281  12.510  24.716  0.00  0.00    +0.000 C 
ENDBRANCH  19  20
ENDBRANCH  18  19
ENDBRANCH  17  18
ENDBRANCH  10  17
ENDBRANCH   4   7
BRANCH   6  23
ATOM     23  C   UNL     1       2.386   4.218  19.328  0.00  0.00    +0.000 C 
ATOM     24  C   UNL     1       1.754   4.043  20.715  0.00  0.00    +0.000 C 
BRANCH  23  25
ATOM     25  C   UNL     1       1.670   3.331  18.299  0.00  0.00    +0.000 C 
ATOM     26  C   UNL     1       0.738   2.295  18.910  0.00  0.00    +0.000 C 
ENDBRANCH  23  25
ENDBRANCH   6  23
BRANCH   1  27
ATOM     27  O   UNL     1       4.059   5.383  17.147  0.00  0.00    +0.000 OA
BRANCH  27  28
ATOM     28  C   UNL     1       5.426   5.334  17.555  0.00  0.00    +0.000 C 
BRANCH  28  29
ATOM     29  C   UNL     1       6.497   5.762  16.561  0.00  0.00    +0.000 C 
ATOM     30  O   UNL     1       6.325   6.076  15.392  0.00  0.00    +0.000 OA
BRANCH  29  31
ATOM     31  O   UNL     1       7.693   5.820  17.232  0.00  0.00    +0.000 OA
BRANCH  31  33
ATOM     32  C   UNL     1       7.830   8.219  17.614  0.00  0.00    +0.000 C 
ATOM     33  C   UNL     1       7.824   6.836  18.235  0.00  0.00    +0.000 C 
ENDBRANCH  31  33
ENDBRANCH  29  31
ENDBRANCH  28  29
ENDBRANCH  27  28
ENDBRANCH   1  27
TORSDOF 14
ENDMDL
MODEL 4
REMARK VINA RESULT:      -7.2      1.108      1.926
REMARK  Name = 
REMARK  21 active torsions:
REMARK  status: ('A' for Active; 'I' for Inactive)
REMARK    1  A    between atoms: C_1  and  C_2
REMARK    2  A    between atoms: C_2  and  O_3
REMARK    3  A    between atoms: O_3  and  C_4
REMARK    4  A    between atoms: C_4  and  C_6
REMARK    5  A    between atoms: C_6  and  O_7
REMARK    6  A    between atoms: O_7  and  C_8
REMARK    7  A    between atoms: C_11  and  C_12
REMARK    8  A    between atoms: C_15  and  O_16
REMARK    9  A    between atoms: O_16  and  C_17
REMARK   10  A    between atoms: C_17  and  C_18
REMARK   11  A    between atoms: C_18  and  N_19
REMARK   12  A    between atoms: N_19  and  C_20
REMARK   13  A    between atoms: N_19  and  C_21
REMARK   14  A    between atoms: C_22  and  C_23
REMARK   15  A    between atoms: C_23  and  C_24
REMARK   16  A    between atoms: C_23  and  C_25
REMARK   17  A    between atoms: C_25  and  C_26
REMARK   18  A    between atoms: C_29  and  C_30
REMARK   19  A    between atoms: C_30  and  C_31
REMARK   20  A    between atoms: C_30  and  C_32
REMARK   21  A    between atoms: C_32  and  C_33
REMARK                            x       y       z     vdW  Elec       q    Type
REMARK                         _______ _______ _______ _____ _____    ______ ____
ROOT
ATOM      1  C   UNL     1       3.596   4.844  18.753  0.00  0.00    +0.000 A 
ATOM      2  C   UNL     1       3.735   6.134  18.208  0.00  0.00    +0.000 A 
ATOM      3  C   UNL     1       3.027   7.225  18.718  0.00  0.00    +0.000 A 
ATOM      4  C   UNL     1       2.164   7.076  19.804  0.00  0.00    +0.000 A 
ATOM      5  C   UNL     1       1.992   5.779  20.305  0.00  0.00    +0.000 A 
ATOM      6  C   UNL     1       2.668   4.645  19.789  0.00  0.00    +0.000 A 
ENDROOT
BRANCH   4   7
ATOM      7  C   UNL     1       1.480   8.253  20.376  0.00  0.00    +0.000 A 
ATOM      8  C   UNL     1       1.243   8.332  21.745  0.00  0.00    +0.000 A 
ATOM      9  C   UNL     1       0.643   9.454  22.304  0.00  0.00    +0.000 A 
ATOM     10  C   UNL     1       0.289  10.577  21.532  0.00  0.00    +0.000 A 
ATOM     11  C   UNL     1       0.442  10.506  20.139  0.00  0.00    +0.000 A 
ATOM     12  C   UNL     1       1.042   9.335  19.596  0.00  0.00    +0.000 A 
BRANCH  11  13
ATOM     13  C   UNL     1       0.005  11.548  19.116  0.00  0.00    +0.000 C 
ATOM     14  C   UNL     1      -1.528  11.665  19.075  0.00  0.00    +0.000 C 
BRANCH  13  15
ATOM     15  C   UNL     1       0.639  12.948  19.177  0.00  0.00    +0.000 C 
ATOM     16  C   UNL     1      -0.323  14.059  18.780  0.00  0.00    +0.000 C 
ENDBRANCH  13  15
ENDBRANCH  11  13
BRANCH  10  17
ATOM     17  O   UNL     1      -0.171  11.740  22.131  0.00  0.00    +0.000 OA
BRANCH  17  18
ATOM     18  C   UNL     1      -1.331  11.496  22.949  0.00  0.00    +0.000 C 
BRANCH  18  19
ATOM     19  C   UNL     1      -2.273  12.690  23.144  0.00  0.00    +0.000 C 
BRANCH  19  20
ATOM     20  N   UNL     1      -3.687  12.239  23.248  0.00  0.00    +0.000 NA
ATOM     21  C   UNL     1      -4.299  12.579  24.537  0.00  0.00    +0.000 C 
ATOM     22  C   UNL     1      -4.493  12.793  22.161  0.00  0.00    +0.000 C 
ENDBRANCH  19  20
ENDBRANCH  18  19
ENDBRANCH  17  18
ENDBRANCH  10  17
ENDBRANCH   4   7
BRANCH   6  23
ATOM     23  C   UNL     1       2.287   3.299  20.400  0.00  0.00    +0.000 C 
ATOM     24  C   UNL     1       2.319   3.369  21.933  0.00  0.00    +0.000 C 
BRANCH  23  25
ATOM     25  C   UNL     1       0.973   2.663  19.922  0.00  0.00    +0.000 C 
ATOM     26  C   UNL     1       0.913   2.408  18.423  0.00  0.00    +0.000 C 
ENDBRANCH  23  25
ENDBRANCH   6  23
BRANCH   1  27
ATOM     27  O   UNL     1       4.341   3.780  18.287  0.00  0.00    +0.000 OA
BRANCH  27  28
ATOM     28  C   UNL     1       4.620   3.843  16.889  0.00  0.00    +0.000 C 
BRANCH  28  29
ATOM     29  C   UNL     1       5.967   4.394  16.440  0.00  0.00    +0.000 C 
ATOM     30  O   UNL     1       7.023   4.326  17.051  0.00  0.00    +0.000 OA
BRANCH  29  31
ATOM     31  O   UNL     1       5.809   4.911  15.179  0.00  0.00    +0.000 OA
BRANCH  31  33
ATOM     32  C   UNL     1       6.029   3.676  13.094  0.00  0.00    +0.000 C 
ATOM     33  C   UNL     1       6.735   4.467  14.177  0.00  0.00    +0.000 C 
ENDBRANCH  31  33
ENDBRANCH  29  31
ENDBRANCH  28  29
ENDBRANCH  27  28
ENDBRANCH   1  27
TORSDOF 14
ENDMDL
MODEL 5
REMARK VINA RESULT:      -7.2      3.311      9.143
REMARK  Name = 
REMARK  21 active torsions:
REMARK  status: ('A' for Active; 'I' for Inactive)
REMARK    1  A    between atoms: C_1  and  C_2
REMARK    2  A    between atoms: C_2  and  O_3
REMARK    3  A    between atoms: O_3  and  C_4
REMARK    4  A    between atoms: C_4  and  C_6
REMARK    5  A    between atoms: C_6  and  O_7
REMARK    6  A    between atoms: O_7  and  C_8
REMARK    7  A    between atoms: C_11  and  C_12
REMARK    8  A    between atoms: C_15  and  O_16
REMARK    9  A    between atoms: O_16  and  C_17
REMARK   10  A    between atoms: C_17  and  C_18
REMARK   11  A    between atoms: C_18  and  N_19
REMARK   12  A    between atoms: N_19  and  C_20
REMARK   13  A    between atoms: N_19  and  C_21
REMARK   14  A    between atoms: C_22  and  C_23
REMARK   15  A    between atoms: C_23  and  C_24
REMARK   16  A    between atoms: C_23  and  C_25
REMARK   17  A    between atoms: C_25  and  C_26
REMARK   18  A    between atoms: C_29  and  C_30
REMARK   19  A    between atoms: C_30  and  C_31
REMARK   20  A    between atoms: C_30  and  C_32
REMARK   21  A    between atoms: C_32  and  C_33
REMARK                            x       y       z     vdW  Elec       q    Type
REMARK                         _______ _______ _______ _____ _____    ______ ____
ROOT
ATOM      1  C   UNL     1      -0.749  10.717  19.119  0.00  0.00    +0.000 A 
ATOM      2  C   UNL     1      -0.201  10.286  17.896  0.00  0.00    +0.000 A 
ATOM      3  C   UNL     1       0.811   9.324  17.846  0.00  0.00    +0.000 A 
ATOM      4  C   UNL     1       1.305   8.741  19.013  0.00  0.00    +0.000 A 
ATOM      5  C   UNL     1       0.792   9.216  20.227  0.00  0.00    +0.000 A 
ATOM      6  C   UNL     1      -0.210  10.215  20.315  0.00  0.00    +0.000 A 
ENDROOT
BRANCH   4   7
ATOM      7  C   UNL     1       2.323   7.673  18.937  0.00  0.00    +0.000 A 
ATOM      8  C   UNL     1       2.348   6.657  19.888  0.00  0.00    +0.000 A 
ATOM      9  C   UNL     1       3.270   5.620  19.802  0.00  0.00    +0.000 A 
ATOM     10  C   UNL     1       4.185   5.518  18.737  0.00  0.00    +0.000 A 
ATOM     11  C   UNL     1       4.242   6.562  17.801  0.00  0.00    +0.000 A 
ATOM     12  C   UNL     1       3.298   7.619  17.928  0.00  0.00    +0.000 A 
BRANCH  11  13
ATOM     13  C   UNL     1       5.237   6.712  16.656  0.00  0.00    +0.000 C 
ATOM     14  C   UNL     1       6.661   6.928  17.194  0.00  0.00    +0.000 C 
BRANCH  13  15
ATOM     15  C   UNL     1       5.249   5.644  15.549  0.00  0.00    +0.000 C 
ATOM     16  C   UNL     1       6.580   4.915  15.434  0.00  0.00    +0.000 C 
ENDBRANCH  13  15
ENDBRANCH  11  13
BRANCH  10  17
ATOM     17  O   UNL     1       4.993   4.400  18.594  0.00  0.00    +0.000 OA
BRANCH  17  18
ATOM     18  C   UNL     1       4.240   3.250  18.162  0.00  0.00    +0.000 C 
BRANCH  18  19
ATOM     19  C   UNL     1       3.856   2.252  19.262  0.00  0.00    +0.000 C 
BRANCH  19  20
ATOM     20  N   UNL     1       2.386   2.029  19.288  0.00  0.00    +0.000 NA
ATOM     21  C   UNL     1       1.769   2.460  20.547  0.00  0.00    +0.000 C 
ATOM     22  C   UNL     1       1.735   2.703  18.166  0.00  0.00    +0.000 C 
ENDBRANCH  19  20
ENDBRANCH  18  19
ENDBRANCH  17  18
ENDBRANCH  10  17
ENDBRANCH   4   7
BRANCH   6  23
ATOM     23  C   UNL     1      -0.582  10.672  21.723  0.00  0.00    +0.000 C 
ATOM     24  C   UNL     1       0.061   9.762  22.778  0.00  0.00    +0.000 C 
BRANCH  23  25
ATOM     25  C   UNL     1      -0.331  12.148  22.066  0.00  0.00    +0.000 C 
ATOM     26  C   UNL     1       0.766  12.802  21.240  0.00  0.00    +0.000 C 
ENDBRANCH  23  25
ENDBRANCH   6  23
BRANCH   1  27
ATOM     27  O   UNL     1      -1.789  11.623  19.163  0.00  0.00    +0.000 OA
BRANCH  27  28
ATOM     28  C   UNL     1      -2.470  11.778  17.918  0.00  0.00    +0.000 C 
BRANCH  28  29
ATOM     29  C   UNL     1      -3.752  10.991  17.689  0.00  0.00    +0.000 C 
ATOM     30  O   UNL     1      -4.789  11.079  18.331  0.00  0.00    +0.000 OA
BRANCH  29  31
ATOM     31  O   UNL     1      -3.575  10.216  16.570  0.00  0.00    +0.000 OA
BRANCH  31  33
ATOM     32  C   UNL     1      -2.954   9.947  14.233  0.00  0.00    +0.000 C 
ATOM     33  C   UNL     1      -3.365  10.908  15.331  0.00  0.00    +0.000 C 
ENDBRANCH  31  33
ENDBRANCH  29  31
ENDBRANCH  28  29
ENDBRANCH  27  28
ENDBRANCH   1  27
TORSDOF 14
ENDMDL
MODEL 6
REMARK VINA RESULT:      -7.1      0.883      1.152
REMARK  Name = 
REMARK  21 active torsions:
REMARK  status: ('A' for Active; 'I' for Inactive)
REMARK    1  A    between atoms: C_1  and  C_2
REMARK    2  A    between atoms: C_2  and  O_3
REMARK    3  A    between atoms: O_3  and  C_4
REMARK    4  A    between atoms: C_4  and  C_6
REMARK    5  A    between atoms: C_6  and  O_7
REMARK    6  A    between atoms: O_7  and  C_8
REMARK    7  A    between atoms: C_11  and  C_12
REMARK    8  A    between atoms: C_15  and  O_16
REMARK    9  A    between atoms: O_16  and  C_17
REMARK   10  A    between atoms: C_17  and  C_18
REMARK   11  A    between atoms: C_18  and  N_19
REMARK   12  A    between atoms: N_19  and  C_20
REMARK   13  A    between atoms: N_19  and  C_21
REMARK   14  A    between atoms: C_22  and  C_23
REMARK   15  A    between atoms: C_23  and  C_24
REMARK   16  A    between atoms: C_23  and  C_25
REMARK   17  A    between atoms: C_25  and  C_26
REMARK   18  A    between atoms: C_29  and  C_30
REMARK   19  A    between atoms: C_30  and  C_31
REMARK   20  A    between atoms: C_30  and  C_32
REMARK   21  A    between atoms: C_32  and  C_33
REMARK                            x       y       z     vdW  Elec       q    Type
REMARK                         _______ _______ _______ _____ _____    ______ ____
ROOT
ATOM      1  C   UNL     1       3.681   5.714  17.485  0.00  0.00    +0.000 A 
ATOM      2  C   UNL     1       3.711   7.111  17.317  0.00  0.00    +0.000 A 
ATOM      3  C   UNL     1       2.996   7.965  18.162  0.00  0.00    +0.000 A 
ATOM      4  C   UNL     1       2.237   7.459  19.218  0.00  0.00    +0.000 A 
ATOM      5  C   UNL     1       2.171   6.066  19.343  0.00  0.00    +0.000 A 
ATOM      6  C   UNL     1       2.856   5.170  18.483  0.00  0.00    +0.000 A 
ENDROOT
BRANCH   4   7
ATOM      7  C   UNL     1       1.548   8.380  20.144  0.00  0.00    +0.000 A 
ATOM      8  C   UNL     1       1.193   7.957  21.421  0.00  0.00    +0.000 A 
ATOM      9  C   UNL     1       0.586   8.826  22.321  0.00  0.00    +0.000 A 
ATOM     10  C   UNL     1       0.344  10.177  22.009  0.00  0.00    +0.000 A 
ATOM     11  C   UNL     1       0.617  10.622  20.706  0.00  0.00    +0.000 A 
ATOM     12  C   UNL     1       1.221   9.703  19.803  0.00  0.00    +0.000 A 
BRANCH  11  13
ATOM     13  C   UNL     1       0.313  11.998  20.126  0.00  0.00    +0.000 C 
ATOM     14  C   UNL     1       1.591  12.849  20.035  0.00  0.00    +0.000 C 
BRANCH  13  15
ATOM     15  C   UNL     1      -0.469  12.081  18.803  0.00  0.00    +0.000 C 
ATOM     16  C   UNL     1      -0.409  13.457  18.156  0.00  0.00    +0.000 C 
ENDBRANCH  13  15
ENDBRANCH  11  13
BRANCH  10  17
ATOM     17  O   UNL     1      -0.125  11.060  22.969  0.00  0.00    +0.000 OA
BRANCH  17  18
ATOM     18  C   UNL     1      -1.551  10.952  23.143  0.00  0.00    +0.000 C 
BRANCH  18  19
ATOM     19  C   UNL     1      -2.365  12.200  22.775  0.00  0.00    +0.000 C 
BRANCH  19  20
ATOM     20  N   UNL     1      -1.876  13.391  23.521  0.00  0.00    +0.000 NA
ATOM     21  C   UNL     1      -1.123  14.321  22.673  0.00  0.00    +0.000 C 
ATOM     22  C   UNL     1      -2.984  14.097  24.162  0.00  0.00    +0.000 C 
ENDBRANCH  19  20
ENDBRANCH  18  19
ENDBRANCH  17  18
ENDBRANCH  10  17
ENDBRANCH   4   7
BRANCH   6  23
ATOM     23  C   UNL     1       2.594   3.684  18.714  0.00  0.00    +0.000 C 
ATOM     24  C   UNL     1       3.710   3.061  19.563  0.00  0.00    +0.000 C 
BRANCH  23  25
ATOM     25  C   UNL     1       1.217   3.297  19.275  0.00  0.00    +0.000 C 
ATOM     26  C   UNL     1       1.230   2.909  20.746  0.00  0.00    +0.000 C 
ENDBRANCH  23  25
ENDBRANCH   6  23
BRANCH   1  27
ATOM     27  O   UNL     1       4.434   4.876  16.688  0.00  0.00    +0.000 OA
BRANCH  27  28
ATOM     28  C   UNL     1       5.299   5.566  15.785  0.00  0.00    +0.000 C 
BRANCH  28  29
ATOM     29  C   UNL     1       6.801   5.354  15.912  0.00  0.00    +0.000 C 
ATOM     30  O   UNL     1       7.532   4.801  15.104  0.00  0.00    +0.000 OA
BRANCH  29  31
ATOM     31  O   UNL     1       7.215   5.975  17.064  0.00  0.00    +0.000 OA
BRANCH  31  33
ATOM     32  C   UNL     1       6.854   5.488  19.420  0.00  0.00    +0.000 C 
ATOM     33  C   UNL     1       7.603   5.127  18.153  0.00  0.00    +0.000 C 
ENDBRANCH  31  33
ENDBRANCH  29  31
ENDBRANCH  28  29
ENDBRANCH  27  28
ENDBRANCH   1  27
TORSDOF 14
ENDMDL
MODEL 7
REMARK VINA RESULT:      -7.1      1.048      1.656
REMARK  Name = 
REMARK  21 active torsions:
REMARK  status: ('A' for Active; 'I' for Inactive)
REMARK    1  A    between atoms: C_1  and  C_2
REMARK    2  A    between atoms: C_2  and  O_3
REMARK    3  A    between atoms: O_3  and  C_4
REMARK    4  A    between atoms: C_4  and  C_6
REMARK    5  A    between atoms: C_6  and  O_7
REMARK    6  A    between atoms: O_7  and  C_8
REMARK    7  A    between atoms: C_11  and  C_12
REMARK    8  A    between atoms: C_15  and  O_16
REMARK    9  A    between atoms: O_16  and  C_17
REMARK   10  A    between atoms: C_17  and  C_18
REMARK   11  A    between atoms: C_18  and  N_19
REMARK   12  A    between atoms: N_19  and  C_20
REMARK   13  A    between atoms: N_19  and  C_21
REMARK   14  A    between atoms: C_22  and  C_23
REMARK   15  A    between atoms: C_23  and  C_24
REMARK   16  A    between atoms: C_23  and  C_25
REMARK   17  A    between atoms: C_25  and  C_26
REMARK   18  A    between atoms: C_29  and  C_30
REMARK   19  A    between atoms: C_30  and  C_31
REMARK   20  A    between atoms: C_30  and  C_32
REMARK   21  A    between atoms: C_32  and  C_33
REMARK                            x       y       z     vdW  Elec       q    Type
REMARK                         _______ _______ _______ _____ _____    ______ ____
ROOT
ATOM      1  C   UNL     1       3.745   5.965  17.648  0.00  0.00    +0.000 A 
ATOM      2  C   UNL     1       3.540   7.311  17.294  0.00  0.00    +0.000 A 
ATOM      3  C   UNL     1       2.784   8.172  18.094  0.00  0.00    +0.000 A 
ATOM      4  C   UNL     1       2.216   7.727  19.288  0.00  0.00    +0.000 A 
ATOM      5  C   UNL     1       2.381   6.373  19.605  0.00  0.00    +0.000 A 
ATOM      6  C   UNL     1       3.113   5.465  18.798  0.00  0.00    +0.000 A 
ENDROOT
BRANCH   4   7
ATOM      7  C   UNL     1       1.483   8.669  20.158  0.00  0.00    +0.000 A 
ATOM      8  C   UNL     1       1.211   8.338  21.482  0.00  0.00    +0.000 A 
ATOM      9  C   UNL     1       0.563   9.233  22.325  0.00  0.00    +0.000 A 
ATOM     10  C   UNL     1       0.193  10.524  21.904  0.00  0.00    +0.000 A 
ATOM     11  C   UNL     1       0.381  10.868  20.556  0.00  0.00    +0.000 A 
ATOM     12  C   UNL     1       1.029   9.922  19.714  0.00  0.00    +0.000 A 
BRANCH  11  13
ATOM     13  C   UNL     1      -0.063  12.154  19.869  0.00  0.00    +0.000 C 
ATOM     14  C   UNL     1       1.125  13.112  19.681  0.00  0.00    +0.000 C 
BRANCH  13  15
ATOM     15  C   UNL     1      -0.866  12.048  18.560  0.00  0.00    +0.000 C 
ATOM     16  C   UNL     1      -2.357  11.850  18.787  0.00  0.00    +0.000 C 
ENDBRANCH  13  15
ENDBRANCH  11  13
BRANCH  10  17
ATOM     17  O   UNL     1      -0.317  11.450  22.801  0.00  0.00    +0.000 OA
BRANCH  17  18
ATOM     18  C   UNL     1      -1.719  11.232  23.054  0.00  0.00    +0.000 C 
BRANCH  18  19
ATOM     19  C   UNL     1      -2.535  12.481  23.408  0.00  0.00    +0.000 C 
BRANCH  19  20
ATOM     20  N   UNL     1      -3.994  12.202  23.327  0.00  0.00    +0.000 NA
ATOM     21  C   UNL     1      -4.710  12.556  24.558  0.00  0.00    +0.000 C 
ATOM     22  C   UNL     1      -4.597  12.898  22.191  0.00  0.00    +0.000 C 
ENDBRANCH  19  20
ENDBRANCH  18  19
ENDBRANCH  17  18
ENDBRANCH  10  17
ENDBRANCH   4   7
BRANCH   6  23
ATOM     23  C   UNL     1       3.110   4.008  19.254  0.00  0.00    +0.000 C 
ATOM     24  C   UNL     1       4.525   3.555  19.638  0.00  0.00    +0.000 C 
BRANCH  23  25
ATOM     25  C   UNL     1       2.109   3.623  20.354  0.00  0.00    +0.000 C 
ATOM     26  C   UNL     1       0.793   3.066  19.833  0.00  0.00    +0.000 C 
ENDBRANCH  23  25
ENDBRANCH   6  23
BRANCH   1  27
ATOM     27  O   UNL     1       4.541   5.133  16.887  0.00  0.00    +0.000 OA
BRANCH  27  28
ATOM     28  C   UNL     1       5.302   5.817  15.892  0.00  0.00    +0.000 C 
BRANCH  28  29
ATOM     29  C   UNL     1       6.629   5.215  15.451  0.00  0.00    +0.000 C 
ATOM     30  O   UNL     1       7.373   4.516  16.122  0.00  0.00    +0.000 OA
BRANCH  29  31
ATOM     31  O   UNL     1       6.809   5.523  14.126  0.00  0.00    +0.000 OA
BRANCH  31  33
ATOM     32  C   UNL     1       6.084   3.588  12.842  0.00  0.00    +0.000 C 
ATOM     33  C   UNL     1       7.247   4.461  13.267  0.00  0.00    +0.000 C 
ENDBRANCH  31  33
ENDBRANCH  29  31
ENDBRANCH  28  29
ENDBRANCH  27  28
ENDBRANCH   1  27
TORSDOF 14
ENDMDL
MODEL 8
REMARK VINA RESULT:      -7.1      1.247      1.892
REMARK  Name = 
REMARK  21 active torsions:
REMARK  status: ('A' for Active; 'I' for Inactive)
REMARK    1  A    between atoms: C_1  and  C_2
REMARK    2  A    between atoms: C_2  and  O_3
REMARK    3  A    between atoms: O_3  and  C_4
REMARK    4  A    between atoms: C_4  and  C_6
REMARK    5  A    between atoms: C_6  and  O_7
REMARK    6  A    between atoms: O_7  and  C_8
REMARK    7  A    between atoms: C_11  and  C_12
REMARK    8  A    between atoms: C_15  and  O_16
REMARK    9  A    between atoms: O_16  and  C_17
REMARK   10  A    between atoms: C_17  and  C_18
REMARK   11  A    between atoms: C_18  and  N_19
REMARK   12  A    between atoms: N_19  and  C_20
REMARK   13  A    between atoms: N_19  and  C_21
REMARK   14  A    between atoms: C_22  and  C_23
REMARK   15  A    between atoms: C_23  and  C_24
REMARK   16  A    between atoms: C_23  and  C_25
REMARK   17  A    between atoms: C_25  and  C_26
REMARK   18  A    between atoms: C_29  and  C_30
REMARK   19  A    between atoms: C_30  and  C_31
REMARK   20  A    between atoms: C_30  and  C_32
REMARK   21  A    between atoms: C_32  and  C_33
REMARK                            x       y       z     vdW  Elec       q    Type
REMARK                         _______ _______ _______ _____ _____    ______ ____
ROOT
ATOM      1  C   UNL     1       3.379   6.340  17.900  0.00  0.00    +0.000 A 
ATOM      2  C   UNL     1       3.212   7.700  17.581  0.00  0.00    +0.000 A 
ATOM      3  C   UNL     1       2.446   8.551  18.382  0.00  0.00    +0.000 A 
ATOM      4  C   UNL     1       1.832   8.083  19.544  0.00  0.00    +0.000 A 
ATOM      5  C   UNL     1       1.960   6.717  19.824  0.00  0.00    +0.000 A 
ATOM      6  C   UNL     1       2.700   5.818  19.014  0.00  0.00    +0.000 A 
ENDROOT
BRANCH   4   7
ATOM      7  C   UNL     1       1.088   9.013  20.417  0.00  0.00    +0.000 A 
ATOM      8  C   UNL     1       0.938   8.736  21.773  0.00  0.00    +0.000 A 
ATOM      9  C   UNL     1       0.281   9.626  22.616  0.00  0.00    +0.000 A 
ATOM     10  C   UNL     1      -0.221  10.859  22.160  0.00  0.00    +0.000 A 
ATOM     11  C   UNL     1      -0.157  11.140  20.786  0.00  0.00    +0.000 A 
ATOM     12  C   UNL     1       0.505  10.201  19.947  0.00  0.00    +0.000 A 
BRANCH  11  13
ATOM     13  C   UNL     1      -0.751  12.347  20.070  0.00  0.00    +0.000 C 
ATOM     14  C   UNL     1       0.236  13.527  20.078  0.00  0.00    +0.000 C 
BRANCH  13  15
ATOM     15  C   UNL     1      -1.328  12.153  18.657  0.00  0.00    +0.000 C 
ATOM     16  C   UNL     1      -2.743  11.595  18.659  0.00  0.00    +0.000 C 
ENDBRANCH  13  15
ENDBRANCH  11  13
BRANCH  10  17
ATOM     17  O   UNL     1      -0.738  11.792  23.045  0.00  0.00    +0.000 OA
BRANCH  17  18
ATOM     18  C   UNL     1      -2.149  11.594  23.264  0.00  0.00    +0.000 C 
BRANCH  18  19
ATOM     19  C   UNL     1      -3.043  12.811  22.996  0.00  0.00    +0.000 C 
BRANCH  19  20
ATOM     20  N   UNL     1      -4.468  12.404  22.865  0.00  0.00    +0.000 NA
ATOM     21  C   UNL     1      -5.301  12.892  23.970  0.00  0.00    +0.000 C 
ATOM     22  C   UNL     1      -5.026  12.857  21.592  0.00  0.00    +0.000 C 
ENDBRANCH  19  20
ENDBRANCH  18  19
ENDBRANCH  17  18
ENDBRANCH  10  17
ENDBRANCH   4   7
BRANCH   6  23
ATOM     23  C   UNL     1       2.654   4.349  19.424  0.00  0.00    +0.000 C 
ATOM     24  C   UNL     1       2.378   4.213  20.927  0.00  0.00    +0.000 C 
BRANCH  23  25
ATOM     25  C   UNL     1       1.719   3.430  18.624  0.00  0.00    +0.000 C 
ATOM     26  C   UNL     1       2.439   2.443  17.719  0.00  0.00    +0.000 C 
ENDBRANCH  23  25
ENDBRANCH   6  23
BRANCH   1  27
ATOM     27  O   UNL     1       4.184   5.515  17.141  0.00  0.00    +0.000 OA
BRANCH  27  28
ATOM     28  C   UNL     1       5.491   6.040  16.911  0.00  0.00    +0.000 C 
BRANCH  28  29
ATOM     29  C   UNL     1       6.376   5.359  15.876  0.00  0.00    +0.000 C 
ATOM     30  O   UNL     1       7.517   5.674  15.570  0.00  0.00    +0.000 OA
BRANCH  29  31
ATOM     31  O   UNL     1       5.699   4.265  15.399  0.00  0.00    +0.000 OA
BRANCH  31  33
ATOM     32  C   UNL     1       5.247   3.933  13.032  0.00  0.00    +0.000 C 
ATOM     33  C   UNL     1       6.191   3.675  14.189  0.00  0.00    +0.000 C 
ENDBRANCH  31  33
ENDBRANCH  29  31
ENDBRANCH  28  29
ENDBRANCH  27  28
ENDBRANCH   1  27
TORSDOF 14
ENDMDL
MODEL 9
REMARK VINA RESULT:      -7.1      1.330      1.914
REMARK  Name = 
REMARK  21 active torsions:
REMARK  status: ('A' for Active; 'I' for Inactive)
REMARK    1  A    between atoms: C_1  and  C_2
REMARK    2  A    between atoms: C_2  and  O_3
REMARK    3  A    between atoms: O_3  and  C_4
REMARK    4  A    between atoms: C_4  and  C_6
REMARK    5  A    between atoms: C_6  and  O_7
REMARK    6  A    between atoms: O_7  and  C_8
REMARK    7  A    between atoms: C_11  and  C_12
REMARK    8  A    between atoms: C_15  and  O_16
REMARK    9  A    between atoms: O_16  and  C_17
REMARK   10  A    between atoms: C_17  and  C_18
REMARK   11  A    between atoms: C_18  and  N_19
REMARK   12  A    between atoms: N_19  and  C_20
REMARK   13  A    between atoms: N_19  and  C_21
REMARK   14  A    between atoms: C_22  and  C_23
REMARK   15  A    between atoms: C_23  and  C_24
REMARK   16  A    between atoms: C_23  and  C_25
REMARK   17  A    between atoms: C_25  and  C_26
REMARK   18  A    between atoms: C_29  and  C_30
REMARK   19  A    between atoms: C_30  and  C_31
REMARK   20  A    between atoms: C_30  and  C_32
REMARK   21  A    between atoms: C_32  and  C_33
REMARK                            x       y       z     vdW  Elec       q    Type
REMARK                         _______ _______ _______ _____ _____    ______ ____
ROOT
ATOM      1  C   UNL     1       3.268   6.523  18.073  0.00  0.00    +0.000 A 
ATOM      2  C   UNL     1       3.042   7.872  17.744  0.00  0.00    +0.000 A 
ATOM      3  C   UNL     1       2.253   8.699  18.548  0.00  0.00    +0.000 A 
ATOM      4  C   UNL     1       1.673   8.218  19.722  0.00  0.00    +0.000 A 
ATOM      5  C   UNL     1       1.860   6.860  20.012  0.00  0.00    +0.000 A 
ATOM      6  C   UNL     1       2.625   5.985  19.200  0.00  0.00    +0.000 A 
ENDROOT
BRANCH   4   7
ATOM      7  C   UNL     1       0.904   9.125  20.597  0.00  0.00    +0.000 A 
ATOM      8  C   UNL     1       0.193   8.621  21.682  0.00  0.00    +0.000 A 
ATOM      9  C   UNL     1      -0.497   9.468  22.542  0.00  0.00    +0.000 A 
ATOM     10  C   UNL     1      -0.476  10.867  22.390  0.00  0.00    +0.000 A 
ATOM     11  C   UNL     1       0.165  11.409  21.266  0.00  0.00    +0.000 A 
ATOM     12  C   UNL     1       0.846  10.514  20.394  0.00  0.00    +0.000 A 
BRANCH  11  13
ATOM     13  C   UNL     1       0.195  12.874  20.846  0.00  0.00    +0.000 C 
ATOM     14  C   UNL     1       1.609  13.287  20.404  0.00  0.00    +0.000 C 
BRANCH  13  15
ATOM     15  C   UNL     1      -0.842  13.365  19.820  0.00  0.00    +0.000 C 
ATOM     16  C   UNL     1      -0.258  13.574  18.431  0.00  0.00    +0.000 C 
ENDBRANCH  13  15
ENDBRANCH  11  13
BRANCH  10  17
ATOM     17  O   UNL     1      -1.047  11.697  23.343  0.00  0.00    +0.000 OA
BRANCH  17  18
ATOM     18  C   UNL     1      -2.425  11.988  23.040  0.00  0.00    +0.000 C 
BRANCH  18  19
ATOM     19  C   UNL     1      -2.835  13.462  23.142  0.00  0.00    +0.000 C 
BRANCH  19  20
ATOM     20  N   UNL     1      -4.089  13.612  23.928  0.00  0.00    +0.000 NA
ATOM     21  C   UNL     1      -5.251  13.923  23.090  0.00  0.00    +0.000 C 
ATOM     22  C   UNL     1      -4.358  12.410  24.716  0.00  0.00    +0.000 C 
ENDBRANCH  19  20
ENDBRANCH  18  19
ENDBRANCH  17  18
ENDBRANCH  10  17
ENDBRANCH   4   7
BRANCH   6  23
ATOM     23  C   UNL     1       2.644   4.519  19.624  0.00  0.00    +0.000 C 
ATOM     24  C   UNL     1       2.237   4.373  21.097  0.00  0.00    +0.000 C 
BRANCH  23  25
ATOM     25  C   UNL     1       1.854   3.531  18.752  0.00  0.00    +0.000 C 
ATOM     26  C   UNL     1       1.985   2.077  19.181  0.00  0.00    +0.000 C 
ENDBRANCH  23  25
ENDBRANCH   6  23
BRANCH   1  27
ATOM     27  O   UNL     1       4.095   5.724  17.310  0.00  0.00    +0.000 OA
BRANCH  27  28
ATOM     28  C   UNL     1       5.441   5.672  17.784  0.00  0.00    +0.000 C 
BRANCH  28  29
ATOM     29  C   UNL     1       6.544   6.244  16.904  0.00  0.00    +0.000 C 
ATOM     30  O   UNL     1       6.876   7.417  16.819  0.00  0.00    +0.000 OA
BRANCH  29  31
ATOM     31  O   UNL     1       7.168   5.194  16.278  0.00  0.00    +0.000 OA
BRANCH  31  33
ATOM     32  C   UNL     1       6.165   3.843  14.520  0.00  0.00    +0.000 C 
ATOM     33  C   UNL     1       6.976   5.078  14.862  0.00  0.00    +0.000 C 
ENDBRANCH  31  33
ENDBRANCH  29  31
ENDBRANCH  28  29
ENDBRANCH  27  28
ENDBRANCH   1  27
TORSDOF 14
ENDMDL
