MODEL 1
REMARK VINA RESULT:      -7.2      0.000      0.000
REMARK  Name = 
REMARK  11 active torsions:
REMARK  status: ('A' for Active; 'I' for Inactive)
REMARK    1  A    between atoms: C_1  and  N_2
REMARK    2  A    between atoms: N_2  and  C_3
REMARK    3  A    between atoms: C_3  and  C_4
REMARK    4  A    between atoms: C_4  and  C_5
REMARK    5  A    between atoms: C_5  and  N_6
REMARK    6  A    between atoms: C_5  and  C_7
REMARK    7  A    between atoms: C_7  and  C_8
REMARK    8  A    between atoms: N_10  and  C_11
REMARK    9  A    between atoms: C_14  and  N_15
REMARK   10  A    between atoms: C_24  and  C_25
REMARK   11  A    between atoms: C_25  and  O_27
REMARK                            x       y       z     vdW  Elec       q    Type
REMARK                         _______ _______ _______ _____ _____    ______ ____
ROOT
ATOM      1  C   UNL     1       8.960  10.846  19.327  0.00  0.00    +0.000 C 
ATOM      2  C   UNL     1       9.968  11.316  20.383  0.00  0.00    +0.000 C 
ATOM      3  C   UNL     1      11.400  11.194  19.867  0.00  0.00    +0.000 C 
ATOM      4  C   UNL     1      11.591  11.924  18.522  0.00  0.00    +0.000 C 
ATOM      5  O   UNL     1      10.619  11.405  17.599  0.00  0.00    +0.000 OA
ATOM      6  C   UNL     1       9.245  11.506  17.967  0.00  0.00    +0.000 C 
ENDROOT
BRANCH   4   7
ATOM      7  N   UNL     1      11.581  13.390  18.548  0.00  0.00    +0.000 N 
ATOM      8  C   UNL     1      11.699  14.099  19.733  0.00  0.00    +0.000 A 
ATOM      9  C   UNL     1      11.733  15.431  19.745  0.00  0.00    +0.000 A 
ATOM     10  C   UNL     1      11.503  16.071  18.439  0.00  0.00    +0.000 A 
ATOM     11  N   UNL     1      11.167  17.392  18.381  0.00  0.00    +0.000 N 
ATOM     12  N   UNL     1      11.600  15.425  17.320  0.00  0.00    +0.000 NA
ATOM     13  C   UNL     1      11.879  14.075  17.353  0.00  0.00    +0.000 A 
ATOM     14  O   UNL     1      12.333  13.505  16.366  0.00  0.00    +0.000 OA
ATOM     15  H   UNL     1      11.500  18.013  19.106  0.00  0.00    +0.000 HD
ATOM     16  H   UNL     1      11.203  17.779  17.443  0.00  0.00    +0.000 HD
ENDBRANCH   4   7
BRANCH   1  19
ATOM     17  C   UNL     1       8.135   8.719  18.354  0.00  0.00    +0.000 C 
ATOM     18  O   UNL     1       7.340   9.318  17.645  0.00  0.00    +0.000 OA
ATOM     19  N   UNL     1       8.987   9.376  19.218  0.00  0.00    +0.000 N 
ATOM     20  H   UNL     1       9.540   8.848  19.883  0.00  0.00    +0.000 HD
BRANCH  17  21
ATOM     21  C   UNL     1       8.277   7.207  18.355  0.00  0.00    +0.000 C 
BRANCH  21  22
ATOM     22  C   UNL     1       7.035   6.448  17.835  0.00  0.00    +0.000 C 
BRANCH  22  23
ATOM     23  N   UNL     1       6.786   6.751  16.415  0.00  0.00    +0.000 NA
ATOM     24  H   UNL     1       7.661   7.108  16.007  0.00  0.00    +0.000 HD
ATOM     25  H   UNL     1       6.119   7.516  16.325  0.00  0.00    +0.000 HD
ENDBRANCH  22  23
BRANCH  22  26
ATOM     26  C   UNL     1       7.058   4.911  18.029  0.00  0.00    +0.000 C 
BRANCH  26  27
ATOM     27  C   UNL     1       5.909   4.397  18.904  0.00  0.00    +0.000 C 
BRANCH  27  29
ATOM     28  C   UNL     1       4.605   3.874  16.866  0.00  0.00    +0.000 C 
ATOM     29  N   UNL     1       4.618   4.473  18.197  0.00  0.00    +0.000 N 
ATOM     30  C   UNL     1       3.599   5.292  18.604  0.00  0.00    +0.000 C 
ATOM     31  N   UNL     1       2.567   5.653  17.923  0.00  0.00    +0.000 NA
ATOM     32  N   UNL     1       3.680   5.771  19.865  0.00  0.00    +0.000 N 
ATOM     33  H   UNL     1       2.603   5.247  16.989  0.00  0.00    +0.000 HD
ATOM     34  H   UNL     1       3.824   5.037  20.547  0.00  0.00    +0.000 HD
ATOM     35  H   UNL     1       2.813   6.259  20.071  0.00  0.00    +0.000 HD
ENDBRANCH  27  29
ENDBRANCH  26  27
ENDBRANCH  22  26
ENDBRANCH  21  22
ENDBRANCH  17  21
ENDBRANCH   1  19
BRANCH   6  36
ATOM     36  C   UNL     1       8.590  12.892  17.905  0.00  0.00    +0.000 C 
ATOM     37  O   UNL     1       8.583  13.741  18.783  0.00  0.00    +0.000 OA
BRANCH  36  38
ATOM     38  O   UNL     1       7.946  13.110  16.741  0.00  0.00    +0.000 OA
ATOM     39  H   UNL     1       8.265  12.414  16.130  0.00  0.00    +0.000 HD
ENDBRANCH  36  38
ENDBRANCH   6  36
TORSDOF 10
ENDMDL
MODEL 2
REMARK VINA RESULT:      -7.1      7.221      9.935
REMARK  Name = 
REMARK  11 active torsions:
REMARK  status: ('A' for Active; 'I' for Inactive)
REMARK    1  A    between atoms: C_1  and  N_2
REMARK    2  A    between atoms: N_2  and  C_3
REMARK    3  A    between atoms: C_3  and  C_4
REMARK    4  A    between atoms: C_4  and  C_5
REMARK    5  A    between atoms: C_5  and  N_6
REMARK    6  A    between atoms: C_5  and  C_7
REMARK    7  A    between atoms: C_7  and  C_8
REMARK    8  A    between atoms: N_10  and  C_11
REMARK    9  A    between atoms: C_14  and  N_15
REMARK   10  A    between atoms: C_24  and  C_25
REMARK   11  A    between atoms: C_25  and  O_27
REMARK                            x       y       z     vdW  Elec       q    Type
REMARK                         _______ _______ _______ _____ _____    ______ ____
ROOT
ATOM      1  C   UNL     1       2.533   6.101  18.841  0.00  0.00    +0.000 C 
ATOM      2  C   UNL     1       3.077   7.120  17.833  0.00  0.00    +0.000 C 
ATOM      3  C   UNL     1       4.534   7.466  18.134  0.00  0.00    +0.000 C 
ATOM      4  C   UNL     1       5.419   6.205  18.214  0.00  0.00    +0.000 C 
ATOM      5  O   UNL     1       4.841   5.324  19.191  0.00  0.00    +0.000 OA
ATOM      6  C   UNL     1       3.493   4.907  18.983  0.00  0.00    +0.000 C 
ENDROOT
BRANCH   4   7
ATOM      7  N   UNL     1       5.703   5.506  16.958  0.00  0.00    +0.000 N 
ATOM      8  C   UNL     1       5.294   6.011  15.732  0.00  0.00    +0.000 A 
ATOM      9  C   UNL     1       5.593   5.392  14.591  0.00  0.00    +0.000 A 
ATOM     10  C   UNL     1       6.259   4.087  14.747  0.00  0.00    +0.000 A 
ATOM     11  N   UNL     1       6.295   3.215  13.698  0.00  0.00    +0.000 N 
ATOM     12  N   UNL     1       6.817   3.718  15.856  0.00  0.00    +0.000 NA
ATOM     13  C   UNL     1       6.743   4.555  16.949  0.00  0.00    +0.000 A 
ATOM     14  O   UNL     1       7.534   4.440  17.880  0.00  0.00    +0.000 OA
ATOM     15  H   UNL     1       6.295   3.583  12.757  0.00  0.00    +0.000 HD
ATOM     16  H   UNL     1       6.920   2.429  13.845  0.00  0.00    +0.000 HD
ENDBRANCH   4   7
BRANCH   1  19
ATOM     17  C   UNL     1       1.652   7.966  20.218  0.00  0.00    +0.000 C 
ATOM     18  O   UNL     1       1.242   8.545  19.224  0.00  0.00    +0.000 OA
ATOM     19  N   UNL     1       2.299   6.749  20.144  0.00  0.00    +0.000 N 
ATOM     20  H   UNL     1       2.740   6.359  20.969  0.00  0.00    +0.000 HD
BRANCH  17  21
ATOM     21  C   UNL     1       1.489   8.510  21.626  0.00  0.00    +0.000 C 
BRANCH  21  22
ATOM     22  C   UNL     1       0.208   9.346  21.844  0.00  0.00    +0.000 C 
BRANCH  22  23
ATOM     23  N   UNL     1      -0.273   9.226  23.230  0.00  0.00    +0.000 NA
ATOM     24  H   UNL     1      -0.705   8.298  23.338  0.00  0.00    +0.000 HD
ATOM     25  H   UNL     1      -1.025   9.891  23.407  0.00  0.00    +0.000 HD
ENDBRANCH  22  23
BRANCH  22  26
ATOM     26  C   UNL     1       0.315  10.847  21.473  0.00  0.00    +0.000 C 
BRANCH  26  27
ATOM     27  C   UNL     1      -1.010  11.445  20.991  0.00  0.00    +0.000 C 
BRANCH  27  29
ATOM     28  C   UNL     1      -0.659  13.697  20.024  0.00  0.00    +0.000 C 
ATOM     29  N   UNL     1      -0.823  12.267  19.781  0.00  0.00    +0.000 N 
ATOM     30  C   UNL     1      -1.081  11.797  18.521  0.00  0.00    +0.000 C 
ATOM     31  N   UNL     1      -1.232  12.490  17.446  0.00  0.00    +0.000 NA
ATOM     32  N   UNL     1      -1.181  10.457  18.388  0.00  0.00    +0.000 N 
ATOM     33  H   UNL     1      -1.146  13.484  17.652  0.00  0.00    +0.000 HD
ATOM     34  H   UNL     1      -0.385   9.971  18.780  0.00  0.00    +0.000 HD
ATOM     35  H   UNL     1      -1.254  10.245  17.397  0.00  0.00    +0.000 HD
ENDBRANCH  27  29
ENDBRANCH  26  27
ENDBRANCH  22  26
ENDBRANCH  21  22
ENDBRANCH  17  21
ENDBRANCH   1  19
BRANCH   6  36
ATOM     36  C   UNL     1       3.227   3.880  17.874  0.00  0.00    +0.000 C 
ATOM     37  O   UNL     1       2.281   3.861  17.103  0.00  0.00    +0.000 OA
BRANCH  36  38
ATOM     38  O   UNL     1       4.162   2.911  17.831  0.00  0.00    +0.000 OA
ATOM     39  H   UNL     1       3.737   2.118  18.219  0.00  0.00    +0.000 HD
ENDBRANCH  36  38
ENDBRANCH   6  36
TORSDOF 10
ENDMDL
MODEL 3
REMARK VINA RESULT:      -7.0      6.758      9.711
REMARK  Name = 
REMARK  11 active torsions:
REMARK  status: ('A' for Active; 'I' for Inactive)
REMARK    1  A    between atoms: C_1  and  N_2
REMARK    2  A    between atoms: N_2  and  C_3
REMARK    3  A    between atoms: C_3  and  C_4
REMARK    4  A    between atoms: C_4  and  C_5
REMARK    5  A    between atoms: C_5  and  N_6
REMARK    6  A    between atoms: C_5  and  C_7
REMARK    7  A    between atoms: C_7  and  C_8
REMARK    8  A    between atoms: N_10  and  C_11
REMARK    9  A    between atoms: C_14  and  N_15
REMARK   10  A    between atoms: C_24  and  C_25
REMARK   11  A    between atoms: C_25  and  O_27
REMARK                            x       y       z     vdW  Elec       q    Type
REMARK                         _______ _______ _______ _____ _____    ______ ____
ROOT
ATOM      1  C   UNL     1       2.662   6.134  18.730  0.00  0.00    +0.000 C 
ATOM      2  C   UNL     1       3.215   7.150  17.724  0.00  0.00    +0.000 C 
ATOM      3  C   UNL     1       4.684   7.458  18.007  0.00  0.00    +0.000 C 
ATOM      4  C   UNL     1       5.540   6.176  18.061  0.00  0.00    +0.000 C 
ATOM      5  O   UNL     1       4.955   5.299  19.038  0.00  0.00    +0.000 OA
ATOM      6  C   UNL     1       3.595   4.916  18.846  0.00  0.00    +0.000 C 
ENDROOT
BRANCH   4   7
ATOM      7  N   UNL     1       5.789   5.483  16.794  0.00  0.00    +0.000 N 
ATOM      8  C   UNL     1       5.238   5.923  15.600  0.00  0.00    +0.000 A 
ATOM      9  C   UNL     1       5.504   5.314  14.446  0.00  0.00    +0.000 A 
ATOM     10  C   UNL     1       6.301   4.082  14.562  0.00  0.00    +0.000 A 
ATOM     11  N   UNL     1       6.338   3.197  13.524  0.00  0.00    +0.000 N 
ATOM     12  N   UNL     1       6.978   3.788  15.627  0.00  0.00    +0.000 NA
ATOM     13  C   UNL     1       6.912   4.635  16.712  0.00  0.00    +0.000 A 
ATOM     14  O   UNL     1       7.781   4.614  17.578  0.00  0.00    +0.000 OA
ATOM     15  H   UNL     1       6.228   3.545  12.582  0.00  0.00    +0.000 HD
ATOM     16  H   UNL     1       7.045   2.477  13.628  0.00  0.00    +0.000 HD
ENDBRANCH   4   7
BRANCH   1  19
ATOM     17  C   UNL     1       1.625   7.863  20.173  0.00  0.00    +0.000 C 
ATOM     18  O   UNL     1       1.014   8.330  19.224  0.00  0.00    +0.000 OA
ATOM     19  N   UNL     1       2.462   6.774  20.042  0.00  0.00    +0.000 N 
ATOM     20  H   UNL     1       3.052   6.493  20.816  0.00  0.00    +0.000 HD
BRANCH  17  21
ATOM     21  C   UNL     1       1.524   8.416  21.584  0.00  0.00    +0.000 C 
BRANCH  21  22
ATOM     22  C   UNL     1       0.380   9.435  21.791  0.00  0.00    +0.000 C 
BRANCH  22  23
ATOM     23  N   UNL     1      -0.233   9.278  23.121  0.00  0.00    +0.000 NA
ATOM     24  H   UNL     1      -0.179   8.284  23.381  0.00  0.00    +0.000 HD
ATOM     25  H   UNL     1      -1.229   9.491  23.083  0.00  0.00    +0.000 HD
ENDBRANCH  22  23
BRANCH  22  26
ATOM     26  C   UNL     1       0.759  10.922  21.578  0.00  0.00    +0.000 C 
BRANCH  26  27
ATOM     27  C   UNL     1       0.360  11.455  20.198  0.00  0.00    +0.000 C 
BRANCH  27  29
ATOM     28  C   UNL     1       1.711  13.530  20.205  0.00  0.00    +0.000 C 
ATOM     29  N   UNL     1       1.451  12.233  19.585  0.00  0.00    +0.000 N 
ATOM     30  C   UNL     1       1.981  11.926  18.360  0.00  0.00    +0.000 C 
ATOM     31  N   UNL     1       2.710  12.681  17.614  0.00  0.00    +0.000 NA
ATOM     32  N   UNL     1       1.716  10.691  17.883  0.00  0.00    +0.000 N 
ATOM     33  H   UNL     1       2.846  13.589  18.056  0.00  0.00    +0.000 HD
ATOM     34  H   UNL     1       1.945   9.964  18.549  0.00  0.00    +0.000 HD
ATOM     35  H   UNL     1       2.260  10.558  17.036  0.00  0.00    +0.000 HD
ENDBRANCH  27  29
ENDBRANCH  26  27
ENDBRANCH  22  26
ENDBRANCH  21  22
ENDBRANCH  17  21
ENDBRANCH   1  19
BRANCH   6  36
ATOM     36  C   UNL     1       3.289   3.907  17.731  0.00  0.00    +0.000 C 
ATOM     37  O   UNL     1       4.028   3.030  17.311  0.00  0.00    +0.000 OA
BRANCH  36  38
ATOM     38  O   UNL     1       2.072   4.093  17.183  0.00  0.00    +0.000 OA
ATOM     39  H   UNL     1       2.227   4.174  16.219  0.00  0.00    +0.000 HD
ENDBRANCH  36  38
ENDBRANCH   6  36
TORSDOF 10
ENDMDL
MODEL 4
REMARK VINA RESULT:      -6.9      7.873      9.672
REMARK  Name = 
REMARK  11 active torsions:
REMARK  status: ('A' for Active; 'I' for Inactive)
REMARK    1  A    between atoms: C_1  and  N_2
REMARK    2  A    between atoms: N_2  and  C_3
REMARK    3  A    between atoms: C_3  and  C_4
REMARK    4  A    between atoms: C_4  and  C_5
REMARK    5  A    between atoms: C_5  and  N_6
REMARK    6  A    between atoms: C_5  and  C_7
REMARK    7  A    between atoms: C_7  and  C_8
REMARK    8  A    between atoms: N_10  and  C_11
REMARK    9  A    between atoms: C_14  and  N_15
REMARK   10  A    between atoms: C_24  and  C_25
REMARK   11  A    between atoms: C_25  and  O_27
REMARK                            x       y       z     vdW  Elec       q    Type
REMARK                         _______ _______ _______ _____ _____    ______ ____
ROOT
ATOM      1  C   UNL     1       0.370  10.913  18.733  0.00  0.00    +0.000 C 
ATOM      2  C   UNL     1      -0.675  10.421  19.742  0.00  0.00    +0.000 C 
ATOM      3  C   UNL     1      -0.228  10.697  21.176  0.00  0.00    +0.000 C 
ATOM      4  C   UNL     1       0.126  12.182  21.391  0.00  0.00    +0.000 C 
ATOM      5  O   UNL     1       1.120  12.542  20.417  0.00  0.00    +0.000 OA
ATOM      6  C   UNL     1       0.787  12.361  19.042  0.00  0.00    +0.000 C 
ENDROOT
BRANCH   4   7
ATOM      7  N   UNL     1      -0.983  13.139  21.410  0.00  0.00    +0.000 N 
ATOM      8  C   UNL     1      -2.298  12.736  21.236  0.00  0.00    +0.000 A 
ATOM      9  C   UNL     1      -3.306  13.605  21.297  0.00  0.00    +0.000 A 
ATOM     10  C   UNL     1      -2.904  15.016  21.425  0.00  0.00    +0.000 A 
ATOM     11  N   UNL     1      -3.801  16.005  21.146  0.00  0.00    +0.000 N 
ATOM     12  N   UNL     1      -1.712  15.369  21.790  0.00  0.00    +0.000 NA
ATOM     13  C   UNL     1      -0.768  14.391  22.020  0.00  0.00    +0.000 A 
ATOM     14  O   UNL     1       0.227  14.628  22.698  0.00  0.00    +0.000 OA
ATOM     15  H   UNL     1      -4.784  15.828  21.296  0.00  0.00    +0.000 HD
ATOM     16  H   UNL     1      -3.489  16.928  21.430  0.00  0.00    +0.000 HD
ENDBRANCH   4   7
BRANCH   1  19
ATOM     17  C   UNL     1       1.566   8.896  17.926  0.00  0.00    +0.000 C 
ATOM     18  O   UNL     1       0.642   8.611  17.179  0.00  0.00    +0.000 OA
ATOM     19  N   UNL     1       1.538  10.015  18.734  0.00  0.00    +0.000 N 
ATOM     20  H   UNL     1       2.258  10.151  19.433  0.00  0.00    +0.000 HD
BRANCH  17  21
ATOM     21  C   UNL     1       2.833   8.066  18.038  0.00  0.00    +0.000 C 
BRANCH  21  22
ATOM     22  C   UNL     1       2.790   6.981  19.137  0.00  0.00    +0.000 C 
BRANCH  22  23
ATOM     23  N   UNL     1       1.997   7.430  20.294  0.00  0.00    +0.000 NA
ATOM     24  H   UNL     1       1.128   7.852  19.940  0.00  0.00    +0.000 HD
ATOM     25  H   UNL     1       2.477   8.182  20.786  0.00  0.00    +0.000 HD
ENDBRANCH  22  23
BRANCH  22  26
ATOM     26  C   UNL     1       2.284   5.588  18.685  0.00  0.00    +0.000 C 
BRANCH  26  27
ATOM     27  C   UNL     1       3.294   4.831  17.817  0.00  0.00    +0.000 C 
BRANCH  27  29
ATOM     28  C   UNL     1       2.368   2.586  18.296  0.00  0.00    +0.000 C 
ATOM     29  N   UNL     1       3.531   3.468  18.328  0.00  0.00    +0.000 N 
ATOM     30  C   UNL     1       4.643   3.133  19.052  0.00  0.00    +0.000 C 
ATOM     31  N   UNL     1       4.813   2.083  19.780  0.00  0.00    +0.000 NA
ATOM     32  N   UNL     1       5.682   3.994  18.992  0.00  0.00    +0.000 N 
ATOM     33  H   UNL     1       3.976   1.504  19.765  0.00  0.00    +0.000 HD
ATOM     34  H   UNL     1       5.945   4.214  18.040  0.00  0.00    +0.000 HD
ATOM     35  H   UNL     1       6.470   3.569  19.472  0.00  0.00    +0.000 HD
ENDBRANCH  27  29
ENDBRANCH  26  27
ENDBRANCH  22  26
ENDBRANCH  21  22
ENDBRANCH  17  21
ENDBRANCH   1  19
BRANCH   6  36
ATOM     36  C   UNL     1      -0.211  13.343  18.415  0.00  0.00    +0.000 C 
ATOM     37  O   UNL     1      -0.289  14.544  18.623  0.00  0.00    +0.000 OA
BRANCH  36  38
ATOM     38  O   UNL     1      -1.081  12.738  17.583  0.00  0.00    +0.000 OA
ATOM     39  H   UNL     1      -1.112  11.802  17.871  0.00  0.00    +0.000 HD
ENDBRANCH  36  38
ENDBRANCH   6  36
TORSDOF 10
ENDMDL
MODEL 5
REMARK VINA RESULT:      -6.9      7.692      9.121
REMARK  Name = 
REMARK  11 active torsions:
REMARK  status: ('A' for Active; 'I' for Inactive)
REMARK    1  A    between atoms: C_1  and  N_2
REMARK    2  A    between atoms: N_2  and  C_3
REMARK    3  A    between atoms: C_3  and  C_4
REMARK    4  A    between atoms: C_4  and  C_5
REMARK    5  A    between atoms: C_5  and  N_6
REMARK    6  A    between atoms: C_5  and  C_7
REMARK    7  A    between atoms: C_7  and  C_8
REMARK    8  A    between atoms: N_10  and  C_11
REMARK    9  A    between atoms: C_14  and  N_15
REMARK   10  A    between atoms: C_24  and  C_25
REMARK   11  A    between atoms: C_25  and  O_27
REMARK                            x       y       z     vdW  Elec       q    Type
REMARK                         _______ _______ _______ _____ _____    ______ ____
ROOT
ATOM      1  C   UNL     1       1.325   7.727  20.961  0.00  0.00    +0.000 C 
ATOM      2  C   UNL     1       1.946   8.528  19.811  0.00  0.00    +0.000 C 
ATOM      3  C   UNL     1       0.868   9.072  18.875  0.00  0.00    +0.000 C 
ATOM      4  C   UNL     1      -0.196   9.889  19.638  0.00  0.00    +0.000 C 
ATOM      5  O   UNL     1      -0.729   9.052  20.678  0.00  0.00    +0.000 OA
ATOM      6  C   UNL     1       0.191   8.523  21.631  0.00  0.00    +0.000 C 
ENDROOT
BRANCH   4   7
ATOM      7  N   UNL     1       0.210  11.199  20.154  0.00  0.00    +0.000 N 
ATOM      8  C   UNL     1       1.459  11.736  19.884  0.00  0.00    +0.000 A 
ATOM      9  C   UNL     1       1.805  12.946  20.320  0.00  0.00    +0.000 A 
ATOM     10  C   UNL     1       0.823  13.593  21.205  0.00  0.00    +0.000 A 
ATOM     11  N   UNL     1       1.201  14.648  21.983  0.00  0.00    +0.000 N 
ATOM     12  N   UNL     1      -0.408  13.194  21.289  0.00  0.00    +0.000 NA
ATOM     13  C   UNL     1      -0.802  12.094  20.559  0.00  0.00    +0.000 A 
ATOM     14  O   UNL     1      -1.988  11.896  20.313  0.00  0.00    +0.000 OA
ATOM     15  H   UNL     1       1.942  15.252  21.658  0.00  0.00    +0.000 HD
ATOM     16  H   UNL     1       0.422  15.131  22.419  0.00  0.00    +0.000 HD
ENDBRANCH   4   7
BRANCH   1  19
ATOM     17  C   UNL     1       1.650   5.310  20.514  0.00  0.00    +0.000 C 
ATOM     18  O   UNL     1       2.785   5.350  20.963  0.00  0.00    +0.000 OA
ATOM     19  N   UNL     1       0.838   6.426  20.470  0.00  0.00    +0.000 N 
ATOM     20  H   UNL     1      -0.044   6.391  19.975  0.00  0.00    +0.000 HD
BRANCH  17  21
ATOM     21  C   UNL     1       1.012   4.044  19.969  0.00  0.00    +0.000 C 
BRANCH  21  22
ATOM     22  C   UNL     1       1.320   3.763  18.481  0.00  0.00    +0.000 C 
BRANCH  22  23
ATOM     23  N   UNL     1       1.846   4.965  17.813  0.00  0.00    +0.000 NA
ATOM     24  H   UNL     1       2.260   4.676  16.916  0.00  0.00    +0.000 HD
ATOM     25  H   UNL     1       2.618   5.362  18.347  0.00  0.00    +0.000 HD
ENDBRANCH  22  23
BRANCH  22  26
ATOM     26  C   UNL     1       2.273   2.572  18.206  0.00  0.00    +0.000 C 
BRANCH  26  27
ATOM     27  C   UNL     1       3.623   3.002  17.623  0.00  0.00    +0.000 C 
BRANCH  27  29
ATOM     28  C   UNL     1       4.452   2.479  19.897  0.00  0.00    +0.000 C 
ATOM     29  N   UNL     1       4.606   3.282  18.686  0.00  0.00    +0.000 N 
ATOM     30  C   UNL     1       5.403   4.395  18.682  0.00  0.00    +0.000 C 
ATOM     31  N   UNL     1       6.068   4.882  19.672  0.00  0.00    +0.000 NA
ATOM     32  N   UNL     1       5.512   5.052  17.507  0.00  0.00    +0.000 N 
ATOM     33  H   UNL     1       5.915   4.322  20.509  0.00  0.00    +0.000 HD
ATOM     34  H   UNL     1       5.774   4.439  16.746  0.00  0.00    +0.000 HD
ATOM     35  H   UNL     1       6.216   5.776  17.617  0.00  0.00    +0.000 HD
ENDBRANCH  27  29
ENDBRANCH  26  27
ENDBRANCH  22  26
ENDBRANCH  21  22
ENDBRANCH  17  21
ENDBRANCH   1  19
BRANCH   6  36
ATOM     36  C   UNL     1       0.768   9.487  22.676  0.00  0.00    +0.000 C 
ATOM     37  O   UNL     1       0.151  10.306  23.339  0.00  0.00    +0.000 OA
BRANCH  36  38
ATOM     38  O   UNL     1       2.106   9.382  22.795  0.00  0.00    +0.000 OA
ATOM     39  H   UNL     1       2.385  10.160  23.321  0.00  0.00    +0.000 HD
ENDBRANCH  36  38
ENDBRANCH   6  36
TORSDOF 10
ENDMDL
MODEL 6
REMARK VINA RESULT:      -6.9      7.978      9.440
REMARK  Name = 
REMARK  11 active torsions:
REMARK  status: ('A' for Active; 'I' for Inactive)
REMARK    1  A    between atoms: C_1  and  N_2
REMARK    2  A    between atoms: N_2  and  C_3
REMARK    3  A    between atoms: C_3  and  C_4
REMARK    4  A    between atoms: C_4  and  C_5
REMARK    5  A    between atoms: C_5  and  N_6
REMARK    6  A    between atoms: C_5  and  C_7
REMARK    7  A    between atoms: C_7  and  C_8
REMARK    8  A    between atoms: N_10  and  C_11
REMARK    9  A    between atoms: C_14  and  N_15
REMARK   10  A    between atoms: C_24  and  C_25
REMARK   11  A    between atoms: C_25  and  O_27
REMARK                            x       y       z     vdW  Elec       q    Type
REMARK                         _______ _______ _______ _____ _____    ______ ____
ROOT
ATOM      1  C   UNL     1       0.537   9.841  19.434  0.00  0.00    +0.000 C 
ATOM      2  C   UNL     1      -0.683   9.676  20.348  0.00  0.00    +0.000 C 
ATOM      3  C   UNL     1      -0.369  10.131  21.772  0.00  0.00    +0.000 C 
ATOM      4  C   UNL     1       0.186  11.569  21.806  0.00  0.00    +0.000 C 
ATOM      5  O   UNL     1       1.331  11.618  20.939  0.00  0.00    +0.000 OA
ATOM      6  C   UNL     1       1.137  11.251  19.575  0.00  0.00    +0.000 C 
ENDROOT
BRANCH   4   7
ATOM      7  N   UNL     1      -0.754  12.657  21.521  0.00  0.00    +0.000 N 
ATOM      8  C   UNL     1      -2.111  12.424  21.353  0.00  0.00    +0.000 A 
ATOM      9  C   UNL     1      -2.965  13.423  21.138  0.00  0.00    +0.000 A 
ATOM     10  C   UNL     1      -2.345  14.746  20.961  0.00  0.00    +0.000 A 
ATOM     11  N   UNL     1      -3.060  15.762  20.396  0.00  0.00    +0.000 N 
ATOM     12  N   UNL     1      -1.124  14.996  21.318  0.00  0.00    +0.000 NA
ATOM     13  C   UNL     1      -0.360  13.973  21.836  0.00  0.00    +0.000 A 
ATOM     14  O   UNL     1       0.637  14.215  22.510  0.00  0.00    +0.000 OA
ATOM     15  H   UNL     1      -4.064  15.775  20.513  0.00  0.00    +0.000 HD
ATOM     16  H   UNL     1      -2.613  16.668  20.478  0.00  0.00    +0.000 HD
ENDBRANCH   4   7
BRANCH   1  19
ATOM     17  C   UNL     1       2.143   8.092  18.720  0.00  0.00    +0.000 C 
ATOM     18  O   UNL     1       1.880   8.290  17.544  0.00  0.00    +0.000 OA
ATOM     19  N   UNL     1       1.542   8.807  19.736  0.00  0.00    +0.000 N 
ATOM     20  H   UNL     1       1.683   8.531  20.701  0.00  0.00    +0.000 HD
BRANCH  17  21
ATOM     21  C   UNL     1       3.153   7.058  19.187  0.00  0.00    +0.000 C 
BRANCH  21  22
ATOM     22  C   UNL     1       2.545   5.678  19.524  0.00  0.00    +0.000 C 
BRANCH  22  23
ATOM     23  N   UNL     1       1.516   5.794  20.570  0.00  0.00    +0.000 NA
ATOM     24  H   UNL     1       1.051   4.881  20.663  0.00  0.00    +0.000 HD
ATOM     25  H   UNL     1       0.781   6.438  20.279  0.00  0.00    +0.000 HD
ENDBRANCH  22  23
BRANCH  22  26
ATOM     26  C   UNL     1       1.962   4.890  18.324  0.00  0.00    +0.000 C 
BRANCH  26  27
ATOM     27  C   UNL     1       2.984   3.962  17.657  0.00  0.00    +0.000 C 
BRANCH  27  29
ATOM     28  C   UNL     1       2.257   1.982  18.953  0.00  0.00    +0.000 C 
ATOM     29  N   UNL     1       3.360   2.848  18.546  0.00  0.00    +0.000 N 
ATOM     30  C   UNL     1       4.568   2.789  19.188  0.00  0.00    +0.000 C 
ATOM     31  N   UNL     1       4.886   2.040  20.186  0.00  0.00    +0.000 NA
ATOM     32  N   UNL     1       5.539   3.603  18.718  0.00  0.00    +0.000 N 
ATOM     33  H   UNL     1       4.088   1.473  20.469  0.00  0.00    +0.000 HD
ATOM     34  H   UNL     1       5.675   3.502  17.720  0.00  0.00    +0.000 HD
ATOM     35  H   UNL     1       6.402   3.373  19.202  0.00  0.00    +0.000 HD
ENDBRANCH  27  29
ENDBRANCH  26  27
ENDBRANCH  22  26
ENDBRANCH  21  22
ENDBRANCH  17  21
ENDBRANCH   1  19
BRANCH   6  36
ATOM     36  C   UNL     1       0.387  12.237  18.670  0.00  0.00    +0.000 C 
ATOM     37  O   UNL     1       0.590  13.437  18.563  0.00  0.00    +0.000 OA
BRANCH  36  38
ATOM     38  O   UNL     1      -0.609  11.650  17.977  0.00  0.00    +0.000 OA
ATOM     39  H   UNL     1      -0.167  11.058  17.333  0.00  0.00    +0.000 HD
ENDBRANCH  36  38
ENDBRANCH   6  36
TORSDOF 10
ENDMDL
MODEL 7
REMARK VINA RESULT:      -6.9      7.809      9.340
REMARK  Name = 
REMARK  11 active torsions:
REMARK  status: ('A' for Active; 'I' for Inactive)
REMARK    1  A    between atoms: C_1  and  N_2
REMARK    2  A    between atoms: N_2  and  C_3
REMARK    3  A    between atoms: C_3  and  C_4
REMARK    4  A    between atoms: C_4  and  C_5
REMARK    5  A    between atoms: C_5  and  N_6
REMARK    6  A    between atoms: C_5  and  C_7
REMARK    7  A    between atoms: C_7  and  C_8
REMARK    8  A    between atoms: N_10  and  C_11
REMARK    9  A    between atoms: C_14  and  N_15
REMARK   10  A    between atoms: C_24  and  C_25
REMARK   11  A    between atoms: C_25  and  O_27
REMARK                            x       y       z     vdW  Elec       q    Type
REMARK                         _______ _______ _______ _____ _____    ______ ____
ROOT
ATOM      1  C   UNL     1       0.684  10.420  19.056  0.00  0.00    +0.000 C 
ATOM      2  C   UNL     1      -0.678  10.219  19.730  0.00  0.00    +0.000 C 
ATOM      3  C   UNL     1      -0.582  10.433  21.239  0.00  0.00    +0.000 C 
ATOM      4  C   UNL     1       0.036  11.802  21.587  0.00  0.00    +0.000 C 
ATOM      5  O   UNL     1       1.311  11.888  20.928  0.00  0.00    +0.000 OA
ATOM      6  C   UNL     1       1.327  11.742  19.509  0.00  0.00    +0.000 C 
ENDROOT
BRANCH   4   7
ATOM      7  N   UNL     1      -0.783  12.991  21.334  0.00  0.00    +0.000 N 
ATOM      8  C   UNL     1      -2.144  12.899  21.084  0.00  0.00    +0.000 A 
ATOM      9  C   UNL     1      -2.891  13.986  20.899  0.00  0.00    +0.000 A 
ATOM     10  C   UNL     1      -2.143  15.254  20.846  0.00  0.00    +0.000 A 
ATOM     11  N   UNL     1      -2.731  16.367  20.320  0.00  0.00    +0.000 N 
ATOM     12  N   UNL     1      -0.926  15.362  21.278  0.00  0.00    +0.000 NA
ATOM     13  C   UNL     1      -0.288  14.240  21.760  0.00  0.00    +0.000 A 
ATOM     14  O   UNL     1       0.688  14.341  22.496  0.00  0.00    +0.000 OA
ATOM     15  H   UNL     1      -3.734  16.468  20.388  0.00  0.00    +0.000 HD
ATOM     16  H   UNL     1      -2.207  17.220  20.487  0.00  0.00    +0.000 HD
ENDBRANCH   4   7
BRANCH   1  19
ATOM     17  C   UNL     1       2.060   8.492  18.320  0.00  0.00    +0.000 C 
ATOM     18  O   UNL     1       1.798   8.715  17.148  0.00  0.00    +0.000 OA
ATOM     19  N   UNL     1       1.567   9.276  19.344  0.00  0.00    +0.000 N 
ATOM     20  H   UNL     1       1.696   8.990  20.307  0.00  0.00    +0.000 HD
BRANCH  17  21
ATOM     21  C   UNL     1       2.952   7.350  18.773  0.00  0.00    +0.000 C 
BRANCH  21  22
ATOM     22  C   UNL     1       2.442   5.946  18.377  0.00  0.00    +0.000 C 
BRANCH  22  23
ATOM     23  N   UNL     1       3.434   5.236  17.552  0.00  0.00    +0.000 NA
ATOM     24  H   UNL     1       4.291   5.124  18.109  0.00  0.00    +0.000 HD
ATOM     25  H   UNL     1       3.708   5.806  16.752  0.00  0.00    +0.000 HD
ENDBRANCH  22  23
BRANCH  22  26
ATOM     26  C   UNL     1       2.012   5.031  19.551  0.00  0.00    +0.000 C 
BRANCH  26  27
ATOM     27  C   UNL     1       1.955   3.548  19.172  0.00  0.00    +0.000 C 
BRANCH  27  29
ATOM     28  C   UNL     1       2.544   2.707  21.425  0.00  0.00    +0.000 C 
ATOM     29  N   UNL     1       2.870   2.744  20.002  0.00  0.00    +0.000 N 
ATOM     30  C   UNL     1       4.091   2.314  19.553  0.00  0.00    +0.000 C 
ATOM     31  N   UNL     1       5.071   1.871  20.262  0.00  0.00    +0.000 NA
ATOM     32  N   UNL     1       4.288   2.352  18.217  0.00  0.00    +0.000 N 
ATOM     33  H   UNL     1       4.827   1.888  21.251  0.00  0.00    +0.000 HD
ATOM     34  H   UNL     1       3.550   1.885  17.706  0.00  0.00    +0.000 HD
ATOM     35  H   UNL     1       5.176   1.901  18.019  0.00  0.00    +0.000 HD
ENDBRANCH  27  29
ENDBRANCH  26  27
ENDBRANCH  22  26
ENDBRANCH  21  22
ENDBRANCH  17  21
ENDBRANCH   1  19
BRANCH   6  36
ATOM     36  C   UNL     1       0.792  12.907  18.666  0.00  0.00    +0.000 C 
ATOM     37  O   UNL     1      -0.254  12.937  18.035  0.00  0.00    +0.000 OA
BRANCH  36  38
ATOM     38  O   UNL     1       1.634  13.958  18.639  0.00  0.00    +0.000 OA
ATOM     39  H   UNL     1       2.535  13.573  18.618  0.00  0.00    +0.000 HD
ENDBRANCH  36  38
ENDBRANCH   6  36
TORSDOF 10
ENDMDL
MODEL 8
REMARK VINA RESULT:      -6.8      7.177     10.064
REMARK  Name = 
REMARK  11 active torsions:
REMARK  status: ('A' for Active; 'I' for Inactive)
REMARK    1  A    between atoms: C_1  and  N_2
REMARK    2  A    between atoms: N_2  and  C_3
REMARK    3  A    between atoms: C_3  and  C_4
REMARK    4  A    between atoms: C_4  and  C_5
REMARK    5  A    between atoms: C_5  and  N_6
REMARK    6  A    between atoms: C_5  and  C_7
REMARK    7  A    between atoms: C_7  and  C_8
REMARK    8  A    between atoms: N_10  and  C_11
REMARK    9  A    between atoms: C_14  and  N_15
REMARK   10  A    between atoms: C_24  and  C_25
REMARK   11  A    between atoms: C_25  and  O_27
REMARK                            x       y       z     vdW  Elec       q    Type
REMARK                         _______ _______ _______ _____ _____    ______ ____
ROOT
ATOM      1  C   UNL     1       2.628   6.025  18.924  0.00  0.00    +0.000 C 
ATOM      2  C   UNL     1       3.023   7.028  17.834  0.00  0.00    +0.000 C 
ATOM      3  C   UNL     1       4.457   7.515  18.029  0.00  0.00    +0.000 C 
ATOM      4  C   UNL     1       5.455   6.343  18.121  0.00  0.00    +0.000 C 
ATOM      5  O   UNL     1       5.012   5.473  19.176  0.00  0.00    +0.000 OA
ATOM      6  C   UNL     1       3.698   4.929  19.071  0.00  0.00    +0.000 C 
ENDROOT
BRANCH   4   7
ATOM      7  N   UNL     1       5.731   5.600  16.889  0.00  0.00    +0.000 N 
ATOM      8  C   UNL     1       5.230   6.008  15.662  0.00  0.00    +0.000 A 
ATOM      9  C   UNL     1       5.521   5.353  14.540  0.00  0.00    +0.000 A 
ATOM     10  C   UNL     1       6.288   4.109  14.726  0.00  0.00    +0.000 A 
ATOM     11  N   UNL     1       6.340   3.187  13.722  0.00  0.00    +0.000 N 
ATOM     12  N   UNL     1       6.922   3.841  15.823  0.00  0.00    +0.000 NA
ATOM     13  C   UNL     1       6.838   4.727  16.875  0.00  0.00    +0.000 A 
ATOM     14  O   UNL     1       7.677   4.719  17.771  0.00  0.00    +0.000 OA
ATOM     15  H   UNL     1       6.270   3.504  12.765  0.00  0.00    +0.000 HD
ATOM     16  H   UNL     1       7.028   2.457  13.876  0.00  0.00    +0.000 HD
ENDBRANCH   4   7
BRANCH   1  19
ATOM     17  C   UNL     1       1.677   7.893  20.248  0.00  0.00    +0.000 C 
ATOM     18  O   UNL     1       1.178   8.386  19.248  0.00  0.00    +0.000 OA
ATOM     19  N   UNL     1       2.408   6.724  20.202  0.00  0.00    +0.000 N 
ATOM     20  H   UNL     1       2.916   6.412  21.022  0.00  0.00    +0.000 HD
BRANCH  17  21
ATOM     21  C   UNL     1       1.540   8.499  21.634  0.00  0.00    +0.000 C 
BRANCH  21  22
ATOM     22  C   UNL     1       0.214   9.255  21.873  0.00  0.00    +0.000 C 
BRANCH  22  23
ATOM     23  N   UNL     1      -0.220   9.131  23.275  0.00  0.00    +0.000 NA
ATOM     24  H   UNL     1      -0.186  10.066  23.703  0.00  0.00    +0.000 HD
ATOM     25  H   UNL     1       0.444   8.570  23.807  0.00  0.00    +0.000 HD
ENDBRANCH  22  23
BRANCH  22  26
ATOM     26  C   UNL     1       0.211  10.751  21.472  0.00  0.00    +0.000 C 
BRANCH  26  27
ATOM     27  C   UNL     1      -0.671  11.048  20.255  0.00  0.00    +0.000 C 
BRANCH  27  29
ATOM     28  C   UNL     1      -1.940  12.250  22.008  0.00  0.00    +0.000 C 
ATOM     29  N   UNL     1      -1.732  12.018  20.581  0.00  0.00    +0.000 N 
ATOM     30  C   UNL     1      -2.653  12.444  19.663  0.00  0.00    +0.000 C 
ATOM     31  N   UNL     1      -3.769  13.043  19.896  0.00  0.00    +0.000 NA
ATOM     32  N   UNL     1      -2.357  12.217  18.364  0.00  0.00    +0.000 N 
ATOM     33  H   UNL     1      -3.903  13.161  20.899  0.00  0.00    +0.000 HD
ATOM     34  H   UNL     1      -1.438  12.560  18.114  0.00  0.00    +0.000 HD
ATOM     35  H   UNL     1      -3.058  12.683  17.796  0.00  0.00    +0.000 HD
ENDBRANCH  27  29
ENDBRANCH  26  27
ENDBRANCH  22  26
ENDBRANCH  21  22
ENDBRANCH  17  21
ENDBRANCH   1  19
BRANCH   6  36
ATOM     36  C   UNL     1       3.465   3.821  18.035  0.00  0.00    +0.000 C 
ATOM     37  O   UNL     1       2.601   3.792  17.173  0.00  0.00    +0.000 OA
BRANCH  36  38
ATOM     38  O   UNL     1       4.323   2.792  18.175  0.00  0.00    +0.000 OA
ATOM     39  H   UNL     1       3.789   1.983  18.031  0.00  0.00    +0.000 HD
ENDBRANCH  36  38
ENDBRANCH   6  36
TORSDOF 10
ENDMDL
MODEL 9
REMARK VINA RESULT:      -6.8      7.587      9.090
REMARK  Name = 
REMARK  11 active torsions:
REMARK  status: ('A' for Active; 'I' for Inactive)
REMARK    1  A    between atoms: C_1  and  N_2
REMARK    2  A    between atoms: N_2  and  C_3
REMARK    3  A    between atoms: C_3  and  C_4
REMARK    4  A    between atoms: C_4  and  C_5
REMARK    5  A    between atoms: C_5  and  N_6
REMARK    6  A    between atoms: C_5  and  C_7
REMARK    7  A    between atoms: C_7  and  C_8
REMARK    8  A    between atoms: N_10  and  C_11
REMARK    9  A    between atoms: C_14  and  N_15
REMARK   10  A    between atoms: C_24  and  C_25
REMARK   11  A    between atoms: C_25  and  O_27
REMARK                            x       y       z     vdW  Elec       q    Type
REMARK                         _______ _______ _______ _____ _____    ______ ____
ROOT
ATOM      1  C   UNL     1       0.625  10.120  19.027  0.00  0.00    +0.000 C 
ATOM      2  C   UNL     1      -0.735  10.031  19.729  0.00  0.00    +0.000 C 
ATOM      3  C   UNL     1      -0.597  10.284  21.229  0.00  0.00    +0.000 C 
ATOM      4  C   UNL     1       0.118  11.619  21.523  0.00  0.00    +0.000 C 
ATOM      5  O   UNL     1       1.382  11.599  20.840  0.00  0.00    +0.000 OA
ATOM      6  C   UNL     1       1.363  11.409  19.427  0.00  0.00    +0.000 C 
ENDROOT
BRANCH   4   7
ATOM      7  N   UNL     1      -0.626  12.851  21.246  0.00  0.00    +0.000 N 
ATOM      8  C   UNL     1      -1.995  12.845  21.031  0.00  0.00    +0.000 A 
ATOM      9  C   UNL     1      -2.671  13.974  20.824  0.00  0.00    +0.000 A 
ATOM     10  C   UNL     1      -1.841  15.184  20.708  0.00  0.00    +0.000 A 
ATOM     11  N   UNL     1      -2.364  16.317  20.155  0.00  0.00    +0.000 N 
ATOM     12  N   UNL     1      -0.609  15.224  21.107  0.00  0.00    +0.000 NA
ATOM     13  C   UNL     1      -0.036  14.077  21.615  0.00  0.00    +0.000 A 
ATOM     14  O   UNL     1       0.963  14.137  22.324  0.00  0.00    +0.000 OA
ATOM     15  H   UNL     1      -3.356  16.488  20.243  0.00  0.00    +0.000 HD
ATOM     16  H   UNL     1      -1.780  17.137  20.280  0.00  0.00    +0.000 HD
ENDBRANCH   4   7
BRANCH   1  19
ATOM     17  C   UNL     1       2.184   8.312  18.354  0.00  0.00    +0.000 C 
ATOM     18  O   UNL     1       2.215   8.727  17.205  0.00  0.00    +0.000 OA
ATOM     19  N   UNL     1       1.435   8.928  19.336  0.00  0.00    +0.000 N 
ATOM     20  H   UNL     1       1.327   8.487  20.242  0.00  0.00    +0.000 HD
BRANCH  17  21
ATOM     21  C   UNL     1       2.962   7.095  18.823  0.00  0.00    +0.000 C 
BRANCH  21  22
ATOM     22  C   UNL     1       3.587   6.259  17.684  0.00  0.00    +0.000 C 
BRANCH  22  23
ATOM     23  N   UNL     1       4.742   6.954  17.090  0.00  0.00    +0.000 NA
ATOM     24  H   UNL     1       5.289   6.264  16.557  0.00  0.00    +0.000 HD
ATOM     25  H   UNL     1       5.371   7.288  17.818  0.00  0.00    +0.000 HD
ENDBRANCH  22  23
BRANCH  22  26
ATOM     26  C   UNL     1       4.004   4.815  18.062  0.00  0.00    +0.000 C 
BRANCH  26  27
ATOM     27  C   UNL     1       2.824   3.942  18.503  0.00  0.00    +0.000 C 
BRANCH  27  29
ATOM     28  C   UNL     1       4.147   2.507  20.025  0.00  0.00    +0.000 C 
ATOM     29  N   UNL     1       3.019   3.421  19.868  0.00  0.00    +0.000 N 
ATOM     30  C   UNL     1       2.066   3.528  20.844  0.00  0.00    +0.000 C 
ATOM     31  N   UNL     1       2.006   2.874  21.952  0.00  0.00    +0.000 NA
ATOM     32  N   UNL     1       1.080   4.426  20.626  0.00  0.00    +0.000 N 
ATOM     33  H   UNL     1       2.785   2.221  22.018  0.00  0.00    +0.000 HD
ATOM     34  H   UNL     1       1.440   5.343  20.394  0.00  0.00    +0.000 HD
ATOM     35  H   UNL     1       0.518   4.486  21.470  0.00  0.00    +0.000 HD
ENDBRANCH  27  29
ENDBRANCH  26  27
ENDBRANCH  22  26
ENDBRANCH  21  22
ENDBRANCH  17  21
ENDBRANCH   1  19
BRANCH   6  36
ATOM     36  C   UNL     1       0.891  12.580  18.556  0.00  0.00    +0.000 C 
ATOM     37  O   UNL     1       1.380  13.698  18.501  0.00  0.00    +0.000 OA
BRANCH  36  38
ATOM     38  O   UNL     1      -0.203  12.278  17.829  0.00  0.00    +0.000 OA
ATOM     39  H   UNL     1       0.133  11.851  17.014  0.00  0.00    +0.000 HD
ENDBRANCH  36  38
ENDBRANCH   6  36
TORSDOF 10
ENDMDL
