MODEL 1
REMARK VINA RESULT:      -7.3      0.000      0.000
REMARK  Name = 
REMARK  7 active torsions:
REMARK  status: ('A' for Active; 'I' for Inactive)
REMARK    1  A    between atoms: C_1  and  O_2
REMARK    2  A    between atoms: O_2  and  N_3
REMARK    3  A    between atoms: C_4  and  C_5
REMARK    4  A    between atoms: C_4  and  C_26
REMARK    5  A    between atoms: N_7  and  CA_8
REMARK    6  A    between atoms: CA_12  and  C_13
REMARK    7  A    between atoms: C_16  and  C_17
REMARK                            x       y       z     vdW  Elec       q    Type
REMARK                         _______ _______ _______ _____ _____    ______ ____
ROOT
ATOM      1  CA  UNL     1       1.724   8.461  17.906  0.00  0.00    +0.000 C 
ATOM      2  C   UNL     1       1.971   9.984  17.990  0.00  0.00    +0.000 C 
ATOM      3  O   UNL     1       2.841  10.698  17.555  0.00  0.00    +0.000 OA
ATOM      4  N   UNL     1       0.898  10.100  18.815  0.00  0.00    +0.000 N 
ATOM      5  CA  UNL     1       0.296  11.101  19.538  0.00  0.00    +0.000 C 
ATOM      6  C   UNL     1      -0.158  10.829  20.795  0.00  0.00    +0.000 C 
ATOM      7  C   UNL     1       0.078   9.494  21.504  0.00  0.00    +0.000 C 
ATOM      8  S   UNL     1       1.423   8.466  20.803  0.00  0.00    +0.000 S 
ATOM      9  C   UNL     1       0.796   8.689  19.128  0.00  0.00    +0.000 C 
ENDROOT
BRANCH   6  10
ATOM     10  C   UNL     1      -0.902  11.840  21.669  0.00  0.00    +0.000 C 
ATOM     11  C   UNL     1      -1.285  11.288  23.028  0.00  0.00    +0.000 C 
ATOM     12  C   UNL     1      -2.497  12.105  23.402  0.00  0.00    +0.000 C 
ATOM     13  C   UNL     1      -3.060  12.475  22.064  0.00  0.00    +0.000 C 
ATOM     14  O   UNL     1      -4.167  12.952  21.870  0.00  0.00    +0.000 OA
ATOM     15  O   UNL     1      -2.168  12.195  21.071  0.00  0.00    +0.000 OA
ENDBRANCH   6  10
BRANCH   1  18
ATOM     16  C   UNL     1       2.726   6.162  18.037  0.00  0.00    +0.000 C 
ATOM     17  O   UNL     1       1.606   5.666  18.205  0.00  0.00    +0.000 OA
ATOM     18  N   UNL     1       2.908   7.544  17.981  0.00  0.00    +0.000 N 
ATOM     19  H   UNL     1       3.774   7.860  17.537  0.00  0.00    +0.000 HD
BRANCH  16  21
ATOM     20  N   UNL     1       3.946   4.056  17.381  0.00  0.00    +0.000 NA
ATOM     21  C   UNL     1       3.977   5.282  17.819  0.00  0.00    +0.000 C 
BRANCH  21  22
ATOM     22  C   UNL     1       5.341   5.792  18.050  0.00  0.00    +0.000 A 
ATOM     23  C   UNL     1       6.221   5.240  18.961  0.00  0.00    +0.000 A 
ATOM     24  S   UNL     1       7.717   6.060  18.922  0.00  0.00    +0.000 S 
ATOM     25  C   UNL     1       7.104   7.084  17.691  0.00  0.00    +0.000 A 
ATOM     26  N   UNL     1       7.877   8.026  17.144  0.00  0.00    +0.000 N 
ATOM     27  N   UNL     1       5.852   6.872  17.345  0.00  0.00    +0.000 NA
ATOM     28  H   UNL     1       8.715   8.331  17.632  0.00  0.00    +0.000 HD
ATOM     29  H   UNL     1       7.428   8.742  16.587  0.00  0.00    +0.000 HD
ENDBRANCH  21  22
BRANCH  20  31
ATOM     30  C   UNL     1       2.597   2.280  17.771  0.00  0.00    +0.000 C 
ATOM     31  O   UNL     1       2.679   3.548  17.112  0.00  0.00    +0.000 OA
ENDBRANCH  20  31
ENDBRANCH  16  21
ENDBRANCH   1  18
BRANCH   5  32
ATOM     32  C   UNL     1       0.107  12.527  18.813  0.00  0.00    +0.000 C 
ATOM     33  O   UNL     1       1.040  13.354  19.016  0.00  0.00    +0.000 OA
ATOM     34  OXT UNL     1      -0.879  12.623  18.033  0.00  0.00    +0.000 OA
ENDBRANCH   5  32
TORSDOF 6
ENDMDL
MODEL 2
REMARK VINA RESULT:      -7.1      0.934      1.177
REMARK  Name = 
REMARK  7 active torsions:
REMARK  status: ('A' for Active; 'I' for Inactive)
REMARK    1  A    between atoms: C_1  and  O_2
REMARK    2  A    between atoms: O_2  and  N_3
REMARK    3  A    between atoms: C_4  and  C_5
REMARK    4  A    between atoms: C_4  and  C_26
REMARK    5  A    between atoms: N_7  and  CA_8
REMARK    6  A    between atoms: CA_12  and  C_13
REMARK    7  A    between atoms: C_16  and  C_17
REMARK                            x       y       z     vdW  Elec       q    Type
REMARK                         _______ _______ _______ _____ _____    ______ ____
ROOT
ATOM      1  CA  UNL     1       1.846   8.405  17.851  0.00  0.00    +0.000 C 
ATOM      2  C   UNL     1       2.117   9.923  17.955  0.00  0.00    +0.000 C 
ATOM      3  O   UNL     1       3.006  10.626  17.541  0.00  0.00    +0.000 OA
ATOM      4  N   UNL     1       1.034  10.048  18.766  0.00  0.00    +0.000 N 
ATOM      5  CA  UNL     1       0.439  11.051  19.490  0.00  0.00    +0.000 C 
ATOM      6  C   UNL     1      -0.038  10.773  20.737  0.00  0.00    +0.000 C 
ATOM      7  C   UNL     1       0.164   9.427  21.436  0.00  0.00    +0.000 C 
ATOM      8  S   UNL     1       1.501   8.384  20.743  0.00  0.00    +0.000 S 
ATOM      9  C   UNL     1       0.904   8.635  19.062  0.00  0.00    +0.000 C 
ENDROOT
BRANCH   6  10
ATOM     10  C   UNL     1      -0.778  11.788  21.611  0.00  0.00    +0.000 C 
ATOM     11  C   UNL     1      -1.098  11.262  22.997  0.00  0.00    +0.000 C 
ATOM     12  C   UNL     1      -2.319  12.057  23.393  0.00  0.00    +0.000 C 
ATOM     13  C   UNL     1      -2.938  12.377  22.067  0.00  0.00    +0.000 C 
ATOM     14  O   UNL     1      -4.063  12.821  21.901  0.00  0.00    +0.000 OA
ATOM     15  O   UNL     1      -2.074  12.095  21.050  0.00  0.00    +0.000 OA
ENDBRANCH   6  10
BRANCH   1  18
ATOM     16  C   UNL     1       2.805   6.096  18.081  0.00  0.00    +0.000 C 
ATOM     17  O   UNL     1       1.683   5.636  18.324  0.00  0.00    +0.000 OA
ATOM     18  N   UNL     1       3.012   7.466  17.933  0.00  0.00    +0.000 N 
ATOM     19  H   UNL     1       3.865   7.736  17.435  0.00  0.00    +0.000 HD
BRANCH  16  21
ATOM     20  N   UNL     1       3.958   3.956  17.415  0.00  0.00    +0.000 NA
ATOM     21  C   UNL     1       4.027   5.175  17.866  0.00  0.00    +0.000 C 
BRANCH  21  22
ATOM     22  C   UNL     1       5.405   5.636  18.116  0.00  0.00    +0.000 A 
ATOM     23  C   UNL     1       6.037   6.607  17.363  0.00  0.00    +0.000 A 
ATOM     24  S   UNL     1       7.602   6.912  17.970  0.00  0.00    +0.000 S 
ATOM     25  C   UNL     1       7.335   5.747  19.199  0.00  0.00    +0.000 A 
ATOM     26  N   UNL     1       8.268   5.509  20.125  0.00  0.00    +0.000 N 
ATOM     27  N   UNL     1       6.174   5.128  19.153  0.00  0.00    +0.000 NA
ATOM     28  H   UNL     1       9.228   5.794  19.950  0.00  0.00    +0.000 HD
ATOM     29  H   UNL     1       8.169   4.678  20.693  0.00  0.00    +0.000 HD
ENDBRANCH  21  22
BRANCH  20  31
ATOM     30  C   UNL     1       2.601   2.156  17.632  0.00  0.00    +0.000 C 
ATOM     31  O   UNL     1       2.678   3.493  17.129  0.00  0.00    +0.000 OA
ENDBRANCH  20  31
ENDBRANCH  16  21
ENDBRANCH   1  18
BRANCH   5  32
ATOM     32  C   UNL     1       0.285  12.488  18.779  0.00  0.00    +0.000 C 
ATOM     33  O   UNL     1      -0.753  12.622  18.071  0.00  0.00    +0.000 OA
ATOM     34  OXT UNL     1       1.143  13.356  19.095  0.00  0.00    +0.000 OA
ENDBRANCH   5  32
TORSDOF 6
ENDMDL
MODEL 3
REMARK VINA RESULT:      -7.1      1.734      2.781
REMARK  Name = 
REMARK  7 active torsions:
REMARK  status: ('A' for Active; 'I' for Inactive)
REMARK    1  A    between atoms: C_1  and  O_2
REMARK    2  A    between atoms: O_2  and  N_3
REMARK    3  A    between atoms: C_4  and  C_5
REMARK    4  A    between atoms: C_4  and  C_26
REMARK    5  A    between atoms: N_7  and  CA_8
REMARK    6  A    between atoms: CA_12  and  C_13
REMARK    7  A    between atoms: C_16  and  C_17
REMARK                            x       y       z     vdW  Elec       q    Type
REMARK                         _______ _______ _______ _____ _____    ______ ____
ROOT
ATOM      1  CA  UNL     1       1.682   8.494  18.030  0.00  0.00    +0.000 C 
ATOM      2  C   UNL     1       1.963  10.013  18.042  0.00  0.00    +0.000 C 
ATOM      3  O   UNL     1       2.875  10.681  17.618  0.00  0.00    +0.000 OA
ATOM      4  N   UNL     1       0.849  10.201  18.796  0.00  0.00    +0.000 N 
ATOM      5  CA  UNL     1       0.234  11.255  19.426  0.00  0.00    +0.000 C 
ATOM      6  C   UNL     1      -0.297  11.066  20.668  0.00  0.00    +0.000 C 
ATOM      7  C   UNL     1      -0.136   9.769  21.464  0.00  0.00    +0.000 C 
ATOM      8  S   UNL     1       1.219   8.673  20.900  0.00  0.00    +0.000 S 
ATOM      9  C   UNL     1       0.694   8.812  19.182  0.00  0.00    +0.000 C 
ENDROOT
BRANCH   6  10
ATOM     10  C   UNL     1      -1.063  12.143  21.439  0.00  0.00    +0.000 C 
ATOM     11  C   UNL     1      -1.245  11.810  22.908  0.00  0.00    +0.000 C 
ATOM     12  C   UNL     1      -2.501  12.562  23.276  0.00  0.00    +0.000 C 
ATOM     13  C   UNL     1      -3.230  12.630  21.969  0.00  0.00    +0.000 C 
ATOM     14  O   UNL     1      -4.398  12.957  21.828  0.00  0.00    +0.000 OA
ATOM     15  O   UNL     1      -2.413  12.263  20.941  0.00  0.00    +0.000 OA
ENDBRANCH   6  10
BRANCH   1  18
ATOM     16  C   UNL     1       2.673   6.186  18.018  0.00  0.00    +0.000 C 
ATOM     17  O   UNL     1       1.554   5.689  17.847  0.00  0.00    +0.000 OA
ATOM     18  N   UNL     1       2.836   7.556  18.225  0.00  0.00    +0.000 N 
ATOM     19  H   UNL     1       3.774   7.924  18.044  0.00  0.00    +0.000 HD
BRANCH  16  21
ATOM     20  N   UNL     1       5.116   5.773  17.554  0.00  0.00    +0.000 NA
ATOM     21  C   UNL     1       3.958   5.330  17.953  0.00  0.00    +0.000 C 
BRANCH  21  22
ATOM     22  C   UNL     1       3.983   3.924  18.394  0.00  0.00    +0.000 A 
ATOM     23  C   UNL     1       3.319   2.904  17.740  0.00  0.00    +0.000 A 
ATOM     24  S   UNL     1       3.613   1.409  18.509  0.00  0.00    +0.000 S 
ATOM     25  C   UNL     1       4.612   2.210  19.649  0.00  0.00    +0.000 A 
ATOM     26  N   UNL     1       5.242   1.520  20.604  0.00  0.00    +0.000 N 
ATOM     27  N   UNL     1       4.701   3.515  19.508  0.00  0.00    +0.000 NA
ATOM     28  H   UNL     1       4.920   0.585  20.838  0.00  0.00    +0.000 HD
ATOM     29  H   UNL     1       5.640   2.038  21.377  0.00  0.00    +0.000 HD
ENDBRANCH  21  22
BRANCH  20  31
ATOM     30  C   UNL     1       6.506   7.539  17.276  0.00  0.00    +0.000 C 
ATOM     31  O   UNL     1       5.146   7.108  17.165  0.00  0.00    +0.000 OA
ENDBRANCH  20  31
ENDBRANCH  16  21
ENDBRANCH   1  18
BRANCH   5  32
ATOM     32  C   UNL     1       0.123  12.640  18.612  0.00  0.00    +0.000 C 
ATOM     33  O   UNL     1       1.134  13.391  18.700  0.00  0.00    +0.000 OA
ATOM     34  OXT UNL     1      -0.899  12.774  17.886  0.00  0.00    +0.000 OA
ENDBRANCH   5  32
TORSDOF 6
ENDMDL
MODEL 4
REMARK VINA RESULT:      -7.0      2.744      3.656
REMARK  Name = 
REMARK  7 active torsions:
REMARK  status: ('A' for Active; 'I' for Inactive)
REMARK    1  A    between atoms: C_1  and  O_2
REMARK    2  A    between atoms: O_2  and  N_3
REMARK    3  A    between atoms: C_4  and  C_5
REMARK    4  A    between atoms: C_4  and  C_26
REMARK    5  A    between atoms: N_7  and  CA_8
REMARK    6  A    between atoms: CA_12  and  C_13
REMARK    7  A    between atoms: C_16  and  C_17
REMARK                            x       y       z     vdW  Elec       q    Type
REMARK                         _______ _______ _______ _____ _____    ______ ____
ROOT
ATOM      1  CA  UNL     1       3.283   6.844  19.277  0.00  0.00    +0.000 C 
ATOM      2  C   UNL     1       2.049   6.703  20.197  0.00  0.00    +0.000 C 
ATOM      3  O   UNL     1       1.496   5.749  20.685  0.00  0.00    +0.000 OA
ATOM      4  N   UNL     1       1.841   8.042  20.102  0.00  0.00    +0.000 N 
ATOM      5  CA  UNL     1       0.894   8.940  20.530  0.00  0.00    +0.000 C 
ATOM      6  C   UNL     1       0.492   9.932  19.684  0.00  0.00    +0.000 C 
ATOM      7  C   UNL     1       0.946  10.031  18.226  0.00  0.00    +0.000 C 
ATOM      8  S   UNL     1       1.643   8.490  17.521  0.00  0.00    +0.000 S 
ATOM      9  C   UNL     1       2.705   8.247  18.956  0.00  0.00    +0.000 C 
ENDROOT
BRANCH   6  10
ATOM     10  C   UNL     1      -0.504  11.027  20.069  0.00  0.00    +0.000 C 
ATOM     11  C   UNL     1      -1.663  11.149  19.099  0.00  0.00    +0.000 C 
ATOM     12  C   UNL     1      -2.084  12.591  19.246  0.00  0.00    +0.000 C 
ATOM     13  C   UNL     1      -0.811  13.255  19.673  0.00  0.00    +0.000 C 
ATOM     14  O   UNL     1      -0.618  14.461  19.700  0.00  0.00    +0.000 OA
ATOM     15  O   UNL     1       0.124  12.327  20.023  0.00  0.00    +0.000 OA
ENDBRANCH   6  10
BRANCH   1  18
ATOM     16  C   UNL     1       4.774   5.520  17.751  0.00  0.00    +0.000 C 
ATOM     17  O   UNL     1       5.748   6.204  18.083  0.00  0.00    +0.000 OA
ATOM     18  N   UNL     1       3.489   5.817  18.204  0.00  0.00    +0.000 N 
ATOM     19  H   UNL     1       2.812   5.052  18.152  0.00  0.00    +0.000 HD
BRANCH  16  21
ATOM     20  N   UNL     1       4.419   3.099  17.147  0.00  0.00    +0.000 NA
ATOM     21  C   UNL     1       4.931   4.263  16.867  0.00  0.00    +0.000 C 
BRANCH  21  22
ATOM     22  C   UNL     1       5.651   4.297  15.580  0.00  0.00    +0.000 A 
ATOM     23  C   UNL     1       5.251   3.592  14.460  0.00  0.00    +0.000 A 
ATOM     24  S   UNL     1       6.296   3.910  13.149  0.00  0.00    +0.000 S 
ATOM     25  C   UNL     1       7.200   4.971  14.147  0.00  0.00    +0.000 A 
ATOM     26  N   UNL     1       8.246   5.640  13.656  0.00  0.00    +0.000 N 
ATOM     27  N   UNL     1       6.791   5.065  15.395  0.00  0.00    +0.000 NA
ATOM     28  H   UNL     1       8.682   5.322  12.795  0.00  0.00    +0.000 HD
ATOM     29  H   UNL     1       8.877   6.080  14.313  0.00  0.00    +0.000 HD
ENDBRANCH  21  22
BRANCH  20  31
ATOM     30  C   UNL     1       2.565   2.194  18.082  0.00  0.00    +0.000 C 
ATOM     31  O   UNL     1       3.698   3.031  18.335  0.00  0.00    +0.000 OA
ENDBRANCH  20  31
ENDBRANCH  16  21
ENDBRANCH   1  18
BRANCH   5  32
ATOM     32  C   UNL     1       0.368   8.795  22.045  0.00  0.00    +0.000 C 
ATOM     33  O   UNL     1       1.066   9.395  22.909  0.00  0.00    +0.000 OA
ATOM     34  OXT UNL     1      -0.738   8.208  22.191  0.00  0.00    +0.000 OA
ENDBRANCH   5  32
TORSDOF 6
ENDMDL
MODEL 5
REMARK VINA RESULT:      -7.0      3.027      9.028
REMARK  Name = 
REMARK  7 active torsions:
REMARK  status: ('A' for Active; 'I' for Inactive)
REMARK    1  A    between atoms: C_1  and  O_2
REMARK    2  A    between atoms: O_2  and  N_3
REMARK    3  A    between atoms: C_4  and  C_5
REMARK    4  A    between atoms: C_4  and  C_26
REMARK    5  A    between atoms: N_7  and  CA_8
REMARK    6  A    between atoms: CA_12  and  C_13
REMARK    7  A    between atoms: C_16  and  C_17
REMARK                            x       y       z     vdW  Elec       q    Type
REMARK                         _______ _______ _______ _____ _____    ______ ____
ROOT
ATOM      1  CA  UNL     1       1.870   8.885  19.710  0.00  0.00    +0.000 C 
ATOM      2  C   UNL     1       2.259   8.360  18.310  0.00  0.00    +0.000 C 
ATOM      3  O   UNL     1       2.007   8.743  17.193  0.00  0.00    +0.000 OA
ATOM      4  N   UNL     1       2.863   7.292  18.891  0.00  0.00    +0.000 N 
ATOM      5  CA  UNL     1       3.484   6.142  18.468  0.00  0.00    +0.000 C 
ATOM      6  C   UNL     1       3.249   4.978  19.140  0.00  0.00    +0.000 C 
ATOM      7  C   UNL     1       2.229   4.850  20.273  0.00  0.00    +0.000 C 
ATOM      8  S   UNL     1       0.978   6.187  20.348  0.00  0.00    +0.000 S 
ATOM      9  C   UNL     1       2.245   7.459  20.191  0.00  0.00    +0.000 C 
ENDROOT
BRANCH   6  10
ATOM     10  C   UNL     1       3.932   3.650  18.806  0.00  0.00    +0.000 C 
ATOM     11  C   UNL     1       2.951   2.527  18.529  0.00  0.00    +0.000 C 
ATOM     12  C   UNL     1       3.734   1.290  18.894  0.00  0.00    +0.000 C 
ATOM     13  C   UNL     1       4.694   1.808  19.920  0.00  0.00    +0.000 C 
ATOM     14  O   UNL     1       5.381   1.118  20.657  0.00  0.00    +0.000 OA
ATOM     15  O   UNL     1       4.696   3.171  19.934  0.00  0.00    +0.000 OA
ENDBRANCH   6  10
BRANCH   1  18
ATOM     16  C   UNL     1       0.185  10.732  19.477  0.00  0.00    +0.000 C 
ATOM     17  O   UNL     1       1.067  11.510  19.095  0.00  0.00    +0.000 OA
ATOM     18  N   UNL     1       0.491   9.440  19.904  0.00  0.00    +0.000 N 
ATOM     19  H   UNL     1      -0.286   8.774  19.899  0.00  0.00    +0.000 HD
BRANCH  16  21
ATOM     20  N   UNL     1      -1.941  11.694  20.430  0.00  0.00    +0.000 NA
ATOM     21  C   UNL     1      -1.309  11.123  19.444  0.00  0.00    +0.000 C 
BRANCH  21  22
ATOM     22  C   UNL     1      -2.145  10.919  18.247  0.00  0.00    +0.000 A 
ATOM     23  C   UNL     1      -1.768  10.133  17.174  0.00  0.00    +0.000 A 
ATOM     24  S   UNL     1      -3.002  10.096  15.997  0.00  0.00    +0.000 S 
ATOM     25  C   UNL     1      -3.960  11.113  16.991  0.00  0.00    +0.000 A 
ATOM     26  N   UNL     1      -5.191  11.467  16.614  0.00  0.00    +0.000 N 
ATOM     27  N   UNL     1      -3.397  11.501  18.116  0.00  0.00    +0.000 NA
ATOM     28  H   UNL     1      -5.458  11.381  15.637  0.00  0.00    +0.000 HD
ATOM     29  H   UNL     1      -5.636  12.229  17.110  0.00  0.00    +0.000 HD
ENDBRANCH  21  22
BRANCH  20  31
ATOM     30  C   UNL     1      -1.252  13.348  21.815  0.00  0.00    +0.000 C 
ATOM     31  O   UNL     1      -1.179  11.941  21.567  0.00  0.00    +0.000 OA
ENDBRANCH  20  31
ENDBRANCH  16  21
ENDBRANCH   1  18
BRANCH   5  32
ATOM     32  C   UNL     1       4.509   6.265  17.233  0.00  0.00    +0.000 C 
ATOM     33  O   UNL     1       5.391   7.160  17.361  0.00  0.00    +0.000 OA
ATOM     34  OXT UNL     1       4.400   5.387  16.335  0.00  0.00    +0.000 OA
ENDBRANCH   5  32
TORSDOF 6
ENDMDL
MODEL 6
REMARK VINA RESULT:      -6.9      2.508      3.444
REMARK  Name = 
REMARK  7 active torsions:
REMARK  status: ('A' for Active; 'I' for Inactive)
REMARK    1  A    between atoms: C_1  and  O_2
REMARK    2  A    between atoms: O_2  and  N_3
REMARK    3  A    between atoms: C_4  and  C_5
REMARK    4  A    between atoms: C_4  and  C_26
REMARK    5  A    between atoms: N_7  and  CA_8
REMARK    6  A    between atoms: CA_12  and  C_13
REMARK    7  A    between atoms: C_16  and  C_17
REMARK                            x       y       z     vdW  Elec       q    Type
REMARK                         _______ _______ _______ _____ _____    ______ ____
ROOT
ATOM      1  CA  UNL     1       2.944   7.594  19.331  0.00  0.00    +0.000 C 
ATOM      2  C   UNL     1       1.781   7.276  20.298  0.00  0.00    +0.000 C 
ATOM      3  O   UNL     1       1.343   6.243  20.740  0.00  0.00    +0.000 OA
ATOM      4  N   UNL     1       1.448   8.593  20.311  0.00  0.00    +0.000 N 
ATOM      5  CA  UNL     1       0.449   9.367  20.849  0.00  0.00    +0.000 C 
ATOM      6  C   UNL     1      -0.086  10.372  20.098  0.00  0.00    +0.000 C 
ATOM      7  C   UNL     1       0.276  10.613  18.631  0.00  0.00    +0.000 C 
ATOM      8  S   UNL     1       1.068   9.196  17.783  0.00  0.00    +0.000 S 
ATOM      9  C   UNL     1       2.226   8.956  19.143  0.00  0.00    +0.000 C 
ENDROOT
BRANCH   6  10
ATOM     10  C   UNL     1      -1.154  11.340  20.611  0.00  0.00    +0.000 C 
ATOM     11  C   UNL     1      -1.866  12.088  19.499  0.00  0.00    +0.000 C 
ATOM     12  C   UNL     1      -2.312  13.362  20.173  0.00  0.00    +0.000 C 
ATOM     13  C   UNL     1      -1.291  13.527  21.257  0.00  0.00    +0.000 C 
ATOM     14  O   UNL     1      -1.121  14.538  21.921  0.00  0.00    +0.000 OA
ATOM     15  O   UNL     1      -0.554  12.389  21.403  0.00  0.00    +0.000 OA
ENDBRANCH   6  10
BRANCH   1  18
ATOM     16  C   UNL     1       4.144   5.661  18.268  0.00  0.00    +0.000 C 
ATOM     17  O   UNL     1       4.939   5.614  19.213  0.00  0.00    +0.000 OA
ATOM     18  N   UNL     1       3.183   6.667  18.177  0.00  0.00    +0.000 N 
ATOM     19  H   UNL     1       2.386   6.467  17.566  0.00  0.00    +0.000 HD
BRANCH  16  21
ATOM     20  N   UNL     1       3.230   3.641  17.070  0.00  0.00    +0.000 NA
ATOM     21  C   UNL     1       4.130   4.577  17.167  0.00  0.00    +0.000 C 
BRANCH  21  22
ATOM     22  C   UNL     1       5.131   4.549  16.085  0.00  0.00    +0.000 A 
ATOM     23  C   UNL     1       6.322   5.249  16.125  0.00  0.00    +0.000 A 
ATOM     24  S   UNL     1       7.245   4.940  14.724  0.00  0.00    +0.000 S 
ATOM     25  C   UNL     1       6.012   3.888  14.163  0.00  0.00    +0.000 A 
ATOM     26  N   UNL     1       6.154   3.229  13.010  0.00  0.00    +0.000 N 
ATOM     27  N   UNL     1       4.952   3.792  14.937  0.00  0.00    +0.000 NA
ATOM     28  H   UNL     1       6.840   3.550  12.332  0.00  0.00    +0.000 HD
ATOM     29  H   UNL     1       5.332   2.795  12.609  0.00  0.00    +0.000 HD
ENDBRANCH  21  22
BRANCH  20  31
ATOM     30  C   UNL     1       2.154   2.321  18.562  0.00  0.00    +0.000 C 
ATOM     31  O   UNL     1       2.242   3.654  18.049  0.00  0.00    +0.000 OA
ENDBRANCH  20  31
ENDBRANCH  16  21
ENDBRANCH   1  18
BRANCH   5  32
ATOM     32  C   UNL     1       0.022   9.070  22.373  0.00  0.00    +0.000 C 
ATOM     33  O   UNL     1      -0.867   8.184  22.512  0.00  0.00    +0.000 OA
ATOM     34  OXT UNL     1       0.697   9.658  23.260  0.00  0.00    +0.000 OA
ENDBRANCH   5  32
TORSDOF 6
ENDMDL
MODEL 7
REMARK VINA RESULT:      -6.9      3.005      9.132
REMARK  Name = 
REMARK  7 active torsions:
REMARK  status: ('A' for Active; 'I' for Inactive)
REMARK    1  A    between atoms: C_1  and  O_2
REMARK    2  A    between atoms: O_2  and  N_3
REMARK    3  A    between atoms: C_4  and  C_5
REMARK    4  A    between atoms: C_4  and  C_26
REMARK    5  A    between atoms: N_7  and  CA_8
REMARK    6  A    between atoms: CA_12  and  C_13
REMARK    7  A    between atoms: C_16  and  C_17
REMARK                            x       y       z     vdW  Elec       q    Type
REMARK                         _______ _______ _______ _____ _____    ______ ____
ROOT
ATOM      1  CA  UNL     1       1.812   7.217  19.013  0.00  0.00    +0.000 C 
ATOM      2  C   UNL     1       2.626   6.015  19.542  0.00  0.00    +0.000 C 
ATOM      3  O   UNL     1       2.852   5.604  20.654  0.00  0.00    +0.000 OA
ATOM      4  N   UNL     1       3.026   5.742  18.273  0.00  0.00    +0.000 N 
ATOM      5  CA  UNL     1       3.876   4.854  17.661  0.00  0.00    +0.000 C 
ATOM      6  C   UNL     1       4.668   5.292  16.640  0.00  0.00    +0.000 C 
ATOM      7  C   UNL     1       4.758   6.759  16.214  0.00  0.00    +0.000 C 
ATOM      8  S   UNL     1       4.152   7.967  17.450  0.00  0.00    +0.000 S 
ATOM      9  C   UNL     1       2.640   7.024  17.716  0.00  0.00    +0.000 C 
ENDROOT
BRANCH   6  10
ATOM     10  C   UNL     1       5.604   4.384  15.840  0.00  0.00    +0.000 C 
ATOM     11  C   UNL     1       6.904   5.062  15.449  0.00  0.00    +0.000 C 
ATOM     12  C   UNL     1       7.314   4.323  14.199  0.00  0.00    +0.000 C 
ATOM     13  C   UNL     1       5.998   3.862  13.652  0.00  0.00    +0.000 C 
ATOM     14  O   UNL     1       5.818   3.410  12.532  0.00  0.00    +0.000 OA
ATOM     15  O   UNL     1       5.007   4.026  14.574  0.00  0.00    +0.000 OA
ENDBRANCH   6  10
BRANCH   1  18
ATOM     16  C   UNL     1       1.122   9.606  19.359  0.00  0.00    +0.000 C 
ATOM     17  O   UNL     1       0.565   9.622  18.255  0.00  0.00    +0.000 OA
ATOM     18  N   UNL     1       1.856   8.501  19.787  0.00  0.00    +0.000 N 
ATOM     19  H   UNL     1       2.010   8.433  20.797  0.00  0.00    +0.000 HD
BRANCH  16  21
ATOM     20  N   UNL     1       0.598  10.660  21.588  0.00  0.00    +0.000 NA
ATOM     21  C   UNL     1       0.985  10.783  20.351  0.00  0.00    +0.000 C 
BRANCH  21  22
ATOM     22  C   UNL     1       1.340  12.164  19.979  0.00  0.00    +0.000 A 
ATOM     23  C   UNL     1       0.973  13.275  20.715  0.00  0.00    +0.000 A 
ATOM     24  S   UNL     1       1.597  14.696  20.007  0.00  0.00    +0.000 S 
ATOM     25  C   UNL     1       2.326  13.745  18.779  0.00  0.00    +0.000 A 
ATOM     26  N   UNL     1       3.070  14.317  17.829  0.00  0.00    +0.000 N 
ATOM     27  N   UNL     1       2.095  12.452  18.851  0.00  0.00    +0.000 NA
ATOM     28  H   UNL     1       2.980  15.315  17.657  0.00  0.00    +0.000 HD
ATOM     29  H   UNL     1       3.299  13.765  17.012  0.00  0.00    +0.000 HD
ENDBRANCH  21  22
BRANCH  20  31
ATOM     30  C   UNL     1      -0.274   9.468  23.305  0.00  0.00    +0.000 C 
ATOM     31  O   UNL     1       0.290   9.365  21.994  0.00  0.00    +0.000 OA
ENDBRANCH  20  31
ENDBRANCH  16  21
ENDBRANCH   1  18
BRANCH   5  32
ATOM     32  C   UNL     1       3.828   3.322  18.155  0.00  0.00    +0.000 C 
ATOM     33  O   UNL     1       4.560   3.062  19.151  0.00  0.00    +0.000 OA
ATOM     34  OXT UNL     1       2.985   2.582  17.580  0.00  0.00    +0.000 OA
ENDBRANCH   5  32
TORSDOF 6
ENDMDL
MODEL 8
REMARK VINA RESULT:      -6.9      2.040      2.855
REMARK  Name = 
REMARK  7 active torsions:
REMARK  status: ('A' for Active; 'I' for Inactive)
REMARK    1  A    between atoms: C_1  and  O_2
REMARK    2  A    between atoms: O_2  and  N_3
REMARK    3  A    between atoms: C_4  and  C_5
REMARK    4  A    between atoms: C_4  and  C_26
REMARK    5  A    between atoms: N_7  and  CA_8
REMARK    6  A    between atoms: CA_12  and  C_13
REMARK    7  A    between atoms: C_16  and  C_17
REMARK                            x       y       z     vdW  Elec       q    Type
REMARK                         _______ _______ _______ _____ _____    ______ ____
ROOT
ATOM      1  CA  UNL     1       1.309   8.712  18.772  0.00  0.00    +0.000 C 
ATOM      2  C   UNL     1       1.739  10.172  18.507  0.00  0.00    +0.000 C 
ATOM      3  O   UNL     1       2.696  10.656  17.954  0.00  0.00    +0.000 OA
ATOM      4  N   UNL     1       0.678  10.605  19.236  0.00  0.00    +0.000 N 
ATOM      5  CA  UNL     1       0.193  11.811  19.678  0.00  0.00    +0.000 C 
ATOM      6  C   UNL     1      -0.307  11.900  20.944  0.00  0.00    +0.000 C 
ATOM      7  C   UNL     1      -0.247  10.754  21.955  0.00  0.00    +0.000 C 
ATOM      8  S   UNL     1       0.971   9.440  21.572  0.00  0.00    +0.000 S 
ATOM      9  C   UNL     1       0.399   9.330  19.866  0.00  0.00    +0.000 C 
ENDROOT
BRANCH   6  10
ATOM     10  C   UNL     1      -0.934  13.169  21.524  0.00  0.00    +0.000 C 
ATOM     11  C   UNL     1      -1.059  13.137  23.035  0.00  0.00    +0.000 C 
ATOM     12  C   UNL     1      -2.224  14.059  23.303  0.00  0.00    +0.000 C 
ATOM     13  C   UNL     1      -3.018  13.949  22.038  0.00  0.00    +0.000 C 
ATOM     14  O   UNL     1      -4.161  14.353  21.883  0.00  0.00    +0.000 OA
ATOM     15  O   UNL     1      -2.296  13.320  21.067  0.00  0.00    +0.000 OA
ENDBRANCH   6  10
BRANCH   1  18
ATOM     16  C   UNL     1       2.407   6.476  18.456  0.00  0.00    +0.000 C 
ATOM     17  O   UNL     1       1.483   6.107  17.723  0.00  0.00    +0.000 OA
ATOM     18  N   UNL     1       2.370   7.708  19.109  0.00  0.00    +0.000 N 
ATOM     19  H   UNL     1       3.273   8.070  19.427  0.00  0.00    +0.000 HD
BRANCH  16  21
ATOM     20  N   UNL     1       4.844   5.917  18.132  0.00  0.00    +0.000 NA
ATOM     21  C   UNL     1       3.682   5.624  18.643  0.00  0.00    +0.000 C 
BRANCH  21  22
ATOM     22  C   UNL     1       3.694   4.407  19.476  0.00  0.00    +0.000 A 
ATOM     23  C   UNL     1       2.686   4.075  20.362  0.00  0.00    +0.000 A 
ATOM     24  S   UNL     1       3.019   2.581  21.114  0.00  0.00    +0.000 S 
ATOM     25  C   UNL     1       4.469   2.464  20.206  0.00  0.00    +0.000 A 
ATOM     26  N   UNL     1       5.258   1.393  20.321  0.00  0.00    +0.000 N 
ATOM     27  N   UNL     1       4.728   3.485  19.417  0.00  0.00    +0.000 NA
ATOM     28  H   UNL     1       5.164   0.788  21.132  0.00  0.00    +0.000 HD
ATOM     29  H   UNL     1       6.195   1.454  19.944  0.00  0.00    +0.000 HD
ENDBRANCH  21  22
BRANCH  20  31
ATOM     30  C   UNL     1       5.173   6.681  16.026  0.00  0.00    +0.000 C 
ATOM     31  O   UNL     1       4.887   7.080  17.370  0.00  0.00    +0.000 OA
ENDBRANCH  20  31
ENDBRANCH  16  21
ENDBRANCH   1  18
BRANCH   5  32
ATOM     32  C   UNL     1       0.191  13.036  18.632  0.00  0.00    +0.000 C 
ATOM     33  O   UNL     1       1.235  13.745  18.642  0.00  0.00    +0.000 OA
ATOM     34  OXT UNL     1      -0.790  13.085  17.841  0.00  0.00    +0.000 OA
ENDBRANCH   5  32
TORSDOF 6
ENDMDL
MODEL 9
REMARK VINA RESULT:      -6.9      1.149      1.319
REMARK  Name = 
REMARK  7 active torsions:
REMARK  status: ('A' for Active; 'I' for Inactive)
REMARK    1  A    between atoms: C_1  and  O_2
REMARK    2  A    between atoms: O_2  and  N_3
REMARK    3  A    between atoms: C_4  and  C_5
REMARK    4  A    between atoms: C_4  and  C_26
REMARK    5  A    between atoms: N_7  and  CA_8
REMARK    6  A    between atoms: CA_12  and  C_13
REMARK    7  A    between atoms: C_16  and  C_17
REMARK                            x       y       z     vdW  Elec       q    Type
REMARK                         _______ _______ _______ _____ _____    ______ ____
ROOT
ATOM      1  CA  UNL     1       1.545   8.092  18.503  0.00  0.00    +0.000 C 
ATOM      2  C   UNL     1       1.835   9.595  18.292  0.00  0.00    +0.000 C 
ATOM      3  O   UNL     1       2.740  10.187  17.759  0.00  0.00    +0.000 OA
ATOM      4  N   UNL     1       0.738   9.898  19.034  0.00  0.00    +0.000 N 
ATOM      5  CA  UNL     1       0.141  11.036  19.519  0.00  0.00    +0.000 C 
ATOM      6  C   UNL     1      -0.364  11.031  20.786  0.00  0.00    +0.000 C 
ATOM      7  C   UNL     1      -0.194   9.860  21.755  0.00  0.00    +0.000 C 
ATOM      8  S   UNL     1       1.143   8.683  21.327  0.00  0.00    +0.000 S 
ATOM      9  C   UNL     1       0.582   8.580  19.617  0.00  0.00    +0.000 C 
ENDROOT
BRANCH   6  10
ATOM     10  C   UNL     1      -1.108  12.214  21.410  0.00  0.00    +0.000 C 
ATOM     11  C   UNL     1      -1.211  12.124  22.921  0.00  0.00    +0.000 C 
ATOM     12  C   UNL     1      -2.458  12.916  23.227  0.00  0.00    +0.000 C 
ATOM     13  C   UNL     1      -3.253  12.764  21.966  0.00  0.00    +0.000 C 
ATOM     14  O   UNL     1      -4.432  13.055  21.835  0.00  0.00    +0.000 OA
ATOM     15  O   UNL     1      -2.483  12.240  20.971  0.00  0.00    +0.000 OA
ENDBRANCH   6  10
BRANCH   1  18
ATOM     16  C   UNL     1       2.619   5.822  18.506  0.00  0.00    +0.000 C 
ATOM     17  O   UNL     1       1.555   5.301  18.152  0.00  0.00    +0.000 OA
ATOM     18  N   UNL     1       2.697   7.181  18.807  0.00  0.00    +0.000 N 
ATOM     19  H   UNL     1       3.635   7.589  18.780  0.00  0.00    +0.000 HD
BRANCH  16  21
ATOM     20  N   UNL     1       4.124   3.986  19.353  0.00  0.00    +0.000 NA
ATOM     21  C   UNL     1       3.933   5.013  18.575  0.00  0.00    +0.000 C 
BRANCH  21  22
ATOM     22  C   UNL     1       5.085   5.318  17.707  0.00  0.00    +0.000 A 
ATOM     23  C   UNL     1       5.471   4.530  16.640  0.00  0.00    +0.000 A 
ATOM     24  S   UNL     1       6.813   5.217  15.842  0.00  0.00    +0.000 S 
ATOM     25  C   UNL     1       6.787   6.521  16.954  0.00  0.00    +0.000 A 
ATOM     26  N   UNL     1       7.658   7.528  16.843  0.00  0.00    +0.000 N 
ATOM     27  N   UNL     1       5.869   6.447  17.895  0.00  0.00    +0.000 NA
ATOM     28  H   UNL     1       8.503   7.397  16.294  0.00  0.00    +0.000 HD
ATOM     29  H   UNL     1       7.755   8.158  17.628  0.00  0.00    +0.000 HD
ENDBRANCH  21  22
BRANCH  20  31
ATOM     30  C   UNL     1       2.617   2.341  19.741  0.00  0.00    +0.000 C 
ATOM     31  O   UNL     1       3.047   3.639  20.162  0.00  0.00    +0.000 OA
ENDBRANCH  20  31
ENDBRANCH  16  21
ENDBRANCH   1  18
BRANCH   5  32
ATOM     32  C   UNL     1       0.021  12.292  18.518  0.00  0.00    +0.000 C 
ATOM     33  O   UNL     1      -1.093  12.401  17.934  0.00  0.00    +0.000 OA
ATOM     34  OXT UNL     1       0.996  13.092  18.515  0.00  0.00    +0.000 OA
ENDBRANCH   5  32
TORSDOF 6
ENDMDL
