MODEL 1
REMARK VINA RESULT:      -7.3      0.000      0.000
REMARK  Name = 
REMARK  10 active torsions:
REMARK  status: ('A' for Active; 'I' for Inactive)
REMARK    1  A    between atoms: C_1  and  C_2
REMARK    2  A    between atoms: C_2  and  N_3
REMARK    3  A    between atoms: N_3  and  C_4
REMARK    4  A    between atoms: N_3  and  C_6
REMARK    5  A    between atoms: C_4  and  C_5
REMARK    6  A    between atoms: C_9  and  C_10
REMARK    7  A    between atoms: C_11  and  C_12
REMARK    8  A    between atoms: N_21  and  C_22
REMARK    9  A    between atoms: C_23  and  O_24
REMARK   10  A    between atoms: O_24  and  C_25
REMARK                            x       y       z     vdW  Elec       q    Type
REMARK                         _______ _______ _______ _____ _____    ______ ____
ROOT
ATOM      1  C   UNL     1       4.998   5.612  17.309  0.00  0.00    +0.000 A 
ATOM      2  C   UNL     1       4.775   6.864  16.671  0.00  0.00    +0.000 A 
ATOM      3  C   UNL     1       3.745   7.738  17.086  0.00  0.00    +0.000 A 
ATOM      4  C   UNL     1       2.912   7.410  18.169  0.00  0.00    +0.000 A 
ATOM      5  C   UNL     1       3.098   6.173  18.802  0.00  0.00    +0.000 A 
ATOM      6  C   UNL     1       4.110   5.296  18.375  0.00  0.00    +0.000 A 
ENDROOT
BRANCH   4   7
ATOM      7  C   UNL     1       1.827   8.287  18.714  0.00  0.00    +0.000 C 
ATOM      8  C   UNL     1       1.624   9.558  18.303  0.00  0.00    +0.000 C 
BRANCH   8   9
ATOM      9  C   UNL     1       0.379  10.363  18.614  0.00  0.00    +0.000 A 
ATOM     10  C   UNL     1      -0.869  10.091  18.048  0.00  0.00    +0.000 A 
ATOM     11  C   UNL     1      -1.840  11.118  17.976  0.00  0.00    +0.000 A 
ATOM     12  C   UNL     1      -1.910  11.823  19.147  0.00  0.00    +0.000 A 
ATOM     13  C   UNL     1      -3.142  12.324  19.565  0.00  0.00    +0.000 A 
ATOM     14  C   UNL     1      -3.281  12.741  20.879  0.00  0.00    +0.000 A 
ATOM     15  C   UNL     1      -2.185  12.710  21.755  0.00  0.00    +0.000 A 
ATOM     16  C   UNL     1      -0.907  12.321  21.273  0.00  0.00    +0.000 A 
ATOM     17  C   UNL     1      -0.751  11.926  19.934  0.00  0.00    +0.000 A 
ATOM     18  N   UNL     1       0.455  11.464  19.423  0.00  0.00    +0.000 N 
ATOM     19  C   UNL     1       1.296  12.489  18.747  0.00  0.00    +0.000 C 
ENDBRANCH   8   9
ENDBRANCH   4   7
BRANCH   5  20
ATOM     20  O   UNL     1       2.263   5.857  19.855  0.00  0.00    +0.000 OA
ATOM     21  C   UNL     1       1.714   4.598  20.100  0.00  0.00    +0.000 C 
ENDBRANCH   5  20
BRANCH   1  22
ATOM     22  N   UNL     1       6.075   4.700  16.945  0.00  0.00    +0.000 N 
BRANCH  22  24
ATOM     23  C   UNL     1       7.631   5.937  18.424  0.00  0.00    +0.000 C 
ATOM     24  C   UNL     1       7.289   4.607  17.761  0.00  0.00    +0.000 C 
ENDBRANCH  22  24
BRANCH  22  25
ATOM     25  C   UNL     1       5.866   3.790  15.795  0.00  0.00    +0.000 C 
ATOM     26  C   UNL     1       6.206   4.324  14.394  0.00  0.00    +0.000 C 
ENDBRANCH  22  25
ENDBRANCH   1  22
TORSDOF 6
ENDMDL
MODEL 2
REMARK VINA RESULT:      -7.2      0.982      1.736
REMARK  Name = 
REMARK  10 active torsions:
REMARK  status: ('A' for Active; 'I' for Inactive)
REMARK    1  A    between atoms: C_1  and  C_2
REMARK    2  A    between atoms: C_2  and  N_3
REMARK    3  A    between atoms: N_3  and  C_4
REMARK    4  A    between atoms: N_3  and  C_6
REMARK    5  A    between atoms: C_4  and  C_5
REMARK    6  A    between atoms: C_9  and  C_10
REMARK    7  A    between atoms: C_11  and  C_12
REMARK    8  A    between atoms: N_21  and  C_22
REMARK    9  A    between atoms: C_23  and  O_24
REMARK   10  A    between atoms: O_24  and  C_25
REMARK                            x       y       z     vdW  Elec       q    Type
REMARK                         _______ _______ _______ _____ _____    ______ ____
ROOT
ATOM      1  C   UNL     1       4.648   5.732  17.784  0.00  0.00    +0.000 A 
ATOM      2  C   UNL     1       4.289   6.950  17.140  0.00  0.00    +0.000 A 
ATOM      3  C   UNL     1       3.234   7.760  17.617  0.00  0.00    +0.000 A 
ATOM      4  C   UNL     1       2.512   7.403  18.768  0.00  0.00    +0.000 A 
ATOM      5  C   UNL     1       2.832   6.198  19.409  0.00  0.00    +0.000 A 
ATOM      6  C   UNL     1       3.868   5.383  18.922  0.00  0.00    +0.000 A 
ENDROOT
BRANCH   4   7
ATOM      7  C   UNL     1       1.413   8.218  19.378  0.00  0.00    +0.000 C 
ATOM      8  C   UNL     1       1.477   9.559  19.523  0.00  0.00    +0.000 C 
BRANCH   8   9
ATOM      9  C   UNL     1       0.287  10.435  19.862  0.00  0.00    +0.000 A 
ATOM     10  C   UNL     1      -0.869  10.490  19.079  0.00  0.00    +0.000 A 
ATOM     11  C   UNL     1      -1.702  11.632  19.148  0.00  0.00    +0.000 A 
ATOM     12  C   UNL     1      -1.894  12.034  20.442  0.00  0.00    +0.000 A 
ATOM     13  C   UNL     1      -3.121  12.590  20.805  0.00  0.00    +0.000 A 
ATOM     14  C   UNL     1      -3.435  12.690  22.150  0.00  0.00    +0.000 A 
ATOM     15  C   UNL     1      -2.512  12.290  23.128  0.00  0.00    +0.000 A 
ATOM     16  C   UNL     1      -1.218  11.851  22.740  0.00  0.00    +0.000 A 
ATOM     17  C   UNL     1      -0.881  11.776  21.379  0.00  0.00    +0.000 A 
ATOM     18  N   UNL     1       0.339  11.283  20.934  0.00  0.00    +0.000 N 
ATOM     19  C   UNL     1       1.384  12.310  20.672  0.00  0.00    +0.000 C 
ENDBRANCH   8   9
ENDBRANCH   4   7
BRANCH   5  20
ATOM     20  O   UNL     1       2.104   5.852  20.530  0.00  0.00    +0.000 OA
ATOM     21  C   UNL     1       1.832   4.549  20.944  0.00  0.00    +0.000 C 
ENDBRANCH   5  20
BRANCH   1  22
ATOM     22  N   UNL     1       5.756   4.887  17.355  0.00  0.00    +0.000 N 
BRANCH  22  24
ATOM     23  C   UNL     1       6.743   4.650  15.095  0.00  0.00    +0.000 C 
ATOM     24  C   UNL     1       5.695   4.156  16.086  0.00  0.00    +0.000 C 
ENDBRANCH  22  24
BRANCH  22  25
ATOM     25  C   UNL     1       6.989   4.874  18.176  0.00  0.00    +0.000 C 
ATOM     26  C   UNL     1       7.639   6.228  18.504  0.00  0.00    +0.000 C 
ENDBRANCH  22  25
ENDBRANCH   1  22
TORSDOF 6
ENDMDL
MODEL 3
REMARK VINA RESULT:      -7.1      0.671      1.523
REMARK  Name = 
REMARK  10 active torsions:
REMARK  status: ('A' for Active; 'I' for Inactive)
REMARK    1  A    between atoms: C_1  and  C_2
REMARK    2  A    between atoms: C_2  and  N_3
REMARK    3  A    between atoms: N_3  and  C_4
REMARK    4  A    between atoms: N_3  and  C_6
REMARK    5  A    between atoms: C_4  and  C_5
REMARK    6  A    between atoms: C_9  and  C_10
REMARK    7  A    between atoms: C_11  and  C_12
REMARK    8  A    between atoms: N_21  and  C_22
REMARK    9  A    between atoms: C_23  and  O_24
REMARK   10  A    between atoms: O_24  and  C_25
REMARK                            x       y       z     vdW  Elec       q    Type
REMARK                         _______ _______ _______ _____ _____    ______ ____
ROOT
ATOM      1  C   UNL     1       4.459   5.747  17.654  0.00  0.00    +0.000 A 
ATOM      2  C   UNL     1       4.342   6.949  16.900  0.00  0.00    +0.000 A 
ATOM      3  C   UNL     1       3.426   7.965  17.257  0.00  0.00    +0.000 A 
ATOM      4  C   UNL     1       2.608   7.834  18.391  0.00  0.00    +0.000 A 
ATOM      5  C   UNL     1       2.689   6.651  19.139  0.00  0.00    +0.000 A 
ATOM      6  C   UNL     1       3.586   5.633  18.772  0.00  0.00    +0.000 A 
ENDROOT
BRANCH   4   7
ATOM      7  C   UNL     1       1.644   8.872  18.878  0.00  0.00    +0.000 C 
ATOM      8  C   UNL     1       0.865   9.606  18.053  0.00  0.00    +0.000 C 
BRANCH   8   9
ATOM      9  C   UNL     1      -0.310  10.442  18.515  0.00  0.00    +0.000 A 
ATOM     10  C   UNL     1      -1.589  10.334  17.963  0.00  0.00    +0.000 A 
ATOM     11  C   UNL     1      -2.487  11.424  18.067  0.00  0.00    +0.000 A 
ATOM     12  C   UNL     1      -2.474  11.966  19.323  0.00  0.00    +0.000 A 
ATOM     13  C   UNL     1      -3.656  12.485  19.850  0.00  0.00    +0.000 A 
ATOM     14  C   UNL     1      -3.729  12.726  21.212  0.00  0.00    +0.000 A 
ATOM     15  C   UNL     1      -2.615  12.502  22.035  0.00  0.00    +0.000 A 
ATOM     16  C   UNL     1      -1.381  12.099  21.459  0.00  0.00    +0.000 A 
ATOM     17  C   UNL     1      -1.291  11.882  20.074  0.00  0.00    +0.000 A 
ATOM     18  N   UNL     1      -0.135  11.415  19.462  0.00  0.00    +0.000 N 
ATOM     19  C   UNL     1       0.758  12.464  18.900  0.00  0.00    +0.000 C 
ENDBRANCH   8   9
ENDBRANCH   4   7
BRANCH   5  20
ATOM     20  O   UNL     1       1.868   6.530  20.242  0.00  0.00    +0.000 OA
ATOM     21  C   UNL     1       1.581   5.339  20.907  0.00  0.00    +0.000 C 
ENDBRANCH   5  20
BRANCH   1  22
ATOM     22  N   UNL     1       5.419   4.693  17.350  0.00  0.00    +0.000 N 
BRANCH  22  24
ATOM     23  C   UNL     1       6.174   4.192  15.045  0.00  0.00    +0.000 C 
ATOM     24  C   UNL     1       5.234   3.821  16.187  0.00  0.00    +0.000 C 
ENDBRANCH  22  24
BRANCH  22  25
ATOM     25  C   UNL     1       6.642   4.598  18.180  0.00  0.00    +0.000 C 
ATOM     26  C   UNL     1       7.520   5.854  18.300  0.00  0.00    +0.000 C 
ENDBRANCH  22  25
ENDBRANCH   1  22
TORSDOF 6
ENDMDL
MODEL 4
REMARK VINA RESULT:      -7.1      1.657      2.723
REMARK  Name = 
REMARK  10 active torsions:
REMARK  status: ('A' for Active; 'I' for Inactive)
REMARK    1  A    between atoms: C_1  and  C_2
REMARK    2  A    between atoms: C_2  and  N_3
REMARK    3  A    between atoms: N_3  and  C_4
REMARK    4  A    between atoms: N_3  and  C_6
REMARK    5  A    between atoms: C_4  and  C_5
REMARK    6  A    between atoms: C_9  and  C_10
REMARK    7  A    between atoms: C_11  and  C_12
REMARK    8  A    between atoms: N_21  and  C_22
REMARK    9  A    between atoms: C_23  and  O_24
REMARK   10  A    between atoms: O_24  and  C_25
REMARK                            x       y       z     vdW  Elec       q    Type
REMARK                         _______ _______ _______ _____ _____    ______ ____
ROOT
ATOM      1  C   UNL     1       4.625   5.406  17.825  0.00  0.00    +0.000 A 
ATOM      2  C   UNL     1       4.205   6.690  17.376  0.00  0.00    +0.000 A 
ATOM      3  C   UNL     1       3.213   7.429  18.059  0.00  0.00    +0.000 A 
ATOM      4  C   UNL     1       2.616   6.930  19.228  0.00  0.00    +0.000 A 
ATOM      5  C   UNL     1       2.997   5.659  19.681  0.00  0.00    +0.000 A 
ATOM      6  C   UNL     1       3.970   4.917  18.990  0.00  0.00    +0.000 A 
ENDROOT
BRANCH   4   7
ATOM      7  C   UNL     1       1.594   7.657  20.047  0.00  0.00    +0.000 C 
ATOM      8  C   UNL     1       1.903   8.655  20.903  0.00  0.00    +0.000 C 
BRANCH   8   9
ATOM      9  C   UNL     1       0.884   9.592  21.519  0.00  0.00    +0.000 A 
ATOM     10  C   UNL     1       0.289   9.365  22.763  0.00  0.00    +0.000 A 
ATOM     11  C   UNL     1      -0.960   9.963  23.058  0.00  0.00    +0.000 A 
ATOM     12  C   UNL     1      -0.992  11.273  22.664  0.00  0.00    +0.000 A 
ATOM     13  C   UNL     1      -1.721  12.191  23.421  0.00  0.00    +0.000 A 
ATOM     14  C   UNL     1      -1.494  13.543  23.227  0.00  0.00    +0.000 A 
ATOM     15  C   UNL     1      -0.588  13.980  22.248  0.00  0.00    +0.000 A 
ATOM     16  C   UNL     1       0.045  13.033  21.399  0.00  0.00    +0.000 A 
ATOM     17  C   UNL     1      -0.203  11.661  21.569  0.00  0.00    +0.000 A 
ATOM     18  N   UNL     1       0.441  10.684  20.822  0.00  0.00    +0.000 N 
ATOM     19  C   UNL     1      -0.298  10.208  19.621  0.00  0.00    +0.000 C 
ENDBRANCH   8   9
ENDBRANCH   4   7
BRANCH   5  20
ATOM     20  O   UNL     1       2.391   5.175  20.822  0.00  0.00    +0.000 OA
ATOM     21  C   UNL     1       1.581   4.042  20.888  0.00  0.00    +0.000 C 
ENDBRANCH   5  20
BRANCH   1  22
ATOM     22  N   UNL     1       5.675   4.628  17.181  0.00  0.00    +0.000 N 
BRANCH  22  24
ATOM     23  C   UNL     1       6.186   4.328  14.775  0.00  0.00    +0.000 C 
ATOM     24  C   UNL     1       5.393   3.835  15.981  0.00  0.00    +0.000 C 
ENDBRANCH  22  24
BRANCH  22  25
ATOM     25  C   UNL     1       7.057   4.747  17.701  0.00  0.00    +0.000 C 
ATOM     26  C   UNL     1       7.342   5.868  18.712  0.00  0.00    +0.000 C 
ENDBRANCH  22  25
ENDBRANCH   1  22
TORSDOF 6
ENDMDL
MODEL 5
REMARK VINA RESULT:      -7.1      1.629      2.376
REMARK  Name = 
REMARK  10 active torsions:
REMARK  status: ('A' for Active; 'I' for Inactive)
REMARK    1  A    between atoms: C_1  and  C_2
REMARK    2  A    between atoms: C_2  and  N_3
REMARK    3  A    between atoms: N_3  and  C_4
REMARK    4  A    between atoms: N_3  and  C_6
REMARK    5  A    between atoms: C_4  and  C_5
REMARK    6  A    between atoms: C_9  and  C_10
REMARK    7  A    between atoms: C_11  and  C_12
REMARK    8  A    between atoms: N_21  and  C_22
REMARK    9  A    between atoms: C_23  and  O_24
REMARK   10  A    between atoms: O_24  and  C_25
REMARK                            x       y       z     vdW  Elec       q    Type
REMARK                         _______ _______ _______ _____ _____    ______ ____
ROOT
ATOM      1  C   UNL     1       4.354   5.648  17.847  0.00  0.00    +0.000 A 
ATOM      2  C   UNL     1       3.957   6.950  17.428  0.00  0.00    +0.000 A 
ATOM      3  C   UNL     1       2.994   7.700  18.140  0.00  0.00    +0.000 A 
ATOM      4  C   UNL     1       2.405   7.194  19.310  0.00  0.00    +0.000 A 
ATOM      5  C   UNL     1       2.762   5.906  19.734  0.00  0.00    +0.000 A 
ATOM      6  C   UNL     1       3.706   5.153  19.014  0.00  0.00    +0.000 A 
ENDROOT
BRANCH   4   7
ATOM      7  C   UNL     1       1.413   7.929  20.159  0.00  0.00    +0.000 C 
ATOM      8  C   UNL     1       1.748   8.958  20.967  0.00  0.00    +0.000 C 
BRANCH   8   9
ATOM      9  C   UNL     1       0.746   9.898  21.606  0.00  0.00    +0.000 A 
ATOM     10  C   UNL     1       0.106   9.624  22.817  0.00  0.00    +0.000 A 
ATOM     11  C   UNL     1      -1.128  10.252  23.111  0.00  0.00    +0.000 A 
ATOM     12  C   UNL     1      -1.101  11.583  22.792  0.00  0.00    +0.000 A 
ATOM     13  C   UNL     1      -1.818  12.484  23.579  0.00  0.00    +0.000 A 
ATOM     14  C   UNL     1      -1.536  13.835  23.469  0.00  0.00    +0.000 A 
ATOM     15  C   UNL     1      -0.584  14.291  22.543  0.00  0.00    +0.000 A 
ATOM     16  C   UNL     1       0.039  13.370  21.659  0.00  0.00    +0.000 A 
ATOM     17  C   UNL     1      -0.265  12.001  21.744  0.00  0.00    +0.000 A 
ATOM     18  N   UNL     1       0.365  11.043  20.961  0.00  0.00    +0.000 N 
ATOM     19  C   UNL     1      -0.353  10.664  19.714  0.00  0.00    +0.000 C 
ENDBRANCH   8   9
ENDBRANCH   4   7
BRANCH   5  20
ATOM     20  O   UNL     1       2.164   5.415  20.877  0.00  0.00    +0.000 OA
ATOM     21  C   UNL     1       2.155   4.078  21.273  0.00  0.00    +0.000 C 
ENDBRANCH   5  20
BRANCH   1  22
ATOM     22  N   UNL     1       5.374   4.857  17.172  0.00  0.00    +0.000 N 
BRANCH  22  24
ATOM     23  C   UNL     1       7.466   5.839  18.067  0.00  0.00    +0.000 C 
ATOM     24  C   UNL     1       6.656   4.570  17.823  0.00  0.00    +0.000 C 
ENDBRANCH  22  24
BRANCH  22  25
ATOM     25  C   UNL     1       5.043   4.257  15.858  0.00  0.00    +0.000 C 
ATOM     26  C   UNL     1       6.208   3.951  14.903  0.00  0.00    +0.000 C 
ENDBRANCH  22  25
ENDBRANCH   1  22
TORSDOF 6
ENDMDL
MODEL 6
REMARK VINA RESULT:      -6.9      1.002      1.110
REMARK  Name = 
REMARK  10 active torsions:
REMARK  status: ('A' for Active; 'I' for Inactive)
REMARK    1  A    between atoms: C_1  and  C_2
REMARK    2  A    between atoms: C_2  and  N_3
REMARK    3  A    between atoms: N_3  and  C_4
REMARK    4  A    between atoms: N_3  and  C_6
REMARK    5  A    between atoms: C_4  and  C_5
REMARK    6  A    between atoms: C_9  and  C_10
REMARK    7  A    between atoms: C_11  and  C_12
REMARK    8  A    between atoms: N_21  and  C_22
REMARK    9  A    between atoms: C_23  and  O_24
REMARK   10  A    between atoms: O_24  and  C_25
REMARK                            x       y       z     vdW  Elec       q    Type
REMARK                         _______ _______ _______ _____ _____    ______ ____
ROOT
ATOM      1  C   UNL     1       4.804   5.931  17.749  0.00  0.00    +0.000 A 
ATOM      2  C   UNL     1       4.452   7.127  17.063  0.00  0.00    +0.000 A 
ATOM      3  C   UNL     1       3.318   7.887  17.426  0.00  0.00    +0.000 A 
ATOM      4  C   UNL     1       2.502   7.499  18.501  0.00  0.00    +0.000 A 
ATOM      5  C   UNL     1       2.815   6.313  19.181  0.00  0.00    +0.000 A 
ATOM      6  C   UNL     1       3.933   5.548  18.806  0.00  0.00    +0.000 A 
ENDROOT
BRANCH   4   7
ATOM      7  C   UNL     1       1.309   8.260  18.993  0.00  0.00    +0.000 C 
ATOM      8  C   UNL     1       1.401   9.352  19.782  0.00  0.00    +0.000 C 
BRANCH   8   9
ATOM      9  C   UNL     1       0.253  10.303  20.054  0.00  0.00    +0.000 A 
ATOM     10  C   UNL     1      -0.919  10.325  19.293  0.00  0.00    +0.000 A 
ATOM     11  C   UNL     1      -1.708  11.499  19.263  0.00  0.00    +0.000 A 
ATOM     12  C   UNL     1      -1.855  12.036  20.513  0.00  0.00    +0.000 A 
ATOM     13  C   UNL     1      -3.052  12.671  20.843  0.00  0.00    +0.000 A 
ATOM     14  C   UNL     1      -3.330  12.917  22.177  0.00  0.00    +0.000 A 
ATOM     15  C   UNL     1      -2.400  12.582  23.172  0.00  0.00    +0.000 A 
ATOM     16  C   UNL     1      -1.132  12.056  22.805  0.00  0.00    +0.000 A 
ATOM     17  C   UNL     1      -0.830  11.832  21.452  0.00  0.00    +0.000 A 
ATOM     18  N   UNL     1       0.361  11.252  21.035  0.00  0.00    +0.000 N 
ATOM     19  C   UNL     1       1.436  12.206  20.650  0.00  0.00    +0.000 C 
ENDBRANCH   8   9
ENDBRANCH   4   7
BRANCH   5  20
ATOM     20  O   UNL     1       1.996   5.935  20.226  0.00  0.00    +0.000 OA
ATOM     21  C   UNL     1       2.077   4.728  20.919  0.00  0.00    +0.000 C 
ENDBRANCH   5  20
BRANCH   1  22
ATOM     22  N   UNL     1       5.989   5.140  17.439  0.00  0.00    +0.000 N 
BRANCH  22  24
ATOM     23  C   UNL     1       7.751   6.627  18.347  0.00  0.00    +0.000 C 
ATOM     24  C   UNL     1       7.183   5.213  18.286  0.00  0.00    +0.000 C 
ENDBRANCH  22  24
BRANCH  22  25
ATOM     25  C   UNL     1       5.917   4.179  16.314  0.00  0.00    +0.000 C 
ATOM     26  C   UNL     1       6.063   4.738  14.890  0.00  0.00    +0.000 C 
ENDBRANCH  22  25
ENDBRANCH   1  22
TORSDOF 6
ENDMDL
MODEL 7
REMARK VINA RESULT:      -6.9      2.117      3.476
REMARK  Name = 
REMARK  10 active torsions:
REMARK  status: ('A' for Active; 'I' for Inactive)
REMARK    1  A    between atoms: C_1  and  C_2
REMARK    2  A    between atoms: C_2  and  N_3
REMARK    3  A    between atoms: N_3  and  C_4
REMARK    4  A    between atoms: N_3  and  C_6
REMARK    5  A    between atoms: C_4  and  C_5
REMARK    6  A    between atoms: C_9  and  C_10
REMARK    7  A    between atoms: C_11  and  C_12
REMARK    8  A    between atoms: N_21  and  C_22
REMARK    9  A    between atoms: C_23  and  O_24
REMARK   10  A    between atoms: O_24  and  C_25
REMARK                            x       y       z     vdW  Elec       q    Type
REMARK                         _______ _______ _______ _____ _____    ______ ____
ROOT
ATOM      1  C   UNL     1       3.208   4.833  18.882  0.00  0.00    +0.000 A 
ATOM      2  C   UNL     1       2.548   4.437  20.079  0.00  0.00    +0.000 A 
ATOM      3  C   UNL     1       1.804   5.352  20.857  0.00  0.00    +0.000 A 
ATOM      4  C   UNL     1       1.667   6.692  20.461  0.00  0.00    +0.000 A 
ATOM      5  C   UNL     1       2.324   7.114  19.296  0.00  0.00    +0.000 A 
ATOM      6  C   UNL     1       3.080   6.207  18.534  0.00  0.00    +0.000 A 
ENDROOT
BRANCH   4   7
ATOM      7  C   UNL     1       0.862   7.724  21.190  0.00  0.00    +0.000 C 
ATOM      8  C   UNL     1       1.318   8.967  21.459  0.00  0.00    +0.000 C 
BRANCH   8   9
ATOM      9  C   UNL     1       0.442  10.111  21.926  0.00  0.00    +0.000 A 
ATOM     10  C   UNL     1      -0.352  10.047  23.073  0.00  0.00    +0.000 A 
ATOM     11  C   UNL     1      -1.477  10.899  23.191  0.00  0.00    +0.000 A 
ATOM     12  C   UNL     1      -1.181  12.176  22.798  0.00  0.00    +0.000 A 
ATOM     13  C   UNL     1      -1.799  13.246  23.445  0.00  0.00    +0.000 A 
ATOM     14  C   UNL     1      -1.270  14.515  23.286  0.00  0.00    +0.000 A 
ATOM     15  C   UNL     1      -0.167  14.727  22.445  0.00  0.00    +0.000 A 
ATOM     16  C   UNL     1       0.365  13.646  21.693  0.00  0.00    +0.000 A 
ATOM     17  C   UNL     1      -0.185  12.361  21.825  0.00  0.00    +0.000 A 
ATOM     18  N   UNL     1       0.338  11.251  21.175  0.00  0.00    +0.000 N 
ATOM     19  C   UNL     1      -0.311  10.904  19.882  0.00  0.00    +0.000 C 
ENDBRANCH   8   9
ENDBRANCH   4   7
BRANCH   5  20
ATOM     20  O   UNL     1       2.193   8.438  18.927  0.00  0.00    +0.000 OA
ATOM     21  C   UNL     1       1.968   8.895  17.630  0.00  0.00    +0.000 C 
ENDBRANCH   5  20
BRANCH   1  22
ATOM     22  N   UNL     1       3.948   3.916  18.024  0.00  0.00    +0.000 N 
BRANCH  22  24
ATOM     23  C   UNL     1       5.477   4.289  16.110  0.00  0.00    +0.000 C 
ATOM     24  C   UNL     1       5.328   4.209  17.626  0.00  0.00    +0.000 C 
ENDBRANCH  22  24
BRANCH  22  25
ATOM     25  C   UNL     1       3.313   2.629  17.659  0.00  0.00    +0.000 C 
ATOM     26  C   UNL     1       3.662   1.396  18.508  0.00  0.00    +0.000 C 
ENDBRANCH  22  25
ENDBRANCH   1  22
TORSDOF 6
ENDMDL
MODEL 8
REMARK VINA RESULT:      -6.8      2.095      3.488
REMARK  Name = 
REMARK  10 active torsions:
REMARK  status: ('A' for Active; 'I' for Inactive)
REMARK    1  A    between atoms: C_1  and  C_2
REMARK    2  A    between atoms: C_2  and  N_3
REMARK    3  A    between atoms: N_3  and  C_4
REMARK    4  A    between atoms: N_3  and  C_6
REMARK    5  A    between atoms: C_4  and  C_5
REMARK    6  A    between atoms: C_9  and  C_10
REMARK    7  A    between atoms: C_11  and  C_12
REMARK    8  A    between atoms: N_21  and  C_22
REMARK    9  A    between atoms: C_23  and  O_24
REMARK   10  A    between atoms: O_24  and  C_25
REMARK                            x       y       z     vdW  Elec       q    Type
REMARK                         _______ _______ _______ _____ _____    ______ ____
ROOT
ATOM      1  C   UNL     1       3.414   4.757  18.968  0.00  0.00    +0.000 A 
ATOM      2  C   UNL     1       2.970   4.516  20.299  0.00  0.00    +0.000 A 
ATOM      3  C   UNL     1       2.169   5.448  20.996  0.00  0.00    +0.000 A 
ATOM      4  C   UNL     1       1.758   6.646  20.388  0.00  0.00    +0.000 A 
ATOM      5  C   UNL     1       2.199   6.917  19.085  0.00  0.00    +0.000 A 
ATOM      6  C   UNL     1       3.012   5.998  18.400  0.00  0.00    +0.000 A 
ENDROOT
BRANCH   4   7
ATOM      7  C   UNL     1       0.872   7.672  21.025  0.00  0.00    +0.000 C 
ATOM      8  C   UNL     1       1.340   8.793  21.615  0.00  0.00    +0.000 C 
BRANCH   8   9
ATOM      9  C   UNL     1       0.474   9.974  22.004  0.00  0.00    +0.000 A 
ATOM     10  C   UNL     1      -0.341   9.983  23.138  0.00  0.00    +0.000 A 
ATOM     11  C   UNL     1      -1.455  10.856  23.189  0.00  0.00    +0.000 A 
ATOM     12  C   UNL     1      -1.132  12.106  22.733  0.00  0.00    +0.000 A 
ATOM     13  C   UNL     1      -1.744  13.218  23.311  0.00  0.00    +0.000 A 
ATOM     14  C   UNL     1      -1.193  14.469  23.094  0.00  0.00    +0.000 A 
ATOM     15  C   UNL     1      -0.072  14.620  22.264  0.00  0.00    +0.000 A 
ATOM     16  C   UNL     1       0.456  13.492  21.580  0.00  0.00    +0.000 A 
ATOM     17  C   UNL     1      -0.116  12.224  21.771  0.00  0.00    +0.000 A 
ATOM     18  N   UNL     1       0.401  11.072  21.191  0.00  0.00    +0.000 N 
ATOM     19  C   UNL     1      -0.231  10.666  19.906  0.00  0.00    +0.000 C 
ENDBRANCH   8   9
ENDBRANCH   4   7
BRANCH   5  20
ATOM     20  O   UNL     1       1.800   8.105  18.506  0.00  0.00    +0.000 OA
ATOM     21  C   UNL     1       2.637   8.998  17.839  0.00  0.00    +0.000 C 
ENDBRANCH   5  20
BRANCH   1  22
ATOM     22  N   UNL     1       4.203   3.807  18.194  0.00  0.00    +0.000 N 
BRANCH  22  24
ATOM     23  C   UNL     1       2.394   2.203  17.648  0.00  0.00    +0.000 C 
ATOM     24  C   UNL     1       3.827   2.391  18.136  0.00  0.00    +0.000 C 
ENDBRANCH  22  24
BRANCH  22  25
ATOM     25  C   UNL     1       5.326   4.325  17.379  0.00  0.00    +0.000 C 
ATOM     26  C   UNL     1       5.205   4.215  15.851  0.00  0.00    +0.000 C 
ENDBRANCH  22  25
ENDBRANCH   1  22
TORSDOF 6
ENDMDL
MODEL 9
REMARK VINA RESULT:      -6.7      2.120      9.364
REMARK  Name = 
REMARK  10 active torsions:
REMARK  status: ('A' for Active; 'I' for Inactive)
REMARK    1  A    between atoms: C_1  and  C_2
REMARK    2  A    between atoms: C_2  and  N_3
REMARK    3  A    between atoms: N_3  and  C_4
REMARK    4  A    between atoms: N_3  and  C_6
REMARK    5  A    between atoms: C_4  and  C_5
REMARK    6  A    between atoms: C_9  and  C_10
REMARK    7  A    between atoms: C_11  and  C_12
REMARK    8  A    between atoms: N_21  and  C_22
REMARK    9  A    between atoms: C_23  and  O_24
REMARK   10  A    between atoms: O_24  and  C_25
REMARK                            x       y       z     vdW  Elec       q    Type
REMARK                         _______ _______ _______ _____ _____    ______ ____
ROOT
ATOM      1  C   UNL     1      -0.336  10.797  21.270  0.00  0.00    +0.000 A 
ATOM      2  C   UNL     1      -0.158   9.441  21.666  0.00  0.00    +0.000 A 
ATOM      3  C   UNL     1       0.656   8.551  20.929  0.00  0.00    +0.000 A 
ATOM      4  C   UNL     1       1.342   8.982  19.782  0.00  0.00    +0.000 A 
ATOM      5  C   UNL     1       1.168  10.307  19.358  0.00  0.00    +0.000 A 
ATOM      6  C   UNL     1       0.343  11.186  20.082  0.00  0.00    +0.000 A 
ENDROOT
BRANCH   4   7
ATOM      7  C   UNL     1       2.264   8.131  18.963  0.00  0.00    +0.000 C 
ATOM      8  C   UNL     1       2.591   6.863  19.293  0.00  0.00    +0.000 C 
BRANCH   8   9
ATOM      9  C   UNL     1       3.275   5.890  18.354  0.00  0.00    +0.000 A 
ATOM     10  C   UNL     1       2.602   4.848  17.710  0.00  0.00    +0.000 A 
ATOM     11  C   UNL     1       3.329   3.719  17.265  0.00  0.00    +0.000 A 
ATOM     12  C   UNL     1       4.494   4.086  16.647  0.00  0.00    +0.000 A 
ATOM     13  C   UNL     1       4.967   3.322  15.580  0.00  0.00    +0.000 A 
ATOM     14  C   UNL     1       5.940   3.859  14.755  0.00  0.00    +0.000 A 
ATOM     15  C   UNL     1       6.479   5.127  15.022  0.00  0.00    +0.000 A 
ATOM     16  C   UNL     1       6.080   5.833  16.189  0.00  0.00    +0.000 A 
ATOM     17  C   UNL     1       5.115   5.280  17.047  0.00  0.00    +0.000 A 
ATOM     18  N   UNL     1       4.628   5.953  18.161  0.00  0.00    +0.000 N 
ATOM     19  C   UNL     1       5.303   5.630  19.447  0.00  0.00    +0.000 C 
ENDBRANCH   8   9
ENDBRANCH   4   7
BRANCH   5  20
ATOM     20  O   UNL     1       1.836  10.713  18.221  0.00  0.00    +0.000 OA
ATOM     21  C   UNL     1       2.437  11.958  18.039  0.00  0.00    +0.000 C 
ENDBRANCH   5  20
BRANCH   1  22
ATOM     22  N   UNL     1      -1.128  11.761  22.024  0.00  0.00    +0.000 N 
BRANCH  22  24
ATOM     23  C   UNL     1      -3.098  12.141  23.477  0.00  0.00    +0.000 C 
ATOM     24  C   UNL     1      -1.796  11.375  23.269  0.00  0.00    +0.000 C 
ENDBRANCH  22  24
BRANCH  22  25
ATOM     25  C   UNL     1      -1.149  13.168  21.560  0.00  0.00    +0.000 C 
ATOM     26  C   UNL     1      -0.246  14.172  22.295  0.00  0.00    +0.000 C 
ENDBRANCH  22  25
ENDBRANCH   1  22
TORSDOF 6
ENDMDL
