MODEL 1
REMARK VINA RESULT:      -7.3      0.000      0.000
REMARK  Name = 
REMARK  8 active torsions:
REMARK  status: ('A' for Active; 'I' for Inactive)
REMARK    1  A    between atoms: C_2  and  C_3
REMARK    2  A    between atoms: C_3  and  C_4
REMARK    3  A    between atoms: C_4  and  N_5
REMARK    4  A    between atoms: C_7  and  C_8
REMARK    5  A    between atoms: N_12  and  C_13
REMARK    6  A    between atoms: C_24  and  O_26
REMARK    7  A    between atoms: O_26  and  C_27
REMARK    8  A    between atoms: C_27  and  C_28
REMARK                            x       y       z     vdW  Elec       q    Type
REMARK                         _______ _______ _______ _____ _____    ______ ____
ROOT
ATOM      1  N   UNL     1      -0.886  10.879  18.943  0.00  0.00    +0.000 N 
ATOM      2  C   UNL     1      -1.544  10.635  17.774  0.00  0.00    +0.000 A 
ATOM      3  C   UNL     1      -2.740  11.328  17.847  0.00  0.00    +0.000 A 
ATOM      4  C   UNL     1      -2.681  12.012  19.095  0.00  0.00    +0.000 A 
ATOM      5  N   UNL     1      -3.695  12.781  19.571  0.00  0.00    +0.000 N 
ATOM      6  N   UNL     1      -1.525  11.761  19.720  0.00  0.00    +0.000 NA
ATOM      7  H   UNL     1      -4.519  12.868  18.974  0.00  0.00    +0.000 HD
ENDROOT
BRANCH   1   8
ATOM      8  C   UNL     1       0.370  10.267  19.453  0.00  0.00    +0.000 C 
ATOM      9  C   UNL     1      -0.020   9.278  20.587  0.00  0.00    +0.000 C 
ATOM     10  C   UNL     1       1.145   8.411  21.047  0.00  0.00    +0.000 C 
ATOM     11  N   UNL     1       1.784   7.766  19.910  0.00  0.00    +0.000 N 
ATOM     12  C   UNL     1       2.056   6.413  19.951  0.00  0.00    +0.000 C 
ATOM     13  O   UNL     1       1.763   5.673  20.880  0.00  0.00    +0.000 OA
ATOM     14  C   UNL     1       2.244   8.637  18.840  0.00  0.00    +0.000 C 
ATOM     15  C   UNL     1       1.077   9.459  18.326  0.00  0.00    +0.000 C 
BRANCH   8  16
ATOM     16  C   UNL     1       1.303  11.391  20.016  0.00  0.00    +0.000 C 
BRANCH  16  18
ATOM     17  N   UNL     1       2.182  12.920  17.866  0.00  0.00    +0.000 NA
ATOM     18  C   UNL     1       1.783  12.227  18.841  0.00  0.00    +0.000 C 
ENDBRANCH  16  18
ENDBRANCH   8  16
BRANCH  12  19
ATOM     19  O   UNL     1       2.720   5.990  18.846  0.00  0.00    +0.000 OA
BRANCH  19  20
ATOM     20  C   UNL     1       2.881   4.568  18.724  0.00  0.00    +0.000 C 
BRANCH  20  21
ATOM     21  C   UNL     1       1.762   3.865  17.975  0.00  0.00    +0.000 C 
ATOM     22  F   UNL     1       0.878   3.340  18.865  0.00  0.00    +0.000 F 
ATOM     23  F   UNL     1       1.070   4.790  17.257  0.00  0.00    +0.000 F 
ENDBRANCH  20  21
ENDBRANCH  19  20
ENDBRANCH  12  19
ENDBRANCH   1   8
BRANCH   5  24
ATOM     24  C   UNL     1      -3.899  13.287  20.875  0.00  0.00    +0.000 A 
ATOM     25  C   UNL     1      -3.180  14.356  21.434  0.00  0.00    +0.000 A 
ATOM     26  N   UNL     1      -3.299  14.805  22.707  0.00  0.00    +0.000 NA
ATOM     27  C   UNL     1      -4.190  14.155  23.484  0.00  0.00    +0.000 A 
ATOM     28  C   UNL     1      -4.968  13.109  23.030  0.00  0.00    +0.000 A 
ATOM     29  F   UNL     1      -5.834  12.501  23.851  0.00  0.00    +0.000 F 
ATOM     30  C   UNL     1      -4.832  12.673  21.715  0.00  0.00    +0.000 A 
ENDBRANCH   5  24
BRANCH   3  31
ATOM     31  C   UNL     1      -3.833  11.298  16.893  0.00  0.00    +0.000 C 
ATOM     32  N   UNL     1      -3.479  11.371  15.574  0.00  0.00    +0.000 N 
ATOM     33  O   UNL     1      -5.010  11.215  17.228  0.00  0.00    +0.000 OA
ATOM     34  H   UNL     1      -2.549  11.624  15.276  0.00  0.00    +0.000 HD
ATOM     35  H   UNL     1      -4.225  11.408  14.892  0.00  0.00    +0.000 HD
ENDBRANCH   3  31
TORSDOF 8
ENDMDL
MODEL 2
REMARK VINA RESULT:      -7.2      0.949      1.156
REMARK  Name = 
REMARK  8 active torsions:
REMARK  status: ('A' for Active; 'I' for Inactive)
REMARK    1  A    between atoms: C_2  and  C_3
REMARK    2  A    between atoms: C_3  and  C_4
REMARK    3  A    between atoms: C_4  and  N_5
REMARK    4  A    between atoms: C_7  and  C_8
REMARK    5  A    between atoms: N_12  and  C_13
REMARK    6  A    between atoms: C_24  and  O_26
REMARK    7  A    between atoms: O_26  and  C_27
REMARK    8  A    between atoms: C_27  and  C_28
REMARK                            x       y       z     vdW  Elec       q    Type
REMARK                         _______ _______ _______ _____ _____    ______ ____
ROOT
ATOM      1  N   UNL     1      -0.925  10.858  18.910  0.00  0.00    +0.000 N 
ATOM      2  C   UNL     1      -1.510  10.660  17.695  0.00  0.00    +0.000 A 
ATOM      3  C   UNL     1      -2.730  11.312  17.737  0.00  0.00    +0.000 A 
ATOM      4  C   UNL     1      -2.762  11.928  19.021  0.00  0.00    +0.000 A 
ATOM      5  N   UNL     1      -3.825  12.639  19.479  0.00  0.00    +0.000 N 
ATOM      6  N   UNL     1      -1.634  11.676  19.696  0.00  0.00    +0.000 NA
ATOM      7  H   UNL     1      -4.617  12.735  18.842  0.00  0.00    +0.000 HD
ENDROOT
BRANCH   1   8
ATOM      8  C   UNL     1       0.319  10.255  19.458  0.00  0.00    +0.000 C 
ATOM      9  C   UNL     1      -0.097   9.262  20.579  0.00  0.00    +0.000 C 
ATOM     10  C   UNL     1       1.061   8.404  21.073  0.00  0.00    +0.000 C 
ATOM     11  N   UNL     1       1.739   7.765  19.954  0.00  0.00    +0.000 N 
ATOM     12  C   UNL     1       2.021   6.415  20.002  0.00  0.00    +0.000 C 
ATOM     13  O   UNL     1       1.706   5.671  20.922  0.00  0.00    +0.000 OA
ATOM     14  C   UNL     1       2.224   8.641  18.900  0.00  0.00    +0.000 C 
ATOM     15  C   UNL     1       1.067   9.455  18.351  0.00  0.00    +0.000 C 
BRANCH   8  16
ATOM     16  C   UNL     1       1.226  11.386  20.049  0.00  0.00    +0.000 C 
BRANCH  16  18
ATOM     17  N   UNL     1       2.148  12.931  17.929  0.00  0.00    +0.000 NA
ATOM     18  C   UNL     1       1.730  12.231  18.890  0.00  0.00    +0.000 C 
ENDBRANCH  16  18
ENDBRANCH   8  16
BRANCH  12  19
ATOM     19  O   UNL     1       2.721   5.999  18.918  0.00  0.00    +0.000 OA
BRANCH  19  20
ATOM     20  C   UNL     1       2.892   4.578  18.796  0.00  0.00    +0.000 C 
BRANCH  20  21
ATOM     21  C   UNL     1       1.915   3.899  17.852  0.00  0.00    +0.000 C 
ATOM     22  F   UNL     1       1.091   3.081  18.560  0.00  0.00    +0.000 F 
ATOM     23  F   UNL     1       1.117   4.849  17.295  0.00  0.00    +0.000 F 
ENDBRANCH  20  21
ENDBRANCH  19  20
ENDBRANCH  12  19
ENDBRANCH   1   8
BRANCH   5  24
ATOM     24  C   UNL     1      -4.116  13.066  20.795  0.00  0.00    +0.000 A 
ATOM     25  C   UNL     1      -5.035  12.436  21.650  0.00  0.00    +0.000 A 
ATOM     26  N   UNL     1      -5.392  12.873  22.882  0.00  0.00    +0.000 NA
ATOM     27  C   UNL     1      -4.801  14.011  23.302  0.00  0.00    +0.000 A 
ATOM     28  C   UNL     1      -3.864  14.697  22.554  0.00  0.00    +0.000 A 
ATOM     29  F   UNL     1      -3.313  15.823  23.025  0.00  0.00    +0.000 F 
ATOM     30  C   UNL     1      -3.509  14.221  21.295  0.00  0.00    +0.000 A 
ENDBRANCH   5  24
BRANCH   3  31
ATOM     31  C   UNL     1      -3.767  11.303  16.722  0.00  0.00    +0.000 C 
ATOM     32  N   UNL     1      -3.336  11.330  15.424  0.00  0.00    +0.000 N 
ATOM     33  O   UNL     1      -4.963  11.277  16.990  0.00  0.00    +0.000 OA
ATOM     34  H   UNL     1      -2.380  11.537  15.175  0.00  0.00    +0.000 HD
ATOM     35  H   UNL     1      -4.039  11.380  14.700  0.00  0.00    +0.000 HD
ENDBRANCH   3  31
TORSDOF 8
ENDMDL
MODEL 3
REMARK VINA RESULT:      -7.1      5.068     11.180
REMARK  Name = 
REMARK  8 active torsions:
REMARK  status: ('A' for Active; 'I' for Inactive)
REMARK    1  A    between atoms: C_2  and  C_3
REMARK    2  A    between atoms: C_3  and  C_4
REMARK    3  A    between atoms: C_4  and  N_5
REMARK    4  A    between atoms: C_7  and  C_8
REMARK    5  A    between atoms: N_12  and  C_13
REMARK    6  A    between atoms: C_24  and  O_26
REMARK    7  A    between atoms: O_26  and  C_27
REMARK    8  A    between atoms: C_27  and  C_28
REMARK                            x       y       z     vdW  Elec       q    Type
REMARK                         _______ _______ _______ _____ _____    ______ ____
ROOT
ATOM      1  N   UNL     1       4.808   6.019  18.032  0.00  0.00    +0.000 N 
ATOM      2  C   UNL     1       5.773   5.785  18.966  0.00  0.00    +0.000 A 
ATOM      3  C   UNL     1       6.877   5.311  18.278  0.00  0.00    +0.000 A 
ATOM      4  C   UNL     1       6.487   5.350  16.908  0.00  0.00    +0.000 A 
ATOM      5  N   UNL     1       7.284   4.919  15.895  0.00  0.00    +0.000 N 
ATOM      6  N   UNL     1       5.244   5.827  16.782  0.00  0.00    +0.000 NA
ATOM      7  H   UNL     1       8.208   4.574  16.159  0.00  0.00    +0.000 HD
ENDROOT
BRANCH   1   8
ATOM      8  C   UNL     1       3.382   6.389  18.235  0.00  0.00    +0.000 C 
ATOM      9  C   UNL     1       3.151   6.540  19.764  0.00  0.00    +0.000 C 
ATOM     10  C   UNL     1       1.792   7.139  20.104  0.00  0.00    +0.000 C 
ATOM     11  N   UNL     1       1.574   8.371  19.360  0.00  0.00    +0.000 N 
ATOM     12  C   UNL     1       1.125   9.499  20.016  0.00  0.00    +0.000 C 
ATOM     13  O   UNL     1       0.921   9.568  21.220  0.00  0.00    +0.000 OA
ATOM     14  C   UNL     1       1.700   8.289  17.913  0.00  0.00    +0.000 C 
ATOM     15  C   UNL     1       3.076   7.757  17.558  0.00  0.00    +0.000 C 
BRANCH   8  16
ATOM     16  C   UNL     1       2.466   5.256  17.661  0.00  0.00    +0.000 C 
BRANCH  16  18
ATOM     17  N   UNL     1       2.918   2.957  19.160  0.00  0.00    +0.000 NA
ATOM     18  C   UNL     1       2.713   3.999  18.481  0.00  0.00    +0.000 C 
ENDBRANCH  16  18
ENDBRANCH   8  16
BRANCH  12  19
ATOM     19  O   UNL     1       0.902  10.532  19.165  0.00  0.00    +0.000 OA
BRANCH  19  20
ATOM     20  C   UNL     1      -0.404  11.124  19.235  0.00  0.00    +0.000 C 
BRANCH  20  21
ATOM     21  C   UNL     1      -1.497  10.335  18.535  0.00  0.00    +0.000 C 
ATOM     22  F   UNL     1      -2.549  11.154  18.266  0.00  0.00    +0.000 F 
ATOM     23  F   UNL     1      -1.028   9.915  17.329  0.00  0.00    +0.000 F 
ENDBRANCH  20  21
ENDBRANCH  19  20
ENDBRANCH  12  19
ENDBRANCH   1   8
BRANCH   5  24
ATOM     24  C   UNL     1       6.950   4.641  14.551  0.00  0.00    +0.000 A 
ATOM     25  C   UNL     1       6.060   3.634  14.145  0.00  0.00    +0.000 A 
ATOM     26  N   UNL     1       5.786   3.294  12.861  0.00  0.00    +0.000 NA
ATOM     27  C   UNL     1       6.437   3.996  11.911  0.00  0.00    +0.000 A 
ATOM     28  C   UNL     1       7.315   5.023  12.197  0.00  0.00    +0.000 A 
ATOM     29  F   UNL     1       7.933   5.683  11.208  0.00  0.00    +0.000 F 
ATOM     30  C   UNL     1       7.570   5.358  13.523  0.00  0.00    +0.000 A 
ENDBRANCH   5  24
BRANCH   3  31
ATOM     31  C   UNL     1       8.120   4.820  18.842  0.00  0.00    +0.000 C 
ATOM     32  N   UNL     1       8.428   5.270  20.096  0.00  0.00    +0.000 N 
ATOM     33  O   UNL     1       8.866   4.051  18.245  0.00  0.00    +0.000 OA
ATOM     34  H   UNL     1       7.938   6.036  20.533  0.00  0.00    +0.000 HD
ATOM     35  H   UNL     1       9.316   4.986  20.489  0.00  0.00    +0.000 HD
ENDBRANCH   3  31
TORSDOF 8
ENDMDL
MODEL 4
REMARK VINA RESULT:      -7.0      1.407      1.582
REMARK  Name = 
REMARK  8 active torsions:
REMARK  status: ('A' for Active; 'I' for Inactive)
REMARK    1  A    between atoms: C_2  and  C_3
REMARK    2  A    between atoms: C_3  and  C_4
REMARK    3  A    between atoms: C_4  and  N_5
REMARK    4  A    between atoms: C_7  and  C_8
REMARK    5  A    between atoms: N_12  and  C_13
REMARK    6  A    between atoms: C_24  and  O_26
REMARK    7  A    between atoms: O_26  and  C_27
REMARK    8  A    between atoms: C_27  and  C_28
REMARK                            x       y       z     vdW  Elec       q    Type
REMARK                         _______ _______ _______ _____ _____    ______ ____
ROOT
ATOM      1  N   UNL     1      -0.910  11.046  19.116  0.00  0.00    +0.000 N 
ATOM      2  C   UNL     1      -1.701  10.809  18.032  0.00  0.00    +0.000 A 
ATOM      3  C   UNL     1      -2.884  11.494  18.253  0.00  0.00    +0.000 A 
ATOM      4  C   UNL     1      -2.679  12.168  19.492  0.00  0.00    +0.000 A 
ATOM      5  N   UNL     1      -3.634  12.926  20.093  0.00  0.00    +0.000 N 
ATOM      6  N   UNL     1      -1.456  11.917  19.972  0.00  0.00    +0.000 NA
ATOM      7  H   UNL     1      -4.522  13.013  19.599  0.00  0.00    +0.000 HD
ENDROOT
BRANCH   1   8
ATOM      8  C   UNL     1       0.400  10.436  19.468  0.00  0.00    +0.000 C 
ATOM      9  C   UNL     1       0.136   9.355  20.553  0.00  0.00    +0.000 C 
ATOM     10  C   UNL     1       1.357   8.492  20.843  0.00  0.00    +0.000 C 
ATOM     11  N   UNL     1       1.908   7.952  19.608  0.00  0.00    +0.000 N 
ATOM     12  C   UNL     1       2.215   6.609  19.523  0.00  0.00    +0.000 C 
ATOM     13  O   UNL     1       2.023   5.794  20.414  0.00  0.00    +0.000 OA
ATOM     14  C   UNL     1       2.251   8.913  18.572  0.00  0.00    +0.000 C 
ATOM     15  C   UNL     1       1.024   9.736  18.225  0.00  0.00    +0.000 C 
BRANCH   8  16
ATOM     16  C   UNL     1       1.352  11.543  20.032  0.00  0.00    +0.000 C 
BRANCH  16  18
ATOM     17  N   UNL     1       2.114  13.170  17.908  0.00  0.00    +0.000 NA
ATOM     18  C   UNL     1       1.769  12.432  18.871  0.00  0.00    +0.000 C 
ENDBRANCH  16  18
ENDBRANCH   8  16
BRANCH  12  19
ATOM     19  O   UNL     1       2.788   6.289  18.335  0.00  0.00    +0.000 OA
BRANCH  19  20
ATOM     20  C   UNL     1       3.500   5.042  18.305  0.00  0.00    +0.000 C 
BRANCH  20  21
ATOM     21  C   UNL     1       5.012   5.173  18.372  0.00  0.00    +0.000 C 
ATOM     22  F   UNL     1       5.410   6.237  17.623  0.00  0.00    +0.000 F 
ATOM     23  F   UNL     1       5.368   5.459  19.653  0.00  0.00    +0.000 F 
ENDBRANCH  20  21
ENDBRANCH  19  20
ENDBRANCH  12  19
ENDBRANCH   1   8
BRANCH   5  24
ATOM     24  C   UNL     1      -3.683  13.418  21.416  0.00  0.00    +0.000 A 
ATOM     25  C   UNL     1      -3.363  14.734  21.788  0.00  0.00    +0.000 A 
ATOM     26  N   UNL     1      -3.324  15.207  23.058  0.00  0.00    +0.000 NA
ATOM     27  C   UNL     1      -3.620  14.321  24.030  0.00  0.00    +0.000 A 
ATOM     28  C   UNL     1      -3.974  13.010  23.776  0.00  0.00    +0.000 A 
ATOM     29  F   UNL     1      -4.255  12.176  24.785  0.00  0.00    +0.000 F 
ATOM     30  C   UNL     1      -4.015  12.553  22.463  0.00  0.00    +0.000 A 
ENDBRANCH   5  24
BRANCH   3  31
ATOM     31  C   UNL     1      -4.082  11.467  17.436  0.00  0.00    +0.000 C 
ATOM     32  N   UNL     1      -3.889  11.584  16.086  0.00  0.00    +0.000 N 
ATOM     33  O   UNL     1      -5.208  11.350  17.906  0.00  0.00    +0.000 OA
ATOM     34  H   UNL     1      -3.006  11.864  15.687  0.00  0.00    +0.000 HD
ATOM     35  H   UNL     1      -4.712  11.623  15.499  0.00  0.00    +0.000 HD
ENDBRANCH   3  31
TORSDOF 8
ENDMDL
MODEL 5
REMARK VINA RESULT:      -7.0      5.184     11.242
REMARK  Name = 
REMARK  8 active torsions:
REMARK  status: ('A' for Active; 'I' for Inactive)
REMARK    1  A    between atoms: C_2  and  C_3
REMARK    2  A    between atoms: C_3  and  C_4
REMARK    3  A    between atoms: C_4  and  N_5
REMARK    4  A    between atoms: C_7  and  C_8
REMARK    5  A    between atoms: N_12  and  C_13
REMARK    6  A    between atoms: C_24  and  O_26
REMARK    7  A    between atoms: O_26  and  C_27
REMARK    8  A    between atoms: C_27  and  C_28
REMARK                            x       y       z     vdW  Elec       q    Type
REMARK                         _______ _______ _______ _____ _____    ______ ____
ROOT
ATOM      1  N   UNL     1       4.738   6.070  18.037  0.00  0.00    +0.000 N 
ATOM      2  C   UNL     1       5.717   5.857  18.960  0.00  0.00    +0.000 A 
ATOM      3  C   UNL     1       6.808   5.359  18.266  0.00  0.00    +0.000 A 
ATOM      4  C   UNL     1       6.395   5.365  16.902  0.00  0.00    +0.000 A 
ATOM      5  N   UNL     1       7.173   4.904  15.888  0.00  0.00    +0.000 N 
ATOM      6  N   UNL     1       5.152   5.845  16.785  0.00  0.00    +0.000 NA
ATOM      7  H   UNL     1       8.100   4.561  16.146  0.00  0.00    +0.000 HD
ENDROOT
BRANCH   1   8
ATOM      8  C   UNL     1       3.317   6.452  18.253  0.00  0.00    +0.000 C 
ATOM      9  C   UNL     1       3.112   6.642  19.782  0.00  0.00    +0.000 C 
ATOM     10  C   UNL     1       1.761   7.255  20.129  0.00  0.00    +0.000 C 
ATOM     11  N   UNL     1       1.537   8.470  19.359  0.00  0.00    +0.000 N 
ATOM     12  C   UNL     1       1.104   9.616  19.994  0.00  0.00    +0.000 C 
ATOM     13  O   UNL     1       0.920   9.716  21.200  0.00  0.00    +0.000 OA
ATOM     14  C   UNL     1       1.639   8.354  17.913  0.00  0.00    +0.000 C 
ATOM     15  C   UNL     1       3.006   7.806  17.549  0.00  0.00    +0.000 C 
BRANCH   8  16
ATOM     16  C   UNL     1       2.387   5.311  17.722  0.00  0.00    +0.000 C 
BRANCH  16  18
ATOM     17  N   UNL     1       2.858   3.044  19.263  0.00  0.00    +0.000 NA
ATOM     18  C   UNL     1       2.644   4.072  18.565  0.00  0.00    +0.000 C 
ENDBRANCH  16  18
ENDBRANCH   8  16
BRANCH  12  19
ATOM     19  O   UNL     1       0.872  10.629  19.123  0.00  0.00    +0.000 OA
BRANCH  19  20
ATOM     20  C   UNL     1       1.304  11.930  19.553  0.00  0.00    +0.000 C 
BRANCH  20  21
ATOM     21  C   UNL     1       2.302  12.605  18.629  0.00  0.00    +0.000 C 
ATOM     22  F   UNL     1       2.743  11.711  17.704  0.00  0.00    +0.000 F 
ATOM     23  F   UNL     1       1.661  13.583  17.934  0.00  0.00    +0.000 F 
ENDBRANCH  20  21
ENDBRANCH  19  20
ENDBRANCH  12  19
ENDBRANCH   1   8
BRANCH   5  24
ATOM     24  C   UNL     1       6.816   4.592  14.557  0.00  0.00    +0.000 A 
ATOM     25  C   UNL     1       5.861   3.628  14.195  0.00  0.00    +0.000 A 
ATOM     26  N   UNL     1       5.560   3.254  12.927  0.00  0.00    +0.000 NA
ATOM     27  C   UNL     1       6.250   3.874  11.947  0.00  0.00    +0.000 A 
ATOM     28  C   UNL     1       7.192   4.855  12.189  0.00  0.00    +0.000 A 
ATOM     29  F   UNL     1       7.845   5.433  11.173  0.00  0.00    +0.000 F 
ATOM     30  C   UNL     1       7.474   5.227  13.500  0.00  0.00    +0.000 A 
ENDBRANCH   5  24
BRANCH   3  31
ATOM     31  C   UNL     1       8.058   4.877  18.822  0.00  0.00    +0.000 C 
ATOM     32  N   UNL     1       8.376   5.337  20.071  0.00  0.00    +0.000 N 
ATOM     33  O   UNL     1       8.801   4.106  18.224  0.00  0.00    +0.000 OA
ATOM     34  H   UNL     1       7.887   6.105  20.506  0.00  0.00    +0.000 HD
ATOM     35  H   UNL     1       9.268   5.059  20.457  0.00  0.00    +0.000 HD
ENDBRANCH   3  31
TORSDOF 8
ENDMDL
MODEL 6
REMARK VINA RESULT:      -6.9      4.933     11.061
REMARK  Name = 
REMARK  8 active torsions:
REMARK  status: ('A' for Active; 'I' for Inactive)
REMARK    1  A    between atoms: C_2  and  C_3
REMARK    2  A    between atoms: C_3  and  C_4
REMARK    3  A    between atoms: C_4  and  N_5
REMARK    4  A    between atoms: C_7  and  C_8
REMARK    5  A    between atoms: N_12  and  C_13
REMARK    6  A    between atoms: C_24  and  O_26
REMARK    7  A    between atoms: O_26  and  C_27
REMARK    8  A    between atoms: C_27  and  C_28
REMARK                            x       y       z     vdW  Elec       q    Type
REMARK                         _______ _______ _______ _____ _____    ______ ____
ROOT
ATOM      1  N   UNL     1       4.897   6.010  17.955  0.00  0.00    +0.000 N 
ATOM      2  C   UNL     1       5.849   5.769  18.900  0.00  0.00    +0.000 A 
ATOM      3  C   UNL     1       6.959   5.293  18.224  0.00  0.00    +0.000 A 
ATOM      4  C   UNL     1       6.587   5.339  16.849  0.00  0.00    +0.000 A 
ATOM      5  N   UNL     1       7.395   4.908  15.845  0.00  0.00    +0.000 N 
ATOM      6  N   UNL     1       5.347   5.822  16.709  0.00  0.00    +0.000 NA
ATOM      7  H   UNL     1       8.314   4.559  16.119  0.00  0.00    +0.000 HD
ENDROOT
BRANCH   1   8
ATOM      8  C   UNL     1       3.470   6.385  18.141  0.00  0.00    +0.000 C 
ATOM      9  C   UNL     1       3.219   6.529  19.668  0.00  0.00    +0.000 C 
ATOM     10  C   UNL     1       1.858   7.132  19.993  0.00  0.00    +0.000 C 
ATOM     11  N   UNL     1       1.656   8.368  19.253  0.00  0.00    +0.000 N 
ATOM     12  C   UNL     1       1.202   9.495  19.910  0.00  0.00    +0.000 C 
ATOM     13  O   UNL     1       0.983   9.559  21.112  0.00  0.00    +0.000 OA
ATOM     14  C   UNL     1       1.800   8.295  17.808  0.00  0.00    +0.000 C 
ATOM     15  C   UNL     1       3.178   7.759  17.468  0.00  0.00    +0.000 C 
BRANCH   8  16
ATOM     16  C   UNL     1       2.557   5.260  17.549  0.00  0.00    +0.000 C 
BRANCH  16  18
ATOM     17  N   UNL     1       2.968   2.955  19.050  0.00  0.00    +0.000 NA
ATOM     18  C   UNL     1       2.782   3.999  18.370  0.00  0.00    +0.000 C 
ENDBRANCH  16  18
ENDBRANCH   8  16
BRANCH  12  19
ATOM     19  O   UNL     1       0.995  10.533  19.062  0.00  0.00    +0.000 OA
BRANCH  19  20
ATOM     20  C   UNL     1      -0.311  11.129  19.115  0.00  0.00    +0.000 C 
BRANCH  20  21
ATOM     21  C   UNL     1      -1.427  10.260  18.561  0.00  0.00    +0.000 C 
ATOM     22  F   UNL     1      -2.560  11.002  18.433  0.00  0.00    +0.000 F 
ATOM     23  F   UNL     1      -1.089   9.867  17.304  0.00  0.00    +0.000 F 
ENDBRANCH  20  21
ENDBRANCH  19  20
ENDBRANCH  12  19
ENDBRANCH   1   8
BRANCH   5  24
ATOM     24  C   UNL     1       7.077   4.636  14.495  0.00  0.00    +0.000 A 
ATOM     25  C   UNL     1       7.818   5.097  13.395  0.00  0.00    +0.000 A 
ATOM     26  N   UNL     1       7.488   4.919  12.092  0.00  0.00    +0.000 NA
ATOM     27  C   UNL     1       6.347   4.239  11.857  0.00  0.00    +0.000 A 
ATOM     28  C   UNL     1       5.555   3.719  12.863  0.00  0.00    +0.000 A 
ATOM     29  F   UNL     1       4.431   3.055  12.566  0.00  0.00    +0.000 F 
ATOM     30  C   UNL     1       5.922   3.908  14.192  0.00  0.00    +0.000 A 
ENDBRANCH   5  24
BRANCH   3  31
ATOM     31  C   UNL     1       8.194   4.795  18.801  0.00  0.00    +0.000 C 
ATOM     32  N   UNL     1       8.502   5.261  20.050  0.00  0.00    +0.000 N 
ATOM     33  O   UNL     1       8.932   4.007  18.220  0.00  0.00    +0.000 OA
ATOM     34  H   UNL     1       8.020   6.041  20.472  0.00  0.00    +0.000 HD
ATOM     35  H   UNL     1       9.384   4.972  20.451  0.00  0.00    +0.000 HD
ENDBRANCH   3  31
TORSDOF 8
ENDMDL
MODEL 7
REMARK VINA RESULT:      -6.8      1.294      1.383
REMARK  Name = 
REMARK  8 active torsions:
REMARK  status: ('A' for Active; 'I' for Inactive)
REMARK    1  A    between atoms: C_2  and  C_3
REMARK    2  A    between atoms: C_3  and  C_4
REMARK    3  A    between atoms: C_4  and  N_5
REMARK    4  A    between atoms: C_7  and  C_8
REMARK    5  A    between atoms: N_12  and  C_13
REMARK    6  A    between atoms: C_24  and  O_26
REMARK    7  A    between atoms: O_26  and  C_27
REMARK    8  A    between atoms: C_27  and  C_28
REMARK                            x       y       z     vdW  Elec       q    Type
REMARK                         _______ _______ _______ _____ _____    ______ ____
ROOT
ATOM      1  N   UNL     1      -0.974  10.871  18.853  0.00  0.00    +0.000 N 
ATOM      2  C   UNL     1      -1.561  10.606  17.651  0.00  0.00    +0.000 A 
ATOM      3  C   UNL     1      -2.782  11.258  17.659  0.00  0.00    +0.000 A 
ATOM      4  C   UNL     1      -2.813  11.943  18.909  0.00  0.00    +0.000 A 
ATOM      5  N   UNL     1      -3.877  12.676  19.329  0.00  0.00    +0.000 N 
ATOM      6  N   UNL     1      -1.684  11.730  19.594  0.00  0.00    +0.000 NA
ATOM      7  H   UNL     1      -4.670  12.735  18.688  0.00  0.00    +0.000 HD
ENDROOT
BRANCH   1   8
ATOM      8  C   UNL     1       0.272  10.302  19.430  0.00  0.00    +0.000 C 
ATOM      9  C   UNL     1      -0.144   9.314  20.556  0.00  0.00    +0.000 C 
ATOM     10  C   UNL     1       1.023   8.487  21.082  0.00  0.00    +0.000 C 
ATOM     11  N   UNL     1       1.734   7.848  19.984  0.00  0.00    +0.000 N 
ATOM     12  C   UNL     1       2.043   6.505  20.055  0.00  0.00    +0.000 C 
ATOM     13  O   UNL     1       1.726   5.766  20.978  0.00  0.00    +0.000 OA
ATOM     14  C   UNL     1       2.220   8.721  18.927  0.00  0.00    +0.000 C 
ATOM     15  C   UNL     1       1.056   9.503  18.347  0.00  0.00    +0.000 C 
BRANCH   8  16
ATOM     16  C   UNL     1       1.144  11.458  20.023  0.00  0.00    +0.000 C 
BRANCH  16  18
ATOM     17  N   UNL     1       2.153  12.937  17.895  0.00  0.00    +0.000 NA
ATOM     18  C   UNL     1       1.696  12.267  18.859  0.00  0.00    +0.000 C 
ENDBRANCH  16  18
ENDBRANCH   8  16
BRANCH  12  19
ATOM     19  O   UNL     1       2.770   6.089  18.988  0.00  0.00    +0.000 OA
BRANCH  19  20
ATOM     20  C   UNL     1       3.622   4.957  19.220  0.00  0.00    +0.000 C 
BRANCH  20  21
ATOM     21  C   UNL     1       5.094   5.202  18.937  0.00  0.00    +0.000 C 
ATOM     22  F   UNL     1       5.594   4.174  18.200  0.00  0.00    +0.000 F 
ATOM     23  F   UNL     1       5.210   6.313  18.162  0.00  0.00    +0.000 F 
ENDBRANCH  20  21
ENDBRANCH  19  20
ENDBRANCH  12  19
ENDBRANCH   1   8
BRANCH   5  24
ATOM     24  C   UNL     1      -4.166  13.173  20.619  0.00  0.00    +0.000 A 
ATOM     25  C   UNL     1      -3.465  14.216  21.246  0.00  0.00    +0.000 A 
ATOM     26  N   UNL     1      -3.670  14.655  22.512  0.00  0.00    +0.000 NA
ATOM     27  C   UNL     1      -4.635  14.021  23.210  0.00  0.00    +0.000 A 
ATOM     28  C   UNL     1      -5.403  13.001  22.684  0.00  0.00    +0.000 A 
ATOM     29  F   UNL     1      -6.346  12.409  23.427  0.00  0.00    +0.000 F 
ATOM     30  C   UNL     1      -5.178  12.577  21.377  0.00  0.00    +0.000 A 
ENDBRANCH   5  24
BRANCH   3  31
ATOM     31  C   UNL     1      -3.821  11.192  16.649  0.00  0.00    +0.000 C 
ATOM     32  N   UNL     1      -3.411  10.848  15.390  0.00  0.00    +0.000 N 
ATOM     33  O   UNL     1      -5.000  11.428  16.887  0.00  0.00    +0.000 OA
ATOM     34  H   UNL     1      -2.438  10.829  15.123  0.00  0.00    +0.000 HD
ATOM     35  H   UNL     1      -4.106  10.849  14.656  0.00  0.00    +0.000 HD
ENDBRANCH   3  31
TORSDOF 8
ENDMDL
MODEL 8
REMARK VINA RESULT:      -6.8      5.041     11.288
REMARK  Name = 
REMARK  8 active torsions:
REMARK  status: ('A' for Active; 'I' for Inactive)
REMARK    1  A    between atoms: C_2  and  C_3
REMARK    2  A    between atoms: C_3  and  C_4
REMARK    3  A    between atoms: C_4  and  N_5
REMARK    4  A    between atoms: C_7  and  C_8
REMARK    5  A    between atoms: N_12  and  C_13
REMARK    6  A    between atoms: C_24  and  O_26
REMARK    7  A    between atoms: O_26  and  C_27
REMARK    8  A    between atoms: C_27  and  C_28
REMARK                            x       y       z     vdW  Elec       q    Type
REMARK                         _______ _______ _______ _____ _____    ______ ____
ROOT
ATOM      1  N   UNL     1       4.845   5.864  18.139  0.00  0.00    +0.000 N 
ATOM      2  C   UNL     1       5.850   5.660  19.036  0.00  0.00    +0.000 A 
ATOM      3  C   UNL     1       6.946   5.232  18.306  0.00  0.00    +0.000 A 
ATOM      4  C   UNL     1       6.507   5.265  16.951  0.00  0.00    +0.000 A 
ATOM      5  N   UNL     1       7.283   4.870  15.908  0.00  0.00    +0.000 N 
ATOM      6  N   UNL     1       5.243   5.697  16.873  0.00  0.00    +0.000 NA
ATOM      7  H   UNL     1       8.228   4.558  16.137  0.00  0.00    +0.000 HD
ENDROOT
BRANCH   1   8
ATOM      8  C   UNL     1       3.415   6.179  18.394  0.00  0.00    +0.000 C 
ATOM      9  C   UNL     1       3.169   6.033  19.922  0.00  0.00    +0.000 C 
ATOM     10  C   UNL     1       1.802   6.547  20.356  0.00  0.00    +0.000 C 
ATOM     11  N   UNL     1       1.581   7.898  19.860  0.00  0.00    +0.000 N 
ATOM     12  C   UNL     1       1.117   8.876  20.716  0.00  0.00    +0.000 C 
ATOM     13  O   UNL     1       0.902   8.712  21.909  0.00  0.00    +0.000 OA
ATOM     14  C   UNL     1       1.720   8.097  18.426  0.00  0.00    +0.000 C 
ATOM     15  C   UNL     1       3.103   7.651  17.990  0.00  0.00    +0.000 C 
BRANCH   8  16
ATOM     16  C   UNL     1       2.513   5.173  17.604  0.00  0.00    +0.000 C 
BRANCH  16  18
ATOM     17  N   UNL     1       2.951   2.635  18.655  0.00  0.00    +0.000 NA
ATOM     18  C   UNL     1       2.753   3.785  18.179  0.00  0.00    +0.000 C 
ENDBRANCH  16  18
ENDBRANCH   8  16
BRANCH  12  19
ATOM     19  O   UNL     1       0.894  10.052  20.076  0.00  0.00    +0.000 OA
BRANCH  19  20
ATOM     20  C   UNL     1      -0.480  10.462  19.991  0.00  0.00    +0.000 C 
BRANCH  20  21
ATOM     21  C   UNL     1      -0.869  11.577  20.946  0.00  0.00    +0.000 C 
ATOM     22  F   UNL     1      -1.203  11.047  22.153  0.00  0.00    +0.000 F 
ATOM     23  F   UNL     1       0.220  12.362  21.167  0.00  0.00    +0.000 F 
ENDBRANCH  20  21
ENDBRANCH  19  20
ENDBRANCH  12  19
ENDBRANCH   1   8
BRANCH   5  24
ATOM     24  C   UNL     1       6.912   4.588  14.574  0.00  0.00    +0.000 A 
ATOM     25  C   UNL     1       5.972   3.616  14.198  0.00  0.00    +0.000 A 
ATOM     26  N   UNL     1       5.660   3.271  12.925  0.00  0.00    +0.000 NA
ATOM     27  C   UNL     1       6.323   3.931  11.953  0.00  0.00    +0.000 A 
ATOM     28  C   UNL     1       7.249   4.924  12.208  0.00  0.00    +0.000 A 
ATOM     29  F   UNL     1       7.876   5.542  11.200  0.00  0.00    +0.000 F 
ATOM     30  C   UNL     1       7.543   5.265  13.525  0.00  0.00    +0.000 A 
ENDBRANCH   5  24
BRANCH   3  31
ATOM     31  C   UNL     1       8.226   4.783  18.823  0.00  0.00    +0.000 C 
ATOM     32  N   UNL     1       8.573   5.258  20.057  0.00  0.00    +0.000 N 
ATOM     33  O   UNL     1       8.967   4.027  18.204  0.00  0.00    +0.000 OA
ATOM     34  H   UNL     1       8.080   6.017  20.505  0.00  0.00    +0.000 HD
ATOM     35  H   UNL     1       9.485   5.005  20.415  0.00  0.00    +0.000 HD
ENDBRANCH   3  31
TORSDOF 8
ENDMDL
MODEL 9
REMARK VINA RESULT:      -6.8      1.449      1.650
REMARK  Name = 
REMARK  8 active torsions:
REMARK  status: ('A' for Active; 'I' for Inactive)
REMARK    1  A    between atoms: C_2  and  C_3
REMARK    2  A    between atoms: C_3  and  C_4
REMARK    3  A    between atoms: C_4  and  N_5
REMARK    4  A    between atoms: C_7  and  C_8
REMARK    5  A    between atoms: N_12  and  C_13
REMARK    6  A    between atoms: C_24  and  O_26
REMARK    7  A    between atoms: O_26  and  C_27
REMARK    8  A    between atoms: C_27  and  C_28
REMARK                            x       y       z     vdW  Elec       q    Type
REMARK                         _______ _______ _______ _____ _____    ______ ____
ROOT
ATOM      1  N   UNL     1      -0.973  10.879  18.779  0.00  0.00    +0.000 N 
ATOM      2  C   UNL     1      -1.491  10.728  17.528  0.00  0.00    +0.000 A 
ATOM      3  C   UNL     1      -2.756  11.289  17.557  0.00  0.00    +0.000 A 
ATOM      4  C   UNL     1      -2.885  11.809  18.878  0.00  0.00    +0.000 A 
ATOM      5  N   UNL     1      -4.016  12.410  19.333  0.00  0.00    +0.000 N 
ATOM      6  N   UNL     1      -1.771  11.589  19.585  0.00  0.00    +0.000 NA
ATOM      7  H   UNL     1      -4.785  12.495  18.668  0.00  0.00    +0.000 HD
ENDROOT
BRANCH   1   8
ATOM      8  C   UNL     1       0.288  10.328  19.342  0.00  0.00    +0.000 C 
ATOM      9  C   UNL     1      -0.100   9.319  20.459  0.00  0.00    +0.000 C 
ATOM     10  C   UNL     1       1.085   8.508  20.967  0.00  0.00    +0.000 C 
ATOM     11  N   UNL     1       1.801   7.897  19.857  0.00  0.00    +0.000 N 
ATOM     12  C   UNL     1       2.137   6.559  19.909  0.00  0.00    +0.000 C 
ATOM     13  O   UNL     1       1.841   5.803  20.825  0.00  0.00    +0.000 OA
ATOM     14  C   UNL     1       2.263   8.791  18.807  0.00  0.00    +0.000 C 
ATOM     15  C   UNL     1       1.080   9.557  18.245  0.00  0.00    +0.000 C 
BRANCH   8  16
ATOM     16  C   UNL     1       1.142  11.494  19.943  0.00  0.00    +0.000 C 
BRANCH  16  18
ATOM     17  N   UNL     1       2.155  12.984  17.825  0.00  0.00    +0.000 NA
ATOM     18  C   UNL     1       1.695  12.309  18.785  0.00  0.00    +0.000 C 
ENDBRANCH  16  18
ENDBRANCH   8  16
BRANCH  12  19
ATOM     19  O   UNL     1       2.865   6.171  18.833  0.00  0.00    +0.000 OA
BRANCH  19  20
ATOM     20  C   UNL     1       4.055   5.421  19.125  0.00  0.00    +0.000 C 
BRANCH  20  21
ATOM     21  C   UNL     1       4.712   4.777  17.917  0.00  0.00    +0.000 C 
ATOM     22  F   UNL     1       5.754   4.004  18.324  0.00  0.00    +0.000 F 
ATOM     23  F   UNL     1       3.820   3.933  17.334  0.00  0.00    +0.000 F 
ENDBRANCH  20  21
ENDBRANCH  19  20
ENDBRANCH  12  19
ENDBRANCH   1   8
BRANCH   5  24
ATOM     24  C   UNL     1      -4.391  12.721  20.660  0.00  0.00    +0.000 A 
ATOM     25  C   UNL     1      -5.562  12.261  21.283  0.00  0.00    +0.000 A 
ATOM     26  N   UNL     1      -5.984  12.610  22.523  0.00  0.00    +0.000 NA
ATOM     27  C   UNL     1      -5.197  13.474  23.196  0.00  0.00    +0.000 A 
ATOM     28  C   UNL     1      -4.012  13.970  22.689  0.00  0.00    +0.000 A 
ATOM     29  F   UNL     1      -3.274  14.828  23.404  0.00  0.00    +0.000 F 
ATOM     30  C   UNL     1      -3.597  13.587  21.416  0.00  0.00    +0.000 A 
ENDBRANCH   5  24
BRANCH   3  31
ATOM     31  C   UNL     1      -3.747  11.280  16.498  0.00  0.00    +0.000 C 
ATOM     32  N   UNL     1      -3.270  11.064  15.234  0.00  0.00    +0.000 N 
ATOM     33  O   UNL     1      -4.943  11.457  16.700  0.00  0.00    +0.000 OA
ATOM     34  H   UNL     1      -2.286  11.099  15.012  0.00  0.00    +0.000 HD
ATOM     35  H   UNL     1      -3.933  11.107  14.471  0.00  0.00    +0.000 HD
ENDBRANCH   3  31
TORSDOF 8
ENDMDL
