MODEL 1
REMARK VINA RESULT:      -7.8      0.000      0.000
REMARK  Name = 
REMARK  8 active torsions:
REMARK  status: ('A' for Active; 'I' for Inactive)
REMARK    1  A    between atoms: C_1  and  O_2
REMARK    2  A    between atoms: O_2  and  C_3
REMARK    3  A    between atoms: C_5  and  C_6
REMARK    4  A    between atoms: C_6  and  N_7
REMARK    5  A    between atoms: C_8  and  C_10
REMARK    6  A    between atoms: C_16  and  O_17
REMARK    7  A    between atoms: C_18  and  O_19
REMARK    8  A    between atoms: C_20  and  O_21
REMARK                            x       y       z     vdW  Elec       q    Type
REMARK                         _______ _______ _______ _____ _____    ______ ____
ROOT
ATOM      1  C   UNL     1       2.512   5.272  18.316  0.00  0.00    +0.000 C 
ATOM      2  O   UNL     1       3.878   5.221  17.873  0.00  0.00    +0.000 OA
ATOM      3  C   UNL     1       4.716   4.436  18.748  0.00  0.00    +0.000 C 
ATOM      4  C   UNL     1       4.217   2.981  18.845  0.00  0.00    +0.000 C 
ATOM      5  C   UNL     1       2.707   2.930  19.155  0.00  0.00    +0.000 C 
ATOM      6  C   UNL     1       1.921   3.854  18.214  0.00  0.00    +0.000 C 
ENDROOT
BRANCH   1   8
ATOM      7  C   UNL     1       2.214   7.123  19.788  0.00  0.00    +0.000 C 
ATOM      8  O   UNL     1       2.375   5.720  19.662  0.00  0.00    +0.000 OA
ENDBRANCH   1   8
BRANCH   4   9
ATOM      9  O   UNL     1       4.966   2.274  19.837  0.00  0.00    +0.000 OA
ATOM     10  H   UNL     1       5.267   2.916  20.506  0.00  0.00    +0.000 HD
ENDBRANCH   4   9
BRANCH   5  11
ATOM     11  O   UNL     1       2.222   1.588  19.038  0.00  0.00    +0.000 OA
ATOM     12  H   UNL     1       2.731   1.054  19.681  0.00  0.00    +0.000 HD
ENDBRANCH   5  11
BRANCH   6  13
ATOM     13  O   UNL     1       1.991   3.332  16.872  0.00  0.00    +0.000 OA
ATOM     14  H   UNL     1       1.914   4.091  16.261  0.00  0.00    +0.000 HD
ENDBRANCH   6  13
BRANCH   3  15
ATOM     15  C   UNL     1       6.159   4.485  18.211  0.00  0.00    +0.000 C 
BRANCH  15  16
ATOM     16  N   UNL     1       6.228   4.258  16.775  0.00  0.00    +0.000 N 
ATOM     17  C   UNL     1       6.865   5.136  15.921  0.00  0.00    +0.000 C 
ATOM     18  O   UNL     1       7.416   6.163  16.292  0.00  0.00    +0.000 OA
ATOM     19  H   UNL     1       5.826   3.405  16.415  0.00  0.00    +0.000 HD
BRANCH  17  20
ATOM     20  C   UNL     1       6.867   4.753  14.480  0.00  0.00    +0.000 A 
ATOM     21  C   UNL     1       6.011   3.764  13.987  0.00  0.00    +0.000 A 
ATOM     22  C   UNL     1       6.057   3.415  12.633  0.00  0.00    +0.000 A 
ATOM     23  C   UNL     1       6.950   4.057  11.773  0.00  0.00    +0.000 A 
ATOM     24  C   UNL     1       7.789   5.061  12.260  0.00  0.00    +0.000 A 
ATOM     25  C   UNL     1       7.745   5.415  13.613  0.00  0.00    +0.000 A 
ENDBRANCH  17  20
ENDBRANCH  15  16
ENDBRANCH   3  15
TORSDOF 7
ENDMDL
MODEL 2
REMARK VINA RESULT:      -7.8      0.148      1.066
REMARK  Name = 
REMARK  8 active torsions:
REMARK  status: ('A' for Active; 'I' for Inactive)
REMARK    1  A    between atoms: C_1  and  O_2
REMARK    2  A    between atoms: O_2  and  C_3
REMARK    3  A    between atoms: C_5  and  C_6
REMARK    4  A    between atoms: C_6  and  N_7
REMARK    5  A    between atoms: C_8  and  C_10
REMARK    6  A    between atoms: C_16  and  O_17
REMARK    7  A    between atoms: C_18  and  O_19
REMARK    8  A    between atoms: C_20  and  O_21
REMARK                            x       y       z     vdW  Elec       q    Type
REMARK                         _______ _______ _______ _____ _____    ______ ____
ROOT
ATOM      1  C   UNL     1       2.511   5.398  18.458  0.00  0.00    +0.000 C 
ATOM      2  O   UNL     1       3.872   5.360  18.004  0.00  0.00    +0.000 OA
ATOM      3  C   UNL     1       4.707   4.513  18.823  0.00  0.00    +0.000 C 
ATOM      4  C   UNL     1       4.192   3.060  18.833  0.00  0.00    +0.000 C 
ATOM      5  C   UNL     1       2.684   3.006  19.150  0.00  0.00    +0.000 C 
ATOM      6  C   UNL     1       1.903   3.995  18.273  0.00  0.00    +0.000 C 
ENDROOT
BRANCH   1   8
ATOM      7  C   UNL     1       2.104   7.137  20.037  0.00  0.00    +0.000 C 
ATOM      8  O   UNL     1       2.386   5.763  19.830  0.00  0.00    +0.000 OA
ENDBRANCH   1   8
BRANCH   4   9
ATOM      9  O   UNL     1       4.939   2.285  19.775  0.00  0.00    +0.000 OA
ATOM     10  H   UNL     1       5.221   2.874  20.499  0.00  0.00    +0.000 HD
ENDBRANCH   4   9
BRANCH   5  11
ATOM     11  O   UNL     1       2.183   1.680  18.954  0.00  0.00    +0.000 OA
ATOM     12  H   UNL     1       2.055   1.572  17.990  0.00  0.00    +0.000 HD
ENDBRANCH   5  11
BRANCH   6  13
ATOM     13  O   UNL     1       1.959   3.557  16.901  0.00  0.00    +0.000 OA
ATOM     14  H   UNL     1       2.341   4.288  16.378  0.00  0.00    +0.000 HD
ENDBRANCH   6  13
BRANCH   3  15
ATOM     15  C   UNL     1       6.147   4.579  18.281  0.00  0.00    +0.000 C 
BRANCH  15  16
ATOM     16  N   UNL     1       6.217   4.327  16.849  0.00  0.00    +0.000 N 
ATOM     17  C   UNL     1       6.875   5.176  15.983  0.00  0.00    +0.000 C 
ATOM     18  O   UNL     1       7.446   6.198  16.339  0.00  0.00    +0.000 OA
ATOM     19  H   UNL     1       5.797   3.477  16.502  0.00  0.00    +0.000 HD
BRANCH  17  20
ATOM     20  C   UNL     1       6.874   4.770  14.549  0.00  0.00    +0.000 A 
ATOM     21  C   UNL     1       7.754   5.345  13.628  0.00  0.00    +0.000 A 
ATOM     22  C   UNL     1       7.710   4.955  12.285  0.00  0.00    +0.000 A 
ATOM     23  C   UNL     1       6.795   3.988  11.865  0.00  0.00    +0.000 A 
ATOM     24  C   UNL     1       5.931   3.397  12.789  0.00  0.00    +0.000 A 
ATOM     25  C   UNL     1       5.973   3.782  14.133  0.00  0.00    +0.000 A 
ENDBRANCH  17  20
ENDBRANCH  15  16
ENDBRANCH   3  15
TORSDOF 7
ENDMDL
MODEL 3
REMARK VINA RESULT:      -7.8      1.399      2.051
REMARK  Name = 
REMARK  8 active torsions:
REMARK  status: ('A' for Active; 'I' for Inactive)
REMARK    1  A    between atoms: C_1  and  O_2
REMARK    2  A    between atoms: O_2  and  C_3
REMARK    3  A    between atoms: C_5  and  C_6
REMARK    4  A    between atoms: C_6  and  N_7
REMARK    5  A    between atoms: C_8  and  C_10
REMARK    6  A    between atoms: C_16  and  O_17
REMARK    7  A    between atoms: C_18  and  O_19
REMARK    8  A    between atoms: C_20  and  O_21
REMARK                            x       y       z     vdW  Elec       q    Type
REMARK                         _______ _______ _______ _____ _____    ______ ____
ROOT
ATOM      1  C   UNL     1       1.683   3.540  19.269  0.00  0.00    +0.000 C 
ATOM      2  O   UNL     1       2.287   4.525  18.417  0.00  0.00    +0.000 OA
ATOM      3  C   UNL     1       3.708   4.651  18.636  0.00  0.00    +0.000 C 
ATOM      4  C   UNL     1       4.437   3.319  18.374  0.00  0.00    +0.000 C 
ATOM      5  C   UNL     1       3.754   2.156  19.121  0.00  0.00    +0.000 C 
ATOM      6  C   UNL     1       2.238   2.158  18.875  0.00  0.00    +0.000 C 
ENDROOT
BRANCH   1   8
ATOM      7  C   UNL     1       1.399   2.763  21.505  0.00  0.00    +0.000 C 
ATOM      8  O   UNL     1       1.951   3.753  20.652  0.00  0.00    +0.000 OA
ENDBRANCH   1   8
BRANCH   4   9
ATOM      9  O   UNL     1       5.811   3.432  18.753  0.00  0.00    +0.000 OA
ATOM     10  H   UNL     1       5.899   3.131  19.676  0.00  0.00    +0.000 HD
ENDBRANCH   4   9
BRANCH   5  11
ATOM     11  O   UNL     1       4.313   0.904  18.706  0.00  0.00    +0.000 OA
ATOM     12  H   UNL     1       5.168   0.815  19.174  0.00  0.00    +0.000 HD
ENDBRANCH   5  11
BRANCH   6  13
ATOM     13  O   UNL     1       1.983   1.845  17.491  0.00  0.00    +0.000 OA
ATOM     14  H   UNL     1       2.024   0.874  17.401  0.00  0.00    +0.000 HD
ENDBRANCH   6  13
BRANCH   3  15
ATOM     15  C   UNL     1       4.246   5.761  17.711  0.00  0.00    +0.000 C 
BRANCH  15  16
ATOM     16  N   UNL     1       4.725   5.242  16.439  0.00  0.00    +0.000 N 
ATOM     17  C   UNL     1       5.903   5.675  15.864  0.00  0.00    +0.000 C 
ATOM     18  O   UNL     1       6.632   6.519  16.367  0.00  0.00    +0.000 OA
ATOM     19  H   UNL     1       4.185   4.513  15.996  0.00  0.00    +0.000 HD
BRANCH  17  20
ATOM     20  C   UNL     1       6.268   5.034  14.569  0.00  0.00    +0.000 A 
ATOM     21  C   UNL     1       7.433   5.389  13.882  0.00  0.00    +0.000 A 
ATOM     22  C   UNL     1       7.732   4.782  12.658  0.00  0.00    +0.000 A 
ATOM     23  C   UNL     1       6.874   3.818  12.125  0.00  0.00    +0.000 A 
ATOM     24  C   UNL     1       5.723   3.447  12.821  0.00  0.00    +0.000 A 
ATOM     25  C   UNL     1       5.420   4.049  14.047  0.00  0.00    +0.000 A 
ENDBRANCH  17  20
ENDBRANCH  15  16
ENDBRANCH   3  15
TORSDOF 7
ENDMDL
MODEL 4
REMARK VINA RESULT:      -7.6      1.335      1.666
REMARK  Name = 
REMARK  8 active torsions:
REMARK  status: ('A' for Active; 'I' for Inactive)
REMARK    1  A    between atoms: C_1  and  O_2
REMARK    2  A    between atoms: O_2  and  C_3
REMARK    3  A    between atoms: C_5  and  C_6
REMARK    4  A    between atoms: C_6  and  N_7
REMARK    5  A    between atoms: C_8  and  C_10
REMARK    6  A    between atoms: C_16  and  O_17
REMARK    7  A    between atoms: C_18  and  O_19
REMARK    8  A    between atoms: C_20  and  O_21
REMARK                            x       y       z     vdW  Elec       q    Type
REMARK                         _______ _______ _______ _____ _____    ______ ____
ROOT
ATOM      1  C   UNL     1       1.761   3.781  19.283  0.00  0.00    +0.000 C 
ATOM      2  O   UNL     1       2.410   4.737  18.431  0.00  0.00    +0.000 OA
ATOM      3  C   UNL     1       3.836   4.797  18.648  0.00  0.00    +0.000 C 
ATOM      4  C   UNL     1       4.502   3.433  18.386  0.00  0.00    +0.000 C 
ATOM      5  C   UNL     1       3.766   2.302  19.134  0.00  0.00    +0.000 C 
ATOM      6  C   UNL     1       2.252   2.375  18.890  0.00  0.00    +0.000 C 
ENDROOT
BRANCH   1   8
ATOM      7  C   UNL     1       1.621   2.914  21.499  0.00  0.00    +0.000 C 
ATOM      8  O   UNL     1       2.040   3.982  20.666  0.00  0.00    +0.000 OA
ENDBRANCH   1   8
BRANCH   4   9
ATOM      9  O   UNL     1       5.880   3.482  18.764  0.00  0.00    +0.000 OA
ATOM     10  H   UNL     1       6.329   2.707  18.380  0.00  0.00    +0.000 HD
ENDBRANCH   4   9
BRANCH   5  11
ATOM     11  O   UNL     1       4.266   1.026  18.720  0.00  0.00    +0.000 OA
ATOM     12  H   UNL     1       5.238   1.117  18.659  0.00  0.00    +0.000 HD
ENDBRANCH   5  11
BRANCH   6  13
ATOM     13  O   UNL     1       1.982   2.074  17.506  0.00  0.00    +0.000 OA
ATOM     14  H   UNL     1       1.412   1.281  17.488  0.00  0.00    +0.000 HD
ENDBRANCH   6  13
BRANCH   3  15
ATOM     15  C   UNL     1       4.424   5.880  17.723  0.00  0.00    +0.000 C 
BRANCH  15  16
ATOM     16  N   UNL     1       4.818   5.351  16.425  0.00  0.00    +0.000 N 
ATOM     17  C   UNL     1       6.049   5.620  15.864  0.00  0.00    +0.000 C 
ATOM     18  O   UNL     1       6.901   6.315  16.400  0.00  0.00    +0.000 OA
ATOM     19  H   UNL     1       4.170   4.736  15.953  0.00  0.00    +0.000 HD
BRANCH  17  20
ATOM     20  C   UNL     1       6.311   4.988  14.539  0.00  0.00    +0.000 A 
ATOM     21  C   UNL     1       5.449   4.024  14.008  0.00  0.00    +0.000 A 
ATOM     22  C   UNL     1       5.738   3.436  12.772  0.00  0.00    +0.000 A 
ATOM     23  C   UNL     1       6.880   3.816  12.065  0.00  0.00    +0.000 A 
ATOM     24  C   UNL     1       7.729   4.795  12.584  0.00  0.00    +0.000 A 
ATOM     25  C   UNL     1       7.443   5.387  13.819  0.00  0.00    +0.000 A 
ENDBRANCH  17  20
ENDBRANCH  15  16
ENDBRANCH   3  15
TORSDOF 7
ENDMDL
MODEL 5
REMARK VINA RESULT:      -7.5      1.307      1.981
REMARK  Name = 
REMARK  8 active torsions:
REMARK  status: ('A' for Active; 'I' for Inactive)
REMARK    1  A    between atoms: C_1  and  O_2
REMARK    2  A    between atoms: O_2  and  C_3
REMARK    3  A    between atoms: C_5  and  C_6
REMARK    4  A    between atoms: C_6  and  N_7
REMARK    5  A    between atoms: C_8  and  C_10
REMARK    6  A    between atoms: C_16  and  O_17
REMARK    7  A    between atoms: C_18  and  O_19
REMARK    8  A    between atoms: C_20  and  O_21
REMARK                            x       y       z     vdW  Elec       q    Type
REMARK                         _______ _______ _______ _____ _____    ______ ____
ROOT
ATOM      1  C   UNL     1       2.798   4.506  18.034  0.00  0.00    +0.000 C 
ATOM      2  O   UNL     1       3.809   5.259  17.346  0.00  0.00    +0.000 OA
ATOM      3  C   UNL     1       4.872   5.692  18.221  0.00  0.00    +0.000 C 
ATOM      4  C   UNL     1       5.575   4.492  18.884  0.00  0.00    +0.000 C 
ATOM      5  C   UNL     1       4.552   3.526  19.515  0.00  0.00    +0.000 C 
ATOM      6  C   UNL     1       3.430   3.189  18.523  0.00  0.00    +0.000 C 
ENDROOT
BRANCH   1   8
ATOM      7  C   UNL     1       1.320   4.428  19.903  0.00  0.00    +0.000 C 
ATOM      8  O   UNL     1       2.259   5.190  19.162  0.00  0.00    +0.000 OA
ENDBRANCH   1   8
BRANCH   4   9
ATOM      9  O   UNL     1       6.510   4.955  19.863  0.00  0.00    +0.000 OA
ATOM     10  H   UNL     1       6.471   5.929  19.885  0.00  0.00    +0.000 HD
ENDBRANCH   4   9
BRANCH   5  11
ATOM     11  O   UNL     1       5.202   2.324  19.942  0.00  0.00    +0.000 OA
ATOM     12  H   UNL     1       5.617   1.936  19.146  0.00  0.00    +0.000 HD
ENDBRANCH   5  11
BRANCH   6  13
ATOM     13  O   UNL     1       3.976   2.414  17.437  0.00  0.00    +0.000 OA
ATOM     14  H   UNL     1       4.169   1.522  17.785  0.00  0.00    +0.000 HD
ENDBRANCH   6  13
BRANCH   3  15
ATOM     15  C   UNL     1       5.872   6.525  17.396  0.00  0.00    +0.000 C 
BRANCH  15  16
ATOM     16  N   UNL     1       5.999   6.049  16.027  0.00  0.00    +0.000 N 
ATOM     17  C   UNL     1       6.949   5.120  15.656  0.00  0.00    +0.000 C 
ATOM     18  O   UNL     1       7.754   4.626  16.434  0.00  0.00    +0.000 OA
ATOM     19  H   UNL     1       5.335   6.392  15.348  0.00  0.00    +0.000 HD
BRANCH  17  20
ATOM     20  C   UNL     1       6.939   4.718  14.220  0.00  0.00    +0.000 A 
ATOM     21  C   UNL     1       7.800   5.310  13.291  0.00  0.00    +0.000 A 
ATOM     22  C   UNL     1       7.746   4.925  11.948  0.00  0.00    +0.000 A 
ATOM     23  C   UNL     1       6.842   3.945  11.535  0.00  0.00    +0.000 A 
ATOM     24  C   UNL     1       5.997   3.337  12.466  0.00  0.00    +0.000 A 
ATOM     25  C   UNL     1       6.049   3.718  13.811  0.00  0.00    +0.000 A 
ENDBRANCH  17  20
ENDBRANCH  15  16
ENDBRANCH   3  15
TORSDOF 7
ENDMDL
MODEL 6
REMARK VINA RESULT:      -7.4      1.359      1.952
REMARK  Name = 
REMARK  8 active torsions:
REMARK  status: ('A' for Active; 'I' for Inactive)
REMARK    1  A    between atoms: C_1  and  O_2
REMARK    2  A    between atoms: O_2  and  C_3
REMARK    3  A    between atoms: C_5  and  C_6
REMARK    4  A    between atoms: C_6  and  N_7
REMARK    5  A    between atoms: C_8  and  C_10
REMARK    6  A    between atoms: C_16  and  O_17
REMARK    7  A    between atoms: C_18  and  O_19
REMARK    8  A    between atoms: C_20  and  O_21
REMARK                            x       y       z     vdW  Elec       q    Type
REMARK                         _______ _______ _______ _____ _____    ______ ____
ROOT
ATOM      1  C   UNL     1       2.463   3.148  17.900  0.00  0.00    +0.000 C 
ATOM      2  O   UNL     1       3.264   4.155  17.264  0.00  0.00    +0.000 OA
ATOM      3  C   UNL     1       4.055   4.912  18.205  0.00  0.00    +0.000 C 
ATOM      4  C   UNL     1       5.017   3.999  18.991  0.00  0.00    +0.000 C 
ATOM      5  C   UNL     1       4.273   2.783  19.579  0.00  0.00    +0.000 C 
ATOM      6  C   UNL     1       3.409   2.097  18.512  0.00  0.00    +0.000 C 
ENDROOT
BRANCH   1   8
ATOM      7  C   UNL     1       0.685   2.732  19.432  0.00  0.00    +0.000 C 
ATOM      8  O   UNL     1       1.634   3.663  18.938  0.00  0.00    +0.000 OA
ENDBRANCH   1   8
BRANCH   4   9
ATOM      9  O   UNL     1       5.667   4.748  20.021  0.00  0.00    +0.000 OA
ATOM     10  H   UNL     1       5.607   4.240  20.851  0.00  0.00    +0.000 HD
ENDBRANCH   4   9
BRANCH   5  11
ATOM     11  O   UNL     1       5.207   1.847  20.126  0.00  0.00    +0.000 OA
ATOM     12  H   UNL     1       5.220   2.001  21.092  0.00  0.00    +0.000 HD
ENDBRANCH   5  11
BRANCH   6  13
ATOM     13  O   UNL     1       4.268   1.499  17.521  0.00  0.00    +0.000 OA
ATOM     14  H   UNL     1       4.744   2.225  17.073  0.00  0.00    +0.000 HD
ENDBRANCH   6  13
BRANCH   3  15
ATOM     15  C   UNL     1       4.836   5.989  17.428  0.00  0.00    +0.000 C 
BRANCH  15  16
ATOM     16  N   UNL     1       5.166   5.571  16.073  0.00  0.00    +0.000 N 
ATOM     17  C   UNL     1       6.422   5.113  15.730  0.00  0.00    +0.000 C 
ATOM     18  O   UNL     1       7.350   5.021  16.523  0.00  0.00    +0.000 OA
ATOM     19  H   UNL     1       4.428   5.587  15.385  0.00  0.00    +0.000 HD
BRANCH  17  20
ATOM     20  C   UNL     1       6.597   4.703  14.308  0.00  0.00    +0.000 A 
ATOM     21  C   UNL     1       5.834   3.676  13.746  0.00  0.00    +0.000 A 
ATOM     22  C   UNL     1       6.042   3.303  12.414  0.00  0.00    +0.000 A 
ATOM     23  C   UNL     1       7.003   3.959  11.643  0.00  0.00    +0.000 A 
ATOM     24  C   UNL     1       7.751   5.000  12.198  0.00  0.00    +0.000 A 
ATOM     25  C   UNL     1       7.545   5.378  13.529  0.00  0.00    +0.000 A 
ENDBRANCH  17  20
ENDBRANCH  15  16
ENDBRANCH   3  15
TORSDOF 7
ENDMDL
MODEL 7
REMARK VINA RESULT:      -7.3      1.266      1.802
REMARK  Name = 
REMARK  8 active torsions:
REMARK  status: ('A' for Active; 'I' for Inactive)
REMARK    1  A    between atoms: C_1  and  O_2
REMARK    2  A    between atoms: O_2  and  C_3
REMARK    3  A    between atoms: C_5  and  C_6
REMARK    4  A    between atoms: C_6  and  N_7
REMARK    5  A    between atoms: C_8  and  C_10
REMARK    6  A    between atoms: C_16  and  O_17
REMARK    7  A    between atoms: C_18  and  O_19
REMARK    8  A    between atoms: C_20  and  O_21
REMARK                            x       y       z     vdW  Elec       q    Type
REMARK                         _______ _______ _______ _____ _____    ______ ____
ROOT
ATOM      1  C   UNL     1       1.965   4.836  19.619  0.00  0.00    +0.000 C 
ATOM      2  O   UNL     1       2.820   5.649  18.800  0.00  0.00    +0.000 OA
ATOM      3  C   UNL     1       4.076   5.004  18.497  0.00  0.00    +0.000 C 
ATOM      4  C   UNL     1       3.858   3.677  17.745  0.00  0.00    +0.000 C 
ATOM      5  C   UNL     1       2.818   2.794  18.465  0.00  0.00    +0.000 C 
ATOM      6  C   UNL     1       1.554   3.597  18.802  0.00  0.00    +0.000 C 
ENDROOT
BRANCH   1   8
ATOM      7  C   UNL     1       1.817   3.473  21.569  0.00  0.00    +0.000 C 
ATOM      8  O   UNL     1       2.593   4.393  20.819  0.00  0.00    +0.000 OA
ENDBRANCH   1   8
BRANCH   4   9
ATOM      9  O   UNL     1       5.103   2.987  17.604  0.00  0.00    +0.000 OA
ATOM     10  H   UNL     1       5.781   3.475  18.106  0.00  0.00    +0.000 HD
ENDBRANCH   4   9
BRANCH   5  11
ATOM     11  O   UNL     1       2.478   1.666  17.652  0.00  0.00    +0.000 OA
ATOM     12  H   UNL     1       1.957   1.063  18.220  0.00  0.00    +0.000 HD
ENDBRANCH   5  11
BRANCH   6  13
ATOM     13  O   UNL     1       0.880   3.953  17.578  0.00  0.00    +0.000 OA
ATOM     14  H   UNL     1       0.209   4.627  17.801  0.00  0.00    +0.000 HD
ENDBRANCH   6  13
BRANCH   3  15
ATOM     15  C   UNL     1       4.931   5.974  17.659  0.00  0.00    +0.000 C 
BRANCH  15  16
ATOM     16  N   UNL     1       5.216   5.459  16.328  0.00  0.00    +0.000 N 
ATOM     17  C   UNL     1       6.473   5.533  15.764  0.00  0.00    +0.000 C 
ATOM     18  O   UNL     1       7.439   6.031  16.325  0.00  0.00    +0.000 OA
ATOM     19  H   UNL     1       4.465   5.000  15.832  0.00  0.00    +0.000 HD
BRANCH  17  20
ATOM     20  C   UNL     1       6.609   4.943  14.401  0.00  0.00    +0.000 A 
ATOM     21  C   UNL     1       7.629   5.342  13.533  0.00  0.00    +0.000 A 
ATOM     22  C   UNL     1       7.712   4.783  12.253  0.00  0.00    +0.000 A 
ATOM     23  C   UNL     1       6.785   3.822  11.846  0.00  0.00    +0.000 A 
ATOM     24  C   UNL     1       5.779   3.407  12.721  0.00  0.00    +0.000 A 
ATOM     25  C   UNL     1       5.693   3.962  14.002  0.00  0.00    +0.000 A 
ENDBRANCH  17  20
ENDBRANCH  15  16
ENDBRANCH   3  15
TORSDOF 7
ENDMDL
MODEL 8
REMARK VINA RESULT:      -7.3      1.997      6.530
REMARK  Name = 
REMARK  8 active torsions:
REMARK  status: ('A' for Active; 'I' for Inactive)
REMARK    1  A    between atoms: C_1  and  O_2
REMARK    2  A    between atoms: O_2  and  C_3
REMARK    3  A    between atoms: C_5  and  C_6
REMARK    4  A    between atoms: C_6  and  N_7
REMARK    5  A    between atoms: C_8  and  C_10
REMARK    6  A    between atoms: C_16  and  O_17
REMARK    7  A    between atoms: C_18  and  O_19
REMARK    8  A    between atoms: C_20  and  O_21
REMARK                            x       y       z     vdW  Elec       q    Type
REMARK                         _______ _______ _______ _____ _____    ______ ____
ROOT
ATOM      1  C   UNL     1       6.183   5.341  15.653  0.00  0.00    +0.000 C 
ATOM      2  O   UNL     1       4.859   5.297  16.206  0.00  0.00    +0.000 OA
ATOM      3  C   UNL     1       4.701   4.251  17.188  0.00  0.00    +0.000 C 
ATOM      4  C   UNL     1       5.677   4.436  18.366  0.00  0.00    +0.000 C 
ATOM      5  C   UNL     1       7.118   4.660  17.865  0.00  0.00    +0.000 C 
ATOM      6  C   UNL     1       7.160   5.741  16.775  0.00  0.00    +0.000 C 
ENDROOT
BRANCH   1   8
ATOM      7  C   UNL     1       6.210   3.880  13.769  0.00  0.00    +0.000 C 
ATOM      8  O   UNL     1       6.608   4.092  15.114  0.00  0.00    +0.000 OA
ENDBRANCH   1   8
BRANCH   4   9
ATOM      9  O   UNL     1       5.609   3.303  19.237  0.00  0.00    +0.000 OA
ATOM     10  H   UNL     1       5.951   3.570  20.110  0.00  0.00    +0.000 HD
ENDBRANCH   4   9
BRANCH   5  11
ATOM     11  O   UNL     1       7.969   5.032  18.953  0.00  0.00    +0.000 OA
ATOM     12  H   UNL     1       7.713   4.468  19.711  0.00  0.00    +0.000 HD
ENDBRANCH   5  11
BRANCH   6  13
ATOM     13  O   UNL     1       6.821   7.014  17.360  0.00  0.00    +0.000 OA
ATOM     14  H   UNL     1       6.080   6.863  17.977  0.00  0.00    +0.000 HD
ENDBRANCH   6  13
BRANCH   3  15
ATOM     15  C   UNL     1       3.241   4.262  17.679  0.00  0.00    +0.000 C 
BRANCH  15  16
ATOM     16  N   UNL     1       2.728   5.611  17.873  0.00  0.00    +0.000 N 
ATOM     17  C   UNL     1       2.580   6.169  19.127  0.00  0.00    +0.000 C 
ATOM     18  O   UNL     1       2.862   5.586  20.165  0.00  0.00    +0.000 OA
ATOM     19  H   UNL     1       2.515   6.155  17.049  0.00  0.00    +0.000 HD
BRANCH  17  20
ATOM     20  C   UNL     1       2.061   7.566  19.159  0.00  0.00    +0.000 A 
ATOM     21  C   UNL     1       1.483   8.103  20.313  0.00  0.00    +0.000 A 
ATOM     22  C   UNL     1       0.987   9.410  20.300  0.00  0.00    +0.000 A 
ATOM     23  C   UNL     1       1.074  10.182  19.139  0.00  0.00    +0.000 A 
ATOM     24  C   UNL     1       1.671   9.654  17.993  0.00  0.00    +0.000 A 
ATOM     25  C   UNL     1       2.171   8.347  18.002  0.00  0.00    +0.000 A 
ENDBRANCH  17  20
ENDBRANCH  15  16
ENDBRANCH   3  15
TORSDOF 7
ENDMDL
MODEL 9
REMARK VINA RESULT:      -7.2      2.003      6.534
REMARK  Name = 
REMARK  8 active torsions:
REMARK  status: ('A' for Active; 'I' for Inactive)
REMARK    1  A    between atoms: C_1  and  O_2
REMARK    2  A    between atoms: O_2  and  C_3
REMARK    3  A    between atoms: C_5  and  C_6
REMARK    4  A    between atoms: C_6  and  N_7
REMARK    5  A    between atoms: C_8  and  C_10
REMARK    6  A    between atoms: C_16  and  O_17
REMARK    7  A    between atoms: C_18  and  O_19
REMARK    8  A    between atoms: C_20  and  O_21
REMARK                            x       y       z     vdW  Elec       q    Type
REMARK                         _______ _______ _______ _____ _____    ______ ____
ROOT
ATOM      1  C   UNL     1       6.081   5.284  15.507  0.00  0.00    +0.000 C 
ATOM      2  O   UNL     1       4.781   5.246  16.115  0.00  0.00    +0.000 OA
ATOM      3  C   UNL     1       4.668   4.215  17.119  0.00  0.00    +0.000 C 
ATOM      4  C   UNL     1       5.692   4.420  18.252  0.00  0.00    +0.000 C 
ATOM      5  C   UNL     1       7.110   4.640  17.688  0.00  0.00    +0.000 C 
ATOM      6  C   UNL     1       7.102   5.704  16.581  0.00  0.00    +0.000 C 
ENDROOT
BRANCH   1   8
ATOM      7  C   UNL     1       6.232   3.886  13.582  0.00  0.00    +0.000 C 
ATOM      8  O   UNL     1       6.487   4.028  14.970  0.00  0.00    +0.000 OA
ENDBRANCH   1   8
BRANCH   4   9
ATOM      9  O   UNL     1       5.665   3.301  19.142  0.00  0.00    +0.000 OA
ATOM     10  H   UNL     1       5.552   2.492  18.611  0.00  0.00    +0.000 HD
ENDBRANCH   4   9
BRANCH   5  11
ATOM     11  O   UNL     1       8.005   5.032  18.734  0.00  0.00    +0.000 OA
ATOM     12  H   UNL     1       7.775   5.954  18.964  0.00  0.00    +0.000 HD
ENDBRANCH   5  11
BRANCH   6  13
ATOM     13  O   UNL     1       6.785   6.986  17.159  0.00  0.00    +0.000 OA
ATOM     14  H   UNL     1       7.536   7.242  17.729  0.00  0.00    +0.000 HD
ENDBRANCH   6  13
BRANCH   3  15
ATOM     15  C   UNL     1       3.230   4.229  17.671  0.00  0.00    +0.000 C 
BRANCH  15  16
ATOM     16  N   UNL     1       2.705   5.578  17.824  0.00  0.00    +0.000 N 
ATOM     17  C   UNL     1       2.701   6.233  19.038  0.00  0.00    +0.000 C 
ATOM     18  O   UNL     1       3.131   5.744  20.074  0.00  0.00    +0.000 OA
ATOM     19  H   UNL     1       2.373   6.048  16.994  0.00  0.00    +0.000 HD
BRANCH  17  20
ATOM     20  C   UNL     1       2.148   7.618  19.027  0.00  0.00    +0.000 A 
ATOM     21  C   UNL     1       2.210   8.419  17.883  0.00  0.00    +0.000 A 
ATOM     22  C   UNL     1       1.701   9.721  17.917  0.00  0.00    +0.000 A 
ATOM     23  C   UNL     1       1.124  10.219  19.086  0.00  0.00    +0.000 A 
ATOM     24  C   UNL     1       1.042   9.412  20.223  0.00  0.00    +0.000 A 
ATOM     25  C   UNL     1       1.548   8.108  20.193  0.00  0.00    +0.000 A 
ENDBRANCH  17  20
ENDBRANCH  15  16
ENDBRANCH   3  15
TORSDOF 7
ENDMDL
