MODEL 1
REMARK VINA RESULT:      -7.5      0.000      0.000
REMARK  Name = 
REMARK  7 active torsions:
REMARK  status: ('A' for Active; 'I' for Inactive)
REMARK    1  A    between atoms: C_1  and  O_2
REMARK    2  A    between atoms: O_2  and  C_3
REMARK    3  A    between atoms: N_13  and  C_14
REMARK    4  A    between atoms: C_14  and  C_15
REMARK    5  A    between atoms: C_15  and  C_16
REMARK    6  A    between atoms: C_19  and  O_20
REMARK    7  A    between atoms: C_21  and  O_22
REMARK                            x       y       z     vdW  Elec       q    Type
REMARK                         _______ _______ _______ _____ _____    ______ ____
ROOT
ATOM      1  C   UNL     1      -3.403  12.308  23.279  0.00  0.00    +0.000 A 
ATOM      2  C   UNL     1      -4.133  12.849  22.225  0.00  0.00    +0.000 A 
ATOM      3  C   UNL     1      -3.487  13.232  21.051  0.00  0.00    +0.000 A 
ATOM      4  C   UNL     1      -2.107  13.046  20.902  0.00  0.00    +0.000 A 
ATOM      5  C   UNL     1      -1.359  12.470  21.944  0.00  0.00    +0.000 A 
ATOM      6  C   UNL     1      -2.029  12.106  23.133  0.00  0.00    +0.000 A 
ATOM      7  C   UNL     1       0.139  12.259  21.855  0.00  0.00    +0.000 C 
ATOM      8  N   UNL     1       0.536  11.251  20.872  0.00  0.00    +0.000 N 
ATOM      9  C   UNL     1       0.832   9.976  21.336  0.00  0.00    +0.000 C 
ATOM     10  O   UNL     1       0.790   9.675  22.525  0.00  0.00    +0.000 OA
ATOM     11  N   UNL     1       1.217   9.065  20.384  0.00  0.00    +0.000 N 
ATOM     12  C   UNL     1       0.665  11.714  19.485  0.00  0.00    +0.000 C 
ATOM     13  C   UNL     1      -0.676  11.993  18.811  0.00  0.00    +0.000 C 
ATOM     14  S   UNL     1      -1.396  13.578  19.353  0.00  0.00    +0.000 S 
ATOM     15  H   UNL     1       0.845   9.175  19.457  0.00  0.00    +0.000 HD
ENDROOT
BRANCH   1  17
ATOM     16  C   UNL     1      -5.435  12.550  24.448  0.00  0.00    +0.000 C 
ATOM     17  O   UNL     1      -4.137  11.970  24.382  0.00  0.00    +0.000 OA
ENDBRANCH   1  17
BRANCH  11  18
ATOM     18  C   UNL     1       1.594   7.714  20.772  0.00  0.00    +0.000 C 
BRANCH  18  19
ATOM     19  C   UNL     1       2.433   6.986  19.714  0.00  0.00    +0.000 C 
BRANCH  19  20
ATOM     20  C   UNL     1       2.036   5.546  19.472  0.00  0.00    +0.000 A 
ATOM     21  C   UNL     1       1.370   4.805  20.463  0.00  0.00    +0.000 A 
ATOM     22  C   UNL     1       1.012   3.469  20.243  0.00  0.00    +0.000 A 
ATOM     23  C   UNL     1       1.317   2.878  19.024  0.00  0.00    +0.000 A 
ATOM     24  C   UNL     1       1.961   3.610  18.032  0.00  0.00    +0.000 A 
ATOM     25  C   UNL     1       2.316   4.936  18.240  0.00  0.00    +0.000 A 
BRANCH  23  26
ATOM     26  O   UNL     1       1.006   1.574  18.753  0.00  0.00    +0.000 OA
ATOM     27  H   UNL     1       1.424   1.018  19.432  0.00  0.00    +0.000 HD
ENDBRANCH  23  26
BRANCH  24  28
ATOM     28  O   UNL     1       2.257   3.022  16.835  0.00  0.00    +0.000 OA
ATOM     29  H   UNL     1       3.006   2.427  17.036  0.00  0.00    +0.000 HD
ENDBRANCH  24  28
ENDBRANCH  19  20
ENDBRANCH  18  19
ENDBRANCH  11  18
TORSDOF 6
ENDMDL
MODEL 2
REMARK VINA RESULT:      -7.4      3.466      4.759
REMARK  Name = 
REMARK  7 active torsions:
REMARK  status: ('A' for Active; 'I' for Inactive)
REMARK    1  A    between atoms: C_1  and  O_2
REMARK    2  A    between atoms: O_2  and  C_3
REMARK    3  A    between atoms: N_13  and  C_14
REMARK    4  A    between atoms: C_14  and  C_15
REMARK    5  A    between atoms: C_15  and  C_16
REMARK    6  A    between atoms: C_19  and  O_20
REMARK    7  A    between atoms: C_21  and  O_22
REMARK                            x       y       z     vdW  Elec       q    Type
REMARK                         _______ _______ _______ _____ _____    ______ ____
ROOT
ATOM      1  C   UNL     1       2.790  14.437  19.272  0.00  0.00    +0.000 A 
ATOM      2  C   UNL     1       2.510  14.818  20.581  0.00  0.00    +0.000 A 
ATOM      3  C   UNL     1       1.519  14.155  21.305  0.00  0.00    +0.000 A 
ATOM      4  C   UNL     1       0.820  13.080  20.741  0.00  0.00    +0.000 A 
ATOM      5  C   UNL     1       1.115  12.661  19.431  0.00  0.00    +0.000 A 
ATOM      6  C   UNL     1       2.108  13.357  18.707  0.00  0.00    +0.000 A 
ATOM      7  C   UNL     1       0.384  11.518  18.756  0.00  0.00    +0.000 C 
ATOM      8  N   UNL     1       0.657  10.209  19.348  0.00  0.00    +0.000 N 
ATOM      9  C   UNL     1       1.590   9.397  18.719  0.00  0.00    +0.000 C 
ATOM     10  O   UNL     1       2.172   9.725  17.690  0.00  0.00    +0.000 OA
ATOM     11  N   UNL     1       1.805   8.170  19.297  0.00  0.00    +0.000 N 
ATOM     12  C   UNL     1      -0.154   9.845  20.517  0.00  0.00    +0.000 C 
ATOM     13  C   UNL     1       0.226  10.612  21.782  0.00  0.00    +0.000 C 
ATOM     14  S   UNL     1      -0.424  12.316  21.767  0.00  0.00    +0.000 S 
ATOM     15  H   UNL     1       1.682   8.096  20.293  0.00  0.00    +0.000 HD
ENDROOT
BRANCH   1  17
ATOM     16  C   UNL     1       3.489  15.566  17.326  0.00  0.00    +0.000 C 
ATOM     17  O   UNL     1       3.777  15.155  18.657  0.00  0.00    +0.000 OA
ENDBRANCH   1  17
BRANCH  11  18
ATOM     18  C   UNL     1       2.729   7.224  18.690  0.00  0.00    +0.000 C 
BRANCH  18  19
ATOM     19  C   UNL     1       2.039   6.174  17.810  0.00  0.00    +0.000 C 
BRANCH  19  20
ATOM     20  C   UNL     1       2.571   4.767  17.968  0.00  0.00    +0.000 A 
ATOM     21  C   UNL     1       1.838   3.662  17.502  0.00  0.00    +0.000 A 
ATOM     22  C   UNL     1       2.326   2.358  17.657  0.00  0.00    +0.000 A 
ATOM     23  C   UNL     1       3.554   2.164  18.276  0.00  0.00    +0.000 A 
ATOM     24  C   UNL     1       4.294   3.254  18.723  0.00  0.00    +0.000 A 
ATOM     25  C   UNL     1       3.820   4.550  18.569  0.00  0.00    +0.000 A 
BRANCH  23  26
ATOM     26  O   UNL     1       4.079   0.916  18.469  0.00  0.00    +0.000 OA
ATOM     27  H   UNL     1       4.560   0.920  19.314  0.00  0.00    +0.000 HD
ENDBRANCH  23  26
BRANCH  24  28
ATOM     28  O   UNL     1       5.502   3.054  19.329  0.00  0.00    +0.000 OA
ATOM     29  H   UNL     1       6.096   3.704  18.904  0.00  0.00    +0.000 HD
ENDBRANCH  24  28
ENDBRANCH  19  20
ENDBRANCH  18  19
ENDBRANCH  11  18
TORSDOF 6
ENDMDL
MODEL 3
REMARK VINA RESULT:      -7.3      4.547     10.502
REMARK  Name = 
REMARK  7 active torsions:
REMARK  status: ('A' for Active; 'I' for Inactive)
REMARK    1  A    between atoms: C_1  and  O_2
REMARK    2  A    between atoms: O_2  and  C_3
REMARK    3  A    between atoms: N_13  and  C_14
REMARK    4  A    between atoms: C_14  and  C_15
REMARK    5  A    between atoms: C_15  and  C_16
REMARK    6  A    between atoms: C_19  and  O_20
REMARK    7  A    between atoms: C_21  and  O_22
REMARK                            x       y       z     vdW  Elec       q    Type
REMARK                         _______ _______ _______ _____ _____    ______ ____
ROOT
ATOM      1  C   UNL     1       6.792   5.084  15.326  0.00  0.00    +0.000 A 
ATOM      2  C   UNL     1       6.324   3.833  14.936  0.00  0.00    +0.000 A 
ATOM      3  C   UNL     1       5.356   3.180  15.699  0.00  0.00    +0.000 A 
ATOM      4  C   UNL     1       4.818   3.787  16.842  0.00  0.00    +0.000 A 
ATOM      5  C   UNL     1       5.257   5.066  17.230  0.00  0.00    +0.000 A 
ATOM      6  C   UNL     1       6.251   5.702  16.456  0.00  0.00    +0.000 A 
ATOM      7  C   UNL     1       4.730   5.769  18.465  0.00  0.00    +0.000 C 
ATOM      8  N   UNL     1       3.326   6.165  18.366  0.00  0.00    +0.000 N 
ATOM      9  C   UNL     1       3.048   7.485  18.039  0.00  0.00    +0.000 C 
ATOM     10  O   UNL     1       3.925   8.323  17.850  0.00  0.00    +0.000 OA
ATOM     11  N   UNL     1       1.717   7.821  17.973  0.00  0.00    +0.000 N 
ATOM     12  C   UNL     1       2.336   5.136  18.709  0.00  0.00    +0.000 C 
ATOM     13  C   UNL     1       2.210   4.040  17.652  0.00  0.00    +0.000 C 
ATOM     14  S   UNL     1       3.589   2.851  17.734  0.00  0.00    +0.000 S 
ATOM     15  H   UNL     1       1.069   7.101  17.703  0.00  0.00    +0.000 HD
ENDROOT
BRANCH   1  17
ATOM     16  C   UNL     1       7.729   5.157  13.164  0.00  0.00    +0.000 C 
ATOM     17  O   UNL     1       7.741   5.630  14.506  0.00  0.00    +0.000 OA
ENDBRANCH   1  17
BRANCH  11  18
ATOM     18  C   UNL     1       1.319   9.190  17.684  0.00  0.00    +0.000 C 
BRANCH  18  19
ATOM     19  C   UNL     1       0.567   9.865  18.838  0.00  0.00    +0.000 C 
BRANCH  19  20
ATOM     20  C   UNL     1      -0.787  10.428  18.467  0.00  0.00    +0.000 A 
ATOM     21  C   UNL     1      -1.489   9.944  17.350  0.00  0.00    +0.000 A 
ATOM     22  C   UNL     1      -2.738  10.473  17.000  0.00  0.00    +0.000 A 
ATOM     23  C   UNL     1      -3.285  11.486  17.776  0.00  0.00    +0.000 A 
ATOM     24  C   UNL     1      -2.604  11.959  18.893  0.00  0.00    +0.000 A 
ATOM     25  C   UNL     1      -1.368  11.437  19.250  0.00  0.00    +0.000 A 
BRANCH  23  26
ATOM     26  O   UNL     1      -4.494  12.053  17.480  0.00  0.00    +0.000 OA
ATOM     27  H   UNL     1      -5.163  11.348  17.474  0.00  0.00    +0.000 HD
ENDBRANCH  23  26
BRANCH  24  28
ATOM     28  O   UNL     1      -3.151  12.955  19.653  0.00  0.00    +0.000 OA
ATOM     29  H   UNL     1      -4.010  13.141  19.226  0.00  0.00    +0.000 HD
ENDBRANCH  24  28
ENDBRANCH  19  20
ENDBRANCH  18  19
ENDBRANCH  11  18
TORSDOF 6
ENDMDL
MODEL 4
REMARK VINA RESULT:      -7.2      3.936      5.013
REMARK  Name = 
REMARK  7 active torsions:
REMARK  status: ('A' for Active; 'I' for Inactive)
REMARK    1  A    between atoms: C_1  and  O_2
REMARK    2  A    between atoms: O_2  and  C_3
REMARK    3  A    between atoms: N_13  and  C_14
REMARK    4  A    between atoms: C_14  and  C_15
REMARK    5  A    between atoms: C_15  and  C_16
REMARK    6  A    between atoms: C_19  and  O_20
REMARK    7  A    between atoms: C_21  and  O_22
REMARK                            x       y       z     vdW  Elec       q    Type
REMARK                         _______ _______ _______ _____ _____    ______ ____
ROOT
ATOM      1  C   UNL     1       2.977  13.759  18.741  0.00  0.00    +0.000 A 
ATOM      2  C   UNL     1       2.795  14.112  20.075  0.00  0.00    +0.000 A 
ATOM      3  C   UNL     1       1.929  13.375  20.881  0.00  0.00    +0.000 A 
ATOM      4  C   UNL     1       1.262  12.252  20.373  0.00  0.00    +0.000 A 
ATOM      5  C   UNL     1       1.461  11.862  19.037  0.00  0.00    +0.000 A 
ATOM      6  C   UNL     1       2.327  12.633  18.231  0.00  0.00    +0.000 A 
ATOM      7  C   UNL     1       0.756  10.671  18.420  0.00  0.00    +0.000 C 
ATOM      8  N   UNL     1       1.180   9.383  18.970  0.00  0.00    +0.000 N 
ATOM      9  C   UNL     1       2.107   8.646  18.247  0.00  0.00    +0.000 C 
ATOM     10  O   UNL     1       2.563   9.021  17.171  0.00  0.00    +0.000 OA
ATOM     11  N   UNL     1       2.466   7.435  18.788  0.00  0.00    +0.000 N 
ATOM     12  C   UNL     1       0.513   8.954  20.205  0.00  0.00    +0.000 C 
ATOM     13  C   UNL     1       0.952   9.743  21.437  0.00  0.00    +0.000 C 
ATOM     14  S   UNL     1       0.179  11.393  21.503  0.00  0.00    +0.000 S 
ATOM     15  H   UNL     1       2.444   7.349  19.790  0.00  0.00    +0.000 HD
ENDROOT
BRANCH   1  17
ATOM     16  C   UNL     1       3.274  15.721  17.471  0.00  0.00    +0.000 C 
ATOM     17  O   UNL     1       3.846  14.552  18.044  0.00  0.00    +0.000 OA
ENDBRANCH   1  17
BRANCH  11  18
ATOM     18  C   UNL     1       3.396   6.564  18.086  0.00  0.00    +0.000 C 
BRANCH  18  19
ATOM     19  C   UNL     1       2.818   5.178  17.773  0.00  0.00    +0.000 C 
BRANCH  19  20
ATOM     20  C   UNL     1       2.505   4.334  18.988  0.00  0.00    +0.000 A 
ATOM     21  C   UNL     1       1.213   4.318  19.542  0.00  0.00    +0.000 A 
ATOM     22  C   UNL     1       0.926   3.544  20.673  0.00  0.00    +0.000 A 
ATOM     23  C   UNL     1       1.934   2.780  21.246  0.00  0.00    +0.000 A 
ATOM     24  C   UNL     1       3.211   2.777  20.693  0.00  0.00    +0.000 A 
ATOM     25  C   UNL     1       3.503   3.538  19.569  0.00  0.00    +0.000 A 
BRANCH  23  26
ATOM     26  O   UNL     1       1.720   2.015  22.358  0.00  0.00    +0.000 OA
ATOM     27  H   UNL     1       0.933   1.467  22.199  0.00  0.00    +0.000 HD
ENDBRANCH  23  26
BRANCH  24  28
ATOM     28  O   UNL     1       4.197   2.022  21.261  0.00  0.00    +0.000 OA
ATOM     29  H   UNL     1       4.750   1.737  20.506  0.00  0.00    +0.000 HD
ENDBRANCH  24  28
ENDBRANCH  19  20
ENDBRANCH  18  19
ENDBRANCH  11  18
TORSDOF 6
ENDMDL
MODEL 5
REMARK VINA RESULT:      -7.2      1.769      2.408
REMARK  Name = 
REMARK  7 active torsions:
REMARK  status: ('A' for Active; 'I' for Inactive)
REMARK    1  A    between atoms: C_1  and  O_2
REMARK    2  A    between atoms: O_2  and  C_3
REMARK    3  A    between atoms: N_13  and  C_14
REMARK    4  A    between atoms: C_14  and  C_15
REMARK    5  A    between atoms: C_15  and  C_16
REMARK    6  A    between atoms: C_19  and  O_20
REMARK    7  A    between atoms: C_21  and  O_22
REMARK                            x       y       z     vdW  Elec       q    Type
REMARK                         _______ _______ _______ _____ _____    ______ ____
ROOT
ATOM      1  C   UNL     1      -3.784  13.045  21.430  0.00  0.00    +0.000 A 
ATOM      2  C   UNL     1      -4.928  12.682  20.726  0.00  0.00    +0.000 A 
ATOM      3  C   UNL     1      -4.820  12.153  19.441  0.00  0.00    +0.000 A 
ATOM      4  C   UNL     1      -3.563  11.946  18.857  0.00  0.00    +0.000 A 
ATOM      5  C   UNL     1      -2.396  12.275  19.568  0.00  0.00    +0.000 A 
ATOM      6  C   UNL     1      -2.527  12.829  20.861  0.00  0.00    +0.000 A 
ATOM      7  C   UNL     1      -1.008  12.095  18.988  0.00  0.00    +0.000 C 
ATOM      8  N   UNL     1      -0.624  10.696  18.799  0.00  0.00    +0.000 N 
ATOM      9  C   UNL     1       0.187  10.112  19.762  0.00  0.00    +0.000 C 
ATOM     10  O   UNL     1       0.601  10.723  20.743  0.00  0.00    +0.000 OA
ATOM     11  N   UNL     1       0.539   8.803  19.539  0.00  0.00    +0.000 N 
ATOM     12  C   UNL     1      -1.070  10.064  17.550  0.00  0.00    +0.000 C 
ATOM     13  C   UNL     1      -2.567   9.765  17.523  0.00  0.00    +0.000 C 
ATOM     14  S   UNL     1      -3.557  11.264  17.208  0.00  0.00    +0.000 S 
ATOM     15  H   UNL     1      -0.109   8.228  19.028  0.00  0.00    +0.000 HD
ENDROOT
BRANCH   1  17
ATOM     16  C   UNL     1      -4.600  14.848  22.710  0.00  0.00    +0.000 C 
ATOM     17  O   UNL     1      -4.007  13.555  22.679  0.00  0.00    +0.000 OA
ENDBRANCH   1  17
BRANCH  11  18
ATOM     18  C   UNL     1       1.423   8.113  20.465  0.00  0.00    +0.000 C 
BRANCH  18  19
ATOM     19  C   UNL     1       2.495   7.264  19.769  0.00  0.00    +0.000 C 
BRANCH  19  20
ATOM     20  C   UNL     1       2.075   5.845  19.459  0.00  0.00    +0.000 A 
ATOM     21  C   UNL     1       2.109   5.353  18.142  0.00  0.00    +0.000 A 
ATOM     22  C   UNL     1       1.711   4.043  17.853  0.00  0.00    +0.000 A 
ATOM     23  C   UNL     1       1.283   3.221  18.888  0.00  0.00    +0.000 A 
ATOM     24  C   UNL     1       1.263   3.694  20.196  0.00  0.00    +0.000 A 
ATOM     25  C   UNL     1       1.661   4.991  20.492  0.00  0.00    +0.000 A 
BRANCH  23  26
ATOM     26  O   UNL     1       0.869   1.936  18.669  0.00  0.00    +0.000 OA
ATOM     27  H   UNL     1       0.122   1.963  18.047  0.00  0.00    +0.000 HD
ENDBRANCH  23  26
BRANCH  24  28
ATOM     28  O   UNL     1       0.843   2.879  21.209  0.00  0.00    +0.000 OA
ATOM     29  H   UNL     1       1.220   3.281  22.016  0.00  0.00    +0.000 HD
ENDBRANCH  24  28
ENDBRANCH  19  20
ENDBRANCH  18  19
ENDBRANCH  11  18
TORSDOF 6
ENDMDL
MODEL 6
REMARK VINA RESULT:      -7.1      3.071      4.042
REMARK  Name = 
REMARK  7 active torsions:
REMARK  status: ('A' for Active; 'I' for Inactive)
REMARK    1  A    between atoms: C_1  and  O_2
REMARK    2  A    between atoms: O_2  and  C_3
REMARK    3  A    between atoms: N_13  and  C_14
REMARK    4  A    between atoms: C_14  and  C_15
REMARK    5  A    between atoms: C_15  and  C_16
REMARK    6  A    between atoms: C_19  and  O_20
REMARK    7  A    between atoms: C_21  and  O_22
REMARK                            x       y       z     vdW  Elec       q    Type
REMARK                         _______ _______ _______ _____ _____    ______ ____
ROOT
ATOM      1  C   UNL     1       0.496  14.260  19.486  0.00  0.00    +0.000 A 
ATOM      2  C   UNL     1       0.460  14.631  20.826  0.00  0.00    +0.000 A 
ATOM      3  C   UNL     1      -0.015  13.738  21.786  0.00  0.00    +0.000 A 
ATOM      4  C   UNL     1      -0.425  12.449  21.422  0.00  0.00    +0.000 A 
ATOM      5  C   UNL     1      -0.363  12.047  20.075  0.00  0.00    +0.000 A 
ATOM      6  C   UNL     1       0.102  12.972  19.115  0.00  0.00    +0.000 A 
ATOM      7  C   UNL     1      -0.809  10.675  19.612  0.00  0.00    +0.000 C 
ATOM      8  N   UNL     1       0.043   9.585  20.086  0.00  0.00    +0.000 N 
ATOM      9  C   UNL     1       0.996   9.081  19.212  0.00  0.00    +0.000 C 
ATOM     10  O   UNL     1       1.135   9.500  18.067  0.00  0.00    +0.000 OA
ATOM     11  N   UNL     1       1.763   8.047  19.690  0.00  0.00    +0.000 N 
ATOM     12  C   UNL     1      -0.254   9.068  21.428  0.00  0.00    +0.000 C 
ATOM     13  C   UNL     1       0.159  10.018  22.550  0.00  0.00    +0.000 C 
ATOM     14  S   UNL     1      -1.014  11.400  22.740  0.00  0.00    +0.000 S 
ATOM     15  H   UNL     1       1.941   8.018  20.680  0.00  0.00    +0.000 HD
ENDROOT
BRANCH   1  17
ATOM     16  C   UNL     1       2.073  15.975  19.127  0.00  0.00    +0.000 C 
ATOM     17  O   UNL     1       0.977  15.214  18.632  0.00  0.00    +0.000 OA
ENDBRANCH   1  17
BRANCH  11  18
ATOM     18  C   UNL     1       2.759   7.417  18.837  0.00  0.00    +0.000 C 
BRANCH  18  19
ATOM     19  C   UNL     1       2.164   6.421  17.834  0.00  0.00    +0.000 C 
BRANCH  19  20
ATOM     20  C   UNL     1       2.648   4.997  17.993  0.00  0.00    +0.000 A 
ATOM     21  C   UNL     1       1.851   3.913  17.586  0.00  0.00    +0.000 A 
ATOM     22  C   UNL     1       2.295   2.595  17.742  0.00  0.00    +0.000 A 
ATOM     23  C   UNL     1       3.544   2.363  18.302  0.00  0.00    +0.000 A 
ATOM     24  C   UNL     1       4.347   3.430  18.691  0.00  0.00    +0.000 A 
ATOM     25  C   UNL     1       3.916   4.741  18.535  0.00  0.00    +0.000 A 
BRANCH  23  26
ATOM     26  O   UNL     1       4.029   1.098  18.493  0.00  0.00    +0.000 OA
ATOM     27  H   UNL     1       3.674   0.530  17.788  0.00  0.00    +0.000 HD
ENDBRANCH  23  26
BRANCH  24  28
ATOM     28  O   UNL     1       5.576   3.194  19.240  0.00  0.00    +0.000 OA
ATOM     29  H   UNL     1       5.393   2.603  19.997  0.00  0.00    +0.000 HD
ENDBRANCH  24  28
ENDBRANCH  19  20
ENDBRANCH  18  19
ENDBRANCH  11  18
TORSDOF 6
ENDMDL
MODEL 7
REMARK VINA RESULT:      -7.0      3.131      4.874
REMARK  Name = 
REMARK  7 active torsions:
REMARK  status: ('A' for Active; 'I' for Inactive)
REMARK    1  A    between atoms: C_1  and  O_2
REMARK    2  A    between atoms: O_2  and  C_3
REMARK    3  A    between atoms: N_13  and  C_14
REMARK    4  A    between atoms: C_14  and  C_15
REMARK    5  A    between atoms: C_15  and  C_16
REMARK    6  A    between atoms: C_19  and  O_20
REMARK    7  A    between atoms: C_21  and  O_22
REMARK                            x       y       z     vdW  Elec       q    Type
REMARK                         _______ _______ _______ _____ _____    ______ ____
ROOT
ATOM      1  C   UNL     1       3.286  14.349  18.745  0.00  0.00    +0.000 A 
ATOM      2  C   UNL     1       2.996  15.030  19.923  0.00  0.00    +0.000 A 
ATOM      3  C   UNL     1       1.880  14.673  20.680  0.00  0.00    +0.000 A 
ATOM      4  C   UNL     1       1.061  13.607  20.286  0.00  0.00    +0.000 A 
ATOM      5  C   UNL     1       1.360  12.887  19.116  0.00  0.00    +0.000 A 
ATOM      6  C   UNL     1       2.483  13.276  18.353  0.00  0.00    +0.000 A 
ATOM      7  C   UNL     1       0.505  11.737  18.624  0.00  0.00    +0.000 C 
ATOM      8  N   UNL     1       0.549  10.556  19.487  0.00  0.00    +0.000 N 
ATOM      9  C   UNL     1       1.384   9.513  19.113  0.00  0.00    +0.000 C 
ATOM     10  O   UNL     1       2.063   9.537  18.091  0.00  0.00    +0.000 OA
ATOM     11  N   UNL     1       1.384   8.416  19.941  0.00  0.00    +0.000 N 
ATOM     12  C   UNL     1      -0.368  10.557  20.634  0.00  0.00    +0.000 C 
ATOM     13  C   UNL     1       0.052  11.515  21.746  0.00  0.00    +0.000 C 
ATOM     14  S   UNL     1      -0.336  13.249  21.337  0.00  0.00    +0.000 S 
ATOM     15  H   UNL     1       1.198   8.571  20.917  0.00  0.00    +0.000 HD
ENDROOT
BRANCH   1  17
ATOM     16  C   UNL     1       5.354  15.472  18.884  0.00  0.00    +0.000 C 
ATOM     17  O   UNL     1       4.401  14.784  18.083  0.00  0.00    +0.000 OA
ENDBRANCH   1  17
BRANCH  11  18
ATOM     18  C   UNL     1       2.189   7.249  19.614  0.00  0.00    +0.000 C 
BRANCH  18  19
ATOM     19  C   UNL     1       1.870   6.024  20.480  0.00  0.00    +0.000 C 
BRANCH  19  20
ATOM     20  C   UNL     1       2.409   4.715  19.948  0.00  0.00    +0.000 A 
ATOM     21  C   UNL     1       1.558   3.617  19.737  0.00  0.00    +0.000 A 
ATOM     22  C   UNL     1       2.058   2.401  19.254  0.00  0.00    +0.000 A 
ATOM     23  C   UNL     1       3.414   2.289  18.977  0.00  0.00    +0.000 A 
ATOM     24  C   UNL     1       4.260   3.377  19.167  0.00  0.00    +0.000 A 
ATOM     25  C   UNL     1       3.772   4.587  19.641  0.00  0.00    +0.000 A 
BRANCH  23  26
ATOM     26  O   UNL     1       3.966   1.126  18.517  0.00  0.00    +0.000 OA
ATOM     27  H   UNL     1       4.929   1.252  18.460  0.00  0.00    +0.000 HD
ENDBRANCH  23  26
BRANCH  24  28
ATOM     28  O   UNL     1       5.593   3.260  18.891  0.00  0.00    +0.000 OA
ATOM     29  H   UNL     1       5.623   2.786  18.035  0.00  0.00    +0.000 HD
ENDBRANCH  24  28
ENDBRANCH  19  20
ENDBRANCH  18  19
ENDBRANCH  11  18
TORSDOF 6
ENDMDL
MODEL 8
REMARK VINA RESULT:      -7.0      3.663      4.584
REMARK  Name = 
REMARK  7 active torsions:
REMARK  status: ('A' for Active; 'I' for Inactive)
REMARK    1  A    between atoms: C_1  and  O_2
REMARK    2  A    between atoms: O_2  and  C_3
REMARK    3  A    between atoms: N_13  and  C_14
REMARK    4  A    between atoms: C_14  and  C_15
REMARK    5  A    between atoms: C_15  and  C_16
REMARK    6  A    between atoms: C_19  and  O_20
REMARK    7  A    between atoms: C_21  and  O_22
REMARK                            x       y       z     vdW  Elec       q    Type
REMARK                         _______ _______ _______ _____ _____    ______ ____
ROOT
ATOM      1  C   UNL     1       0.206  14.443  19.667  0.00  0.00    +0.000 A 
ATOM      2  C   UNL     1       0.245  14.680  21.038  0.00  0.00    +0.000 A 
ATOM      3  C   UNL     1      -0.100  13.667  21.932  0.00  0.00    +0.000 A 
ATOM      4  C   UNL     1      -0.455  12.394  21.468  0.00  0.00    +0.000 A 
ATOM      5  C   UNL     1      -0.467  12.129  20.087  0.00  0.00    +0.000 A 
ATOM      6  C   UNL     1      -0.133  13.172  19.196  0.00  0.00    +0.000 A 
ATOM      7  C   UNL     1      -0.860  10.780  19.518  0.00  0.00    +0.000 C 
ATOM      8  N   UNL     1       0.092   9.711  19.821  0.00  0.00    +0.000 N 
ATOM      9  C   UNL     1       1.007   9.362  18.838  0.00  0.00    +0.000 C 
ATOM     10  O   UNL     1       1.034   9.897  17.734  0.00  0.00    +0.000 OA
ATOM     11  N   UNL     1       1.871   8.343  19.156  0.00  0.00    +0.000 N 
ATOM     12  C   UNL     1      -0.072   9.048  21.121  0.00  0.00    +0.000 C 
ATOM     13  C   UNL     1       0.363   9.912  22.303  0.00  0.00    +0.000 C 
ATOM     14  S   UNL     1      -0.877  11.184  22.710  0.00  0.00    +0.000 S 
ATOM     15  H   UNL     1       2.123   8.231  20.124  0.00  0.00    +0.000 HD
ENDROOT
BRANCH   1  17
ATOM     16  C   UNL     1      -0.173  16.702  19.113  0.00  0.00    +0.000 C 
ATOM     17  O   UNL     1       0.561  15.505  18.883  0.00  0.00    +0.000 OA
ENDBRANCH   1  17
BRANCH  11  18
ATOM     18  C   UNL     1       2.839   7.869  18.179  0.00  0.00    +0.000 C 
BRANCH  18  19
ATOM     19  C   UNL     1       2.872   6.341  18.042  0.00  0.00    +0.000 C 
BRANCH  19  20
ATOM     20  C   UNL     1       4.248   5.756  17.815  0.00  0.00    +0.000 A 
ATOM     21  C   UNL     1       4.911   5.052  18.835  0.00  0.00    +0.000 A 
ATOM     22  C   UNL     1       6.189   4.519  18.628  0.00  0.00    +0.000 A 
ATOM     23  C   UNL     1       6.801   4.688  17.393  0.00  0.00    +0.000 A 
ATOM     24  C   UNL     1       6.145   5.369  16.373  0.00  0.00    +0.000 A 
ATOM     25  C   UNL     1       4.876   5.896  16.568  0.00  0.00    +0.000 A 
BRANCH  23  26
ATOM     26  O   UNL     1       8.053   4.203  17.133  0.00  0.00    +0.000 OA
ATOM     27  H   UNL     1       8.698   4.890  17.374  0.00  0.00    +0.000 HD
ENDBRANCH  23  26
BRANCH  24  28
ATOM     28  O   UNL     1       6.754   5.529  15.160  0.00  0.00    +0.000 OA
ATOM     29  H   UNL     1       7.292   6.338  15.264  0.00  0.00    +0.000 HD
ENDBRANCH  24  28
ENDBRANCH  19  20
ENDBRANCH  18  19
ENDBRANCH  11  18
TORSDOF 6
ENDMDL
MODEL 9
REMARK VINA RESULT:      -7.0      3.006      3.846
REMARK  Name = 
REMARK  7 active torsions:
REMARK  status: ('A' for Active; 'I' for Inactive)
REMARK    1  A    between atoms: C_1  and  O_2
REMARK    2  A    between atoms: O_2  and  C_3
REMARK    3  A    between atoms: N_13  and  C_14
REMARK    4  A    between atoms: C_14  and  C_15
REMARK    5  A    between atoms: C_15  and  C_16
REMARK    6  A    between atoms: C_19  and  O_20
REMARK    7  A    between atoms: C_21  and  O_22
REMARK                            x       y       z     vdW  Elec       q    Type
REMARK                         _______ _______ _______ _____ _____    ______ ____
ROOT
ATOM      1  C   UNL     1      -0.301  14.342  19.956  0.00  0.00    +0.000 A 
ATOM      2  C   UNL     1      -0.265  14.581  21.326  0.00  0.00    +0.000 A 
ATOM      3  C   UNL     1      -0.530  13.548  22.224  0.00  0.00    +0.000 A 
ATOM      4  C   UNL     1      -0.801  12.253  21.762  0.00  0.00    +0.000 A 
ATOM      5  C   UNL     1      -0.808  11.987  20.381  0.00  0.00    +0.000 A 
ATOM      6  C   UNL     1      -0.556  13.051  19.488  0.00  0.00    +0.000 A 
ATOM      7  C   UNL     1      -1.112  10.614  19.816  0.00  0.00    +0.000 C 
ATOM      8  N   UNL     1      -0.087   9.614  20.110  0.00  0.00    +0.000 N 
ATOM      9  C   UNL     1       0.841   9.328  19.118  0.00  0.00    +0.000 C 
ATOM     10  O   UNL     1       0.821   9.864  18.014  0.00  0.00    +0.000 OA
ATOM     11  N   UNL     1       1.776   8.371  19.427  0.00  0.00    +0.000 N 
ATOM     12  C   UNL     1      -0.192   8.941  21.411  0.00  0.00    +0.000 C 
ATOM     13  C   UNL     1       0.194   9.834  22.588  0.00  0.00    +0.000 C 
ATOM     14  S   UNL     1      -1.127  11.017  23.008  0.00  0.00    +0.000 S 
ATOM     15  H   UNL     1       2.045   8.277  20.392  0.00  0.00    +0.000 HD
ENDROOT
BRANCH   1  17
ATOM     16  C   UNL     1       0.644  16.497  19.824  0.00  0.00    +0.000 C 
ATOM     17  O   UNL     1      -0.027  15.426  19.170  0.00  0.00    +0.000 OA
ENDBRANCH   1  17
BRANCH  11  18
ATOM     18  C   UNL     1       2.765   7.965  18.440  0.00  0.00    +0.000 C 
BRANCH  18  19
ATOM     19  C   UNL     1       2.431   6.636  17.750  0.00  0.00    +0.000 C 
BRANCH  19  20
ATOM     20  C   UNL     1       3.129   5.427  18.332  0.00  0.00    +0.000 A 
ATOM     21  C   UNL     1       2.414   4.462  19.061  0.00  0.00    +0.000 A 
ATOM     22  C   UNL     1       3.063   3.348  19.609  0.00  0.00    +0.000 A 
ATOM     23  C   UNL     1       4.430   3.200  19.419  0.00  0.00    +0.000 A 
ATOM     24  C   UNL     1       5.142   4.142  18.684  0.00  0.00    +0.000 A 
ATOM     25  C   UNL     1       4.506   5.247  18.133  0.00  0.00    +0.000 A 
BRANCH  23  26
ATOM     26  O   UNL     1       5.123   2.142  19.939  0.00  0.00    +0.000 OA
ATOM     27  H   UNL     1       5.301   1.515  19.217  0.00  0.00    +0.000 HD
ENDBRANCH  23  26
BRANCH  24  28
ATOM     28  O   UNL     1       6.487   3.988  18.500  0.00  0.00    +0.000 OA
ATOM     29  H   UNL     1       6.801   3.582  19.333  0.00  0.00    +0.000 HD
ENDBRANCH  24  28
ENDBRANCH  19  20
ENDBRANCH  18  19
ENDBRANCH  11  18
TORSDOF 6
ENDMDL
