MODEL 1
REMARK VINA RESULT:      -7.3      0.000      0.000
REMARK  Name = 
REMARK  13 active torsions:
REMARK  status: ('A' for Active; 'I' for Inactive)
REMARK    1  A    between atoms: C_1  and  C_2
REMARK    2  A    between atoms: C_2  and  C_3
REMARK    3  A    between atoms: C_3  and  C_4
REMARK    4  A    between atoms: C_4  and  N_5
REMARK    5  A    between atoms: C_7  and  C_8
REMARK    6  A    between atoms: C_8  and  C_9
REMARK    7  A    between atoms: N_11  and  C_12
REMARK    8  A    between atoms: C_12  and  C_13
REMARK    9  A    between atoms: C_13  and  N_14
REMARK   10  A    between atoms: N_14  and  C_15
REMARK   11  A    between atoms: N_14  and  C_17
REMARK   12  A    between atoms: C_15  and  C_16
REMARK   13  A    between atoms: C_17  and  C_18
REMARK                            x       y       z     vdW  Elec       q    Type
REMARK                         _______ _______ _______ _____ _____    ______ ____
ROOT
ATOM      1  N   UNL     1       4.520   4.298  18.581  0.00  0.00    +0.000 N 
ATOM      2  N   UNL     1       5.686   4.929  18.918  0.00  0.00    +0.000 NA
ATOM      3  C   UNL     1       6.553   5.206  17.994  0.00  0.00    +0.000 A 
ATOM      4  C   UNL     1       6.366   4.839  16.575  0.00  0.00    +0.000 A 
ATOM      5  C   UNL     1       7.340   5.038  15.588  0.00  0.00    +0.000 A 
ATOM      6  C   UNL     1       7.092   4.644  14.270  0.00  0.00    +0.000 A 
ATOM      7  C   UNL     1       5.876   4.059  13.928  0.00  0.00    +0.000 A 
ATOM      8  C   UNL     1       4.901   3.866  14.907  0.00  0.00    +0.000 A 
ATOM      9  C   UNL     1       5.153   4.251  16.232  0.00  0.00    +0.000 A 
ATOM     10  C   UNL     1       4.143   4.001  17.275  0.00  0.00    +0.000 A 
ATOM     11  O   UNL     1       3.053   3.535  16.958  0.00  0.00    +0.000 OA
ENDROOT
BRANCH   1  12
ATOM     12  C   UNL     1       3.624   3.995  19.694  0.00  0.00    +0.000 C 
BRANCH  12  13
ATOM     13  C   UNL     1       2.659   5.136  20.028  0.00  0.00    +0.000 C 
BRANCH  13  15
ATOM     14  C   UNL     1       1.242   3.117  20.520  0.00  0.00    +0.000 C 
ATOM     15  C   UNL     1       1.283   4.637  20.470  0.00  0.00    +0.000 C 
ENDBRANCH  13  15
ENDBRANCH  12  13
ENDBRANCH   1  12
BRANCH   3  16
ATOM     16  C   UNL     1       7.799   5.929  18.440  0.00  0.00    +0.000 C 
BRANCH  16  17
ATOM     17  C   UNL     1       7.819   7.405  18.155  0.00  0.00    +0.000 C 
ATOM     18  O   UNL     1       7.051   7.878  17.315  0.00  0.00    +0.000 OA
ATOM     19  N   UNL     1       8.723   8.174  18.847  0.00  0.00    +0.000 N 
ATOM     20  H   UNL     1       9.165   7.820  19.683  0.00  0.00    +0.000 HD
BRANCH  19  21
ATOM     21  C   UNL     1       8.688   9.605  18.606  0.00  0.00    +0.000 C 
BRANCH  21  22
ATOM     22  C   UNL     1       9.326  10.506  19.673  0.00  0.00    +0.000 C 
BRANCH  22  23
ATOM     23  N   UNL     1       9.645  11.902  19.299  0.00  0.00    +0.000 NA
BRANCH  23  24
ATOM     24  C   UNL     1      10.512  12.590  20.275  0.00  0.00    +0.000 C 
ATOM     25  C   UNL     1      10.370  14.110  20.398  0.00  0.00    +0.000 C 
ENDBRANCH  23  24
BRANCH  23  26
ATOM     26  C   UNL     1      10.172  11.913  17.922  0.00  0.00    +0.000 C 
ATOM     27  C   UNL     1      11.692  11.901  17.820  0.00  0.00    +0.000 C 
ENDBRANCH  23  26
ENDBRANCH  22  23
ENDBRANCH  21  22
ENDBRANCH  19  21
ENDBRANCH  16  17
ENDBRANCH   3  16
TORSDOF 10
ENDMDL
MODEL 2
REMARK VINA RESULT:      -7.3      4.761      7.601
REMARK  Name = 
REMARK  13 active torsions:
REMARK  status: ('A' for Active; 'I' for Inactive)
REMARK    1  A    between atoms: C_1  and  C_2
REMARK    2  A    between atoms: C_2  and  C_3
REMARK    3  A    between atoms: C_3  and  C_4
REMARK    4  A    between atoms: C_4  and  N_5
REMARK    5  A    between atoms: C_7  and  C_8
REMARK    6  A    between atoms: C_8  and  C_9
REMARK    7  A    between atoms: N_11  and  C_12
REMARK    8  A    between atoms: C_12  and  C_13
REMARK    9  A    between atoms: C_13  and  N_14
REMARK   10  A    between atoms: N_14  and  C_15
REMARK   11  A    between atoms: N_14  and  C_17
REMARK   12  A    between atoms: C_15  and  C_16
REMARK   13  A    between atoms: C_17  and  C_18
REMARK                            x       y       z     vdW  Elec       q    Type
REMARK                         _______ _______ _______ _____ _____    ______ ____
ROOT
ATOM      1  N   UNL     1       3.747   4.454  19.140  0.00  0.00    +0.000 N 
ATOM      2  N   UNL     1       4.278   4.993  18.000  0.00  0.00    +0.000 NA
ATOM      3  C   UNL     1       3.970   6.207  17.664  0.00  0.00    +0.000 A 
ATOM      4  C   UNL     1       3.031   7.046  18.438  0.00  0.00    +0.000 A 
ATOM      5  C   UNL     1       2.610   8.318  18.028  0.00  0.00    +0.000 A 
ATOM      6  C   UNL     1       1.703   9.040  18.808  0.00  0.00    +0.000 A 
ATOM      7  C   UNL     1       1.217   8.505  19.998  0.00  0.00    +0.000 A 
ATOM      8  C   UNL     1       1.641   7.242  20.413  0.00  0.00    +0.000 A 
ATOM      9  C   UNL     1       2.542   6.512  19.625  0.00  0.00    +0.000 A 
ATOM     10  C   UNL     1       2.950   5.157  20.038  0.00  0.00    +0.000 A 
ATOM     11  O   UNL     1       2.563   4.714  21.115  0.00  0.00    +0.000 OA
ENDROOT
BRANCH   1  12
ATOM     12  C   UNL     1       4.123   3.070  19.416  0.00  0.00    +0.000 C 
BRANCH  12  13
ATOM     13  C   UNL     1       3.100   2.048  18.913  0.00  0.00    +0.000 C 
BRANCH  13  15
ATOM     14  C   UNL     1       0.643   2.560  18.768  0.00  0.00    +0.000 C 
ATOM     15  C   UNL     1       1.991   2.683  18.074  0.00  0.00    +0.000 C 
ENDBRANCH  13  15
ENDBRANCH  12  13
ENDBRANCH   1  12
BRANCH   3  16
ATOM     16  C   UNL     1       4.618   6.739  16.410  0.00  0.00    +0.000 C 
BRANCH  16  17
ATOM     17  C   UNL     1       5.670   5.850  15.808  0.00  0.00    +0.000 C 
ATOM     18  O   UNL     1       6.852   6.200  15.820  0.00  0.00    +0.000 OA
ATOM     19  N   UNL     1       5.254   4.668  15.243  0.00  0.00    +0.000 N 
ATOM     20  H   UNL     1       4.340   4.293  15.450  0.00  0.00    +0.000 HD
BRANCH  19  21
ATOM     21  C   UNL     1       6.287   3.792  14.720  0.00  0.00    +0.000 C 
BRANCH  21  22
ATOM     22  C   UNL     1       6.505   3.804  13.200  0.00  0.00    +0.000 C 
BRANCH  22  23
ATOM     23  N   UNL     1       5.657   2.917  12.372  0.00  0.00    +0.000 NA
BRANCH  23  24
ATOM     24  C   UNL     1       4.368   3.524  11.989  0.00  0.00    +0.000 C 
ATOM     25  C   UNL     1       3.776   3.128  10.633  0.00  0.00    +0.000 C 
ENDBRANCH  23  24
BRANCH  23  26
ATOM     26  C   UNL     1       6.453   2.437  11.227  0.00  0.00    +0.000 C 
ATOM     27  C   UNL     1       6.482   0.923  11.060  0.00  0.00    +0.000 C 
ENDBRANCH  23  26
ENDBRANCH  22  23
ENDBRANCH  21  22
ENDBRANCH  19  21
ENDBRANCH  16  17
ENDBRANCH   3  16
TORSDOF 10
ENDMDL
MODEL 3
REMARK VINA RESULT:      -7.0      4.431      6.140
REMARK  Name = 
REMARK  13 active torsions:
REMARK  status: ('A' for Active; 'I' for Inactive)
REMARK    1  A    between atoms: C_1  and  C_2
REMARK    2  A    between atoms: C_2  and  C_3
REMARK    3  A    between atoms: C_3  and  C_4
REMARK    4  A    between atoms: C_4  and  N_5
REMARK    5  A    between atoms: C_7  and  C_8
REMARK    6  A    between atoms: C_8  and  C_9
REMARK    7  A    between atoms: N_11  and  C_12
REMARK    8  A    between atoms: C_12  and  C_13
REMARK    9  A    between atoms: C_13  and  N_14
REMARK   10  A    between atoms: N_14  and  C_15
REMARK   11  A    between atoms: N_14  and  C_17
REMARK   12  A    between atoms: C_15  and  C_16
REMARK   13  A    between atoms: C_17  and  C_18
REMARK                            x       y       z     vdW  Elec       q    Type
REMARK                         _______ _______ _______ _____ _____    ______ ____
ROOT
ATOM      1  N   UNL     1       2.497   4.593  18.243  0.00  0.00    +0.000 N 
ATOM      2  N   UNL     1       2.391   5.954  18.156  0.00  0.00    +0.000 NA
ATOM      3  C   UNL     1       3.402   6.648  17.732  0.00  0.00    +0.000 A 
ATOM      4  C   UNL     1       4.699   6.042  17.364  0.00  0.00    +0.000 A 
ATOM      5  C   UNL     1       5.829   6.790  17.006  0.00  0.00    +0.000 A 
ATOM      6  C   UNL     1       7.026   6.142  16.691  0.00  0.00    +0.000 A 
ATOM      7  C   UNL     1       7.102   4.752  16.723  0.00  0.00    +0.000 A 
ATOM      8  C   UNL     1       5.977   4.005  17.071  0.00  0.00    +0.000 A 
ATOM      9  C   UNL     1       4.779   4.655  17.399  0.00  0.00    +0.000 A 
ATOM     10  C   UNL     1       3.604   3.867  17.816  0.00  0.00    +0.000 A 
ATOM     11  O   UNL     1       3.661   2.642  17.789  0.00  0.00    +0.000 OA
ENDROOT
BRANCH   1  12
ATOM     12  C   UNL     1       1.320   3.902  18.765  0.00  0.00    +0.000 C 
BRANCH  12  13
ATOM     13  C   UNL     1       0.997   4.262  20.218  0.00  0.00    +0.000 C 
BRANCH  13  15
ATOM     14  C   UNL     1       1.991   2.552  21.772  0.00  0.00    +0.000 C 
ATOM     15  C   UNL     1       2.146   3.943  21.177  0.00  0.00    +0.000 C 
ENDBRANCH  13  15
ENDBRANCH  12  13
ENDBRANCH   1  12
BRANCH   3  16
ATOM     16  C   UNL     1       3.197   8.139  17.637  0.00  0.00    +0.000 C 
BRANCH  16  17
ATOM     17  C   UNL     1       1.926   8.650  18.255  0.00  0.00    +0.000 C 
ATOM     18  O   UNL     1       1.005   9.038  17.534  0.00  0.00    +0.000 OA
ATOM     19  N   UNL     1       1.854   8.679  19.627  0.00  0.00    +0.000 N 
ATOM     20  H   UNL     1       2.503   8.146  20.188  0.00  0.00    +0.000 HD
BRANCH  19  21
ATOM     21  C   UNL     1       0.599   9.117  20.209  0.00  0.00    +0.000 C 
BRANCH  21  22
ATOM     22  C   UNL     1       0.510  10.586  20.647  0.00  0.00    +0.000 C 
BRANCH  22  23
ATOM     23  N   UNL     1      -0.337  11.498  19.846  0.00  0.00    +0.000 NA
BRANCH  23  24
ATOM     24  C   UNL     1       0.418  12.273  18.842  0.00  0.00    +0.000 C 
ATOM     25  C   UNL     1       1.917  12.473  19.087  0.00  0.00    +0.000 C 
ENDBRANCH  23  24
BRANCH  23  26
ATOM     26  C   UNL     1      -1.459  10.724  19.281  0.00  0.00    +0.000 C 
ATOM     27  C   UNL     1      -1.809  11.069  17.839  0.00  0.00    +0.000 C 
ENDBRANCH  23  26
ENDBRANCH  22  23
ENDBRANCH  21  22
ENDBRANCH  19  21
ENDBRANCH  16  17
ENDBRANCH   3  16
TORSDOF 10
ENDMDL
MODEL 4
REMARK VINA RESULT:      -7.0      0.737      1.420
REMARK  Name = 
REMARK  13 active torsions:
REMARK  status: ('A' for Active; 'I' for Inactive)
REMARK    1  A    between atoms: C_1  and  C_2
REMARK    2  A    between atoms: C_2  and  C_3
REMARK    3  A    between atoms: C_3  and  C_4
REMARK    4  A    between atoms: C_4  and  N_5
REMARK    5  A    between atoms: C_7  and  C_8
REMARK    6  A    between atoms: C_8  and  C_9
REMARK    7  A    between atoms: N_11  and  C_12
REMARK    8  A    between atoms: C_12  and  C_13
REMARK    9  A    between atoms: C_13  and  N_14
REMARK   10  A    between atoms: N_14  and  C_15
REMARK   11  A    between atoms: N_14  and  C_17
REMARK   12  A    between atoms: C_15  and  C_16
REMARK   13  A    between atoms: C_17  and  C_18
REMARK                            x       y       z     vdW  Elec       q    Type
REMARK                         _______ _______ _______ _____ _____    ______ ____
ROOT
ATOM      1  N   UNL     1       4.490   4.907  18.595  0.00  0.00    +0.000 N 
ATOM      2  N   UNL     1       5.678   5.520  18.885  0.00  0.00    +0.000 NA
ATOM      3  C   UNL     1       6.572   5.656  17.954  0.00  0.00    +0.000 A 
ATOM      4  C   UNL     1       6.390   5.143  16.579  0.00  0.00    +0.000 A 
ATOM      5  C   UNL     1       7.387   5.190  15.597  0.00  0.00    +0.000 A 
ATOM      6  C   UNL     1       7.143   4.665  14.325  0.00  0.00    +0.000 A 
ATOM      7  C   UNL     1       5.907   4.099  14.024  0.00  0.00    +0.000 A 
ATOM      8  C   UNL     1       4.909   4.058  14.998  0.00  0.00    +0.000 A 
ATOM      9  C   UNL     1       5.157   4.574  16.278  0.00  0.00    +0.000 A 
ATOM     10  C   UNL     1       4.120   4.485  17.322  0.00  0.00    +0.000 A 
ATOM     11  O   UNL     1       3.015   4.035  17.035  0.00  0.00    +0.000 OA
ENDROOT
BRANCH   1  12
ATOM     12  C   UNL     1       3.564   4.768  19.715  0.00  0.00    +0.000 C 
BRANCH  12  13
ATOM     13  C   UNL     1       3.435   3.330  20.226  0.00  0.00    +0.000 C 
BRANCH  13  15
ATOM     14  C   UNL     1       1.042   4.098  20.304  0.00  0.00    +0.000 C 
ATOM     15  C   UNL     1       2.011   2.981  20.661  0.00  0.00    +0.000 C 
ENDBRANCH  13  15
ENDBRANCH  12  13
ENDBRANCH   1  12
BRANCH   3  16
ATOM     16  C   UNL     1       7.842   6.368  18.344  0.00  0.00    +0.000 C 
BRANCH  16  17
ATOM     17  C   UNL     1       7.865   7.842  18.049  0.00  0.00    +0.000 C 
ATOM     18  O   UNL     1       7.179   8.295  17.130  0.00  0.00    +0.000 OA
ATOM     19  N   UNL     1       8.681   8.632  18.822  0.00  0.00    +0.000 N 
ATOM     20  H   UNL     1       9.042   8.293  19.702  0.00  0.00    +0.000 HD
BRANCH  19  21
ATOM     21  C   UNL     1       8.646  10.060  18.565  0.00  0.00    +0.000 C 
BRANCH  21  22
ATOM     22  C   UNL     1       9.973  10.731  18.180  0.00  0.00    +0.000 C 
BRANCH  22  23
ATOM     23  N   UNL     1      10.820  11.266  19.270  0.00  0.00    +0.000 NA
BRANCH  23  24
ATOM     24  C   UNL     1      11.662  12.404  18.857  0.00  0.00    +0.000 C 
ATOM     25  C   UNL     1      11.683  12.762  17.368  0.00  0.00    +0.000 C 
ENDBRANCH  23  24
BRANCH  23  26
ATOM     26  C   UNL     1       9.963  11.550  20.437  0.00  0.00    +0.000 C 
ATOM     27  C   UNL     1      10.087  12.964  20.990  0.00  0.00    +0.000 C 
ENDBRANCH  23  26
ENDBRANCH  22  23
ENDBRANCH  21  22
ENDBRANCH  19  21
ENDBRANCH  16  17
ENDBRANCH   3  16
TORSDOF 10
ENDMDL
MODEL 5
REMARK VINA RESULT:      -7.0      4.494      6.297
REMARK  Name = 
REMARK  13 active torsions:
REMARK  status: ('A' for Active; 'I' for Inactive)
REMARK    1  A    between atoms: C_1  and  C_2
REMARK    2  A    between atoms: C_2  and  C_3
REMARK    3  A    between atoms: C_3  and  C_4
REMARK    4  A    between atoms: C_4  and  N_5
REMARK    5  A    between atoms: C_7  and  C_8
REMARK    6  A    between atoms: C_8  and  C_9
REMARK    7  A    between atoms: N_11  and  C_12
REMARK    8  A    between atoms: C_12  and  C_13
REMARK    9  A    between atoms: C_13  and  N_14
REMARK   10  A    between atoms: N_14  and  C_15
REMARK   11  A    between atoms: N_14  and  C_17
REMARK   12  A    between atoms: C_15  and  C_16
REMARK   13  A    between atoms: C_17  and  C_18
REMARK                            x       y       z     vdW  Elec       q    Type
REMARK                         _______ _______ _______ _____ _____    ______ ____
ROOT
ATOM      1  N   UNL     1       2.455   4.436  18.129  0.00  0.00    +0.000 N 
ATOM      2  N   UNL     1       2.205   5.780  18.081  0.00  0.00    +0.000 NA
ATOM      3  C   UNL     1       3.168   6.599  17.790  0.00  0.00    +0.000 A 
ATOM      4  C   UNL     1       4.556   6.157  17.538  0.00  0.00    +0.000 A 
ATOM      5  C   UNL     1       5.623   7.039  17.327  0.00  0.00    +0.000 A 
ATOM      6  C   UNL     1       6.912   6.540  17.116  0.00  0.00    +0.000 A 
ATOM      7  C   UNL     1       7.142   5.167  17.106  0.00  0.00    +0.000 A 
ATOM      8  C   UNL     1       6.079   4.286  17.308  0.00  0.00    +0.000 A 
ATOM      9  C   UNL     1       4.788   4.786  17.531  0.00  0.00    +0.000 A 
ATOM     10  C   UNL     1       3.675   3.856  17.795  0.00  0.00    +0.000 A 
ATOM     11  O   UNL     1       3.873   2.647  17.731  0.00  0.00    +0.000 OA
ENDROOT
BRANCH   1  12
ATOM     12  C   UNL     1       1.318   3.598  18.501  0.00  0.00    +0.000 C 
BRANCH  12  13
ATOM     13  C   UNL     1       0.876   3.779  19.956  0.00  0.00    +0.000 C 
BRANCH  13  15
ATOM     14  C   UNL     1       2.598   2.880  21.552  0.00  0.00    +0.000 C 
ATOM     15  C   UNL     1       1.278   2.605  20.849  0.00  0.00    +0.000 C 
ENDBRANCH  13  15
ENDBRANCH  12  13
ENDBRANCH   1  12
BRANCH   3  16
ATOM     16  C   UNL     1       2.807   8.062  17.727  0.00  0.00    +0.000 C 
BRANCH  16  17
ATOM     17  C   UNL     1       1.939   8.554  18.852  0.00  0.00    +0.000 C 
ATOM     18  O   UNL     1       1.992   8.005  19.954  0.00  0.00    +0.000 OA
ATOM     19  N   UNL     1       1.095   9.606  18.589  0.00  0.00    +0.000 N 
ATOM     20  H   UNL     1       1.234  10.186  17.774  0.00  0.00    +0.000 HD
BRANCH  19  21
ATOM     21  C   UNL     1       0.309  10.110  19.700  0.00  0.00    +0.000 C 
BRANCH  21  22
ATOM     22  C   UNL     1       0.936  11.227  20.546  0.00  0.00    +0.000 C 
BRANCH  22  23
ATOM     23  N   UNL     1       0.324  11.526  21.860  0.00  0.00    +0.000 NA
BRANCH  23  24
ATOM     24  C   UNL     1      -0.324  12.850  21.921  0.00  0.00    +0.000 C 
ATOM     25  C   UNL     1       0.306  13.982  21.103  0.00  0.00    +0.000 C 
ENDBRANCH  23  24
BRANCH  23  26
ATOM     26  C   UNL     1      -0.565  10.410  22.231  0.00  0.00    +0.000 C 
ATOM     27  C   UNL     1      -0.024   9.498  23.325  0.00  0.00    +0.000 C 
ENDBRANCH  23  26
ENDBRANCH  22  23
ENDBRANCH  21  22
ENDBRANCH  19  21
ENDBRANCH  16  17
ENDBRANCH   3  16
TORSDOF 10
ENDMDL
MODEL 6
REMARK VINA RESULT:      -6.9      0.728      1.048
REMARK  Name = 
REMARK  13 active torsions:
REMARK  status: ('A' for Active; 'I' for Inactive)
REMARK    1  A    between atoms: C_1  and  C_2
REMARK    2  A    between atoms: C_2  and  C_3
REMARK    3  A    between atoms: C_3  and  C_4
REMARK    4  A    between atoms: C_4  and  N_5
REMARK    5  A    between atoms: C_7  and  C_8
REMARK    6  A    between atoms: C_8  and  C_9
REMARK    7  A    between atoms: N_11  and  C_12
REMARK    8  A    between atoms: C_12  and  C_13
REMARK    9  A    between atoms: C_13  and  N_14
REMARK   10  A    between atoms: N_14  and  C_15
REMARK   11  A    between atoms: N_14  and  C_17
REMARK   12  A    between atoms: C_15  and  C_16
REMARK   13  A    between atoms: C_17  and  C_18
REMARK                            x       y       z     vdW  Elec       q    Type
REMARK                         _______ _______ _______ _____ _____    ______ ____
ROOT
ATOM      1  N   UNL     1       4.502   4.033  18.443  0.00  0.00    +0.000 N 
ATOM      2  N   UNL     1       5.637   4.696  18.822  0.00  0.00    +0.000 NA
ATOM      3  C   UNL     1       6.502   5.049  17.922  0.00  0.00    +0.000 A 
ATOM      4  C   UNL     1       6.345   4.738  16.485  0.00  0.00    +0.000 A 
ATOM      5  C   UNL     1       7.320   5.021  15.521  0.00  0.00    +0.000 A 
ATOM      6  C   UNL     1       7.103   4.677  14.184  0.00  0.00    +0.000 A 
ATOM      7  C   UNL     1       5.917   4.057  13.801  0.00  0.00    +0.000 A 
ATOM      8  C   UNL     1       4.940   3.781  14.759  0.00  0.00    +0.000 A 
ATOM      9  C   UNL     1       5.162   4.117  16.102  0.00  0.00    +0.000 A 
ATOM     10  C   UNL     1       4.152   3.779  17.121  0.00  0.00    +0.000 A 
ATOM     11  O   UNL     1       3.085   3.283  16.770  0.00  0.00    +0.000 OA
ENDROOT
BRANCH   1  12
ATOM     12  C   UNL     1       3.608   3.644  19.530  0.00  0.00    +0.000 C 
BRANCH  12  13
ATOM     13  C   UNL     1       2.983   4.835  20.262  0.00  0.00    +0.000 C 
BRANCH  13  15
ATOM     14  C   UNL     1       2.506   7.027  19.124  0.00  0.00    +0.000 C 
ATOM     15  C   UNL     1       2.000   5.617  19.389  0.00  0.00    +0.000 C 
ENDBRANCH  13  15
ENDBRANCH  12  13
ENDBRANCH   1  12
BRANCH   3  16
ATOM     16  C   UNL     1       7.712   5.802  18.415  0.00  0.00    +0.000 C 
BRANCH  16  17
ATOM     17  C   UNL     1       7.728   7.270  18.089  0.00  0.00    +0.000 C 
ATOM     18  O   UNL     1       6.945   7.721  17.250  0.00  0.00    +0.000 OA
ATOM     19  N   UNL     1       8.646   8.056  18.743  0.00  0.00    +0.000 N 
ATOM     20  H   UNL     1       9.103   7.725  19.581  0.00  0.00    +0.000 HD
BRANCH  19  21
ATOM     21  C   UNL     1       8.608   9.479  18.464  0.00  0.00    +0.000 C 
BRANCH  21  22
ATOM     22  C   UNL     1       9.409  10.394  19.402  0.00  0.00    +0.000 C 
BRANCH  22  23
ATOM     23  N   UNL     1       9.641  11.792  18.974  0.00  0.00    +0.000 NA
BRANCH  23  24
ATOM     24  C   UNL     1      10.266  12.630  20.015  0.00  0.00    +0.000 C 
ATOM     25  C   UNL     1       9.824  12.402  21.464  0.00  0.00    +0.000 C 
ENDBRANCH  23  24
BRANCH  23  26
ATOM     26  C   UNL     1      10.380  11.777  17.698  0.00  0.00    +0.000 C 
ATOM     27  C   UNL     1      11.361  12.929  17.515  0.00  0.00    +0.000 C 
ENDBRANCH  23  26
ENDBRANCH  22  23
ENDBRANCH  21  22
ENDBRANCH  19  21
ENDBRANCH  16  17
ENDBRANCH   3  16
TORSDOF 10
ENDMDL
MODEL 7
REMARK VINA RESULT:      -6.9      4.755      6.898
REMARK  Name = 
REMARK  13 active torsions:
REMARK  status: ('A' for Active; 'I' for Inactive)
REMARK    1  A    between atoms: C_1  and  C_2
REMARK    2  A    between atoms: C_2  and  C_3
REMARK    3  A    between atoms: C_3  and  C_4
REMARK    4  A    between atoms: C_4  and  N_5
REMARK    5  A    between atoms: C_7  and  C_8
REMARK    6  A    between atoms: C_8  and  C_9
REMARK    7  A    between atoms: N_11  and  C_12
REMARK    8  A    between atoms: C_12  and  C_13
REMARK    9  A    between atoms: C_13  and  N_14
REMARK   10  A    between atoms: N_14  and  C_15
REMARK   11  A    between atoms: N_14  and  C_17
REMARK   12  A    between atoms: C_15  and  C_16
REMARK   13  A    between atoms: C_17  and  C_18
REMARK                            x       y       z     vdW  Elec       q    Type
REMARK                         _______ _______ _______ _____ _____    ______ ____
ROOT
ATOM      1  N   UNL     1       2.286   4.281  18.254  0.00  0.00    +0.000 N 
ATOM      2  N   UNL     1       2.256   5.648  18.300  0.00  0.00    +0.000 NA
ATOM      3  C   UNL     1       3.205   6.327  17.735  0.00  0.00    +0.000 A 
ATOM      4  C   UNL     1       4.359   5.696  17.061  0.00  0.00    +0.000 A 
ATOM      5  C   UNL     1       5.441   6.417  16.541  0.00  0.00    +0.000 A 
ATOM      6  C   UNL     1       6.506   5.744  15.935  0.00  0.00    +0.000 A 
ATOM      7  C   UNL     1       6.495   4.355  15.840  0.00  0.00    +0.000 A 
ATOM      8  C   UNL     1       5.415   3.634  16.351  0.00  0.00    +0.000 A 
ATOM      9  C   UNL     1       4.352   4.309  16.968  0.00  0.00    +0.000 A 
ATOM     10  C   UNL     1       3.235   3.545  17.552  0.00  0.00    +0.000 A 
ATOM     11  O   UNL     1       3.205   2.325  17.416  0.00  0.00    +0.000 OA
ENDROOT
BRANCH   1  12
ATOM     12  C   UNL     1       1.195   3.603  18.950  0.00  0.00    +0.000 C 
BRANCH  12  13
ATOM     13  C   UNL     1       0.963   4.122  20.371  0.00  0.00    +0.000 C 
BRANCH  13  15
ATOM     14  C   UNL     1       2.740   2.583  21.265  0.00  0.00    +0.000 C 
ATOM     15  C   UNL     1       1.317   3.091  21.443  0.00  0.00    +0.000 C 
ENDBRANCH  13  15
ENDBRANCH  12  13
ENDBRANCH   1  12
BRANCH   3  16
ATOM     16  C   UNL     1       3.085   7.829  17.803  0.00  0.00    +0.000 C 
BRANCH  16  17
ATOM     17  C   UNL     1       2.080   8.345  18.796  0.00  0.00    +0.000 C 
ATOM     18  O   UNL     1       2.051   7.882  19.938  0.00  0.00    +0.000 OA
ATOM     19  N   UNL     1       1.209   9.319  18.370  0.00  0.00    +0.000 N 
ATOM     20  H   UNL     1       1.398   9.846  17.529  0.00  0.00    +0.000 HD
BRANCH  19  21
ATOM     21  C   UNL     1       0.286   9.850  19.355  0.00  0.00    +0.000 C 
BRANCH  21  22
ATOM     22  C   UNL     1      -0.466  11.136  18.982  0.00  0.00    +0.000 C 
BRANCH  22  23
ATOM     23  N   UNL     1      -1.924  11.040  18.743  0.00  0.00    +0.000 NA
BRANCH  23  24
ATOM     24  C   UNL     1      -2.699  12.116  19.390  0.00  0.00    +0.000 C 
ATOM     25  C   UNL     1      -2.056  12.829  20.584  0.00  0.00    +0.000 C 
ENDBRANCH  23  24
BRANCH  23  26
ATOM     26  C   UNL     1      -2.158  10.928  17.291  0.00  0.00    +0.000 C 
ATOM     27  C   UNL     1      -3.141   9.838  16.885  0.00  0.00    +0.000 C 
ENDBRANCH  23  26
ENDBRANCH  22  23
ENDBRANCH  21  22
ENDBRANCH  19  21
ENDBRANCH  16  17
ENDBRANCH   3  16
TORSDOF 10
ENDMDL
MODEL 8
REMARK VINA RESULT:      -6.9      4.681      6.285
REMARK  Name = 
REMARK  13 active torsions:
REMARK  status: ('A' for Active; 'I' for Inactive)
REMARK    1  A    between atoms: C_1  and  C_2
REMARK    2  A    between atoms: C_2  and  C_3
REMARK    3  A    between atoms: C_3  and  C_4
REMARK    4  A    between atoms: C_4  and  N_5
REMARK    5  A    between atoms: C_7  and  C_8
REMARK    6  A    between atoms: C_8  and  C_9
REMARK    7  A    between atoms: N_11  and  C_12
REMARK    8  A    between atoms: C_12  and  C_13
REMARK    9  A    between atoms: C_13  and  N_14
REMARK   10  A    between atoms: N_14  and  C_15
REMARK   11  A    between atoms: N_14  and  C_17
REMARK   12  A    between atoms: C_15  and  C_16
REMARK   13  A    between atoms: C_17  and  C_18
REMARK                            x       y       z     vdW  Elec       q    Type
REMARK                         _______ _______ _______ _____ _____    ______ ____
ROOT
ATOM      1  N   UNL     1       2.115   4.405  18.224  0.00  0.00    +0.000 N 
ATOM      2  N   UNL     1       2.099   5.770  18.309  0.00  0.00    +0.000 NA
ATOM      3  C   UNL     1       3.094   6.452  17.830  0.00  0.00    +0.000 A 
ATOM      4  C   UNL     1       4.283   5.823  17.218  0.00  0.00    +0.000 A 
ATOM      5  C   UNL     1       5.407   6.543  16.793  0.00  0.00    +0.000 A 
ATOM      6  C   UNL     1       6.501   5.871  16.242  0.00  0.00    +0.000 A 
ATOM      7  C   UNL     1       6.479   4.485  16.104  0.00  0.00    +0.000 A 
ATOM      8  C   UNL     1       5.357   3.767  16.519  0.00  0.00    +0.000 A 
ATOM      9  C   UNL     1       4.264   4.439  17.082  0.00  0.00    +0.000 A 
ATOM     10  C   UNL     1       3.100   3.675  17.567  0.00  0.00    +0.000 A 
ATOM     11  O   UNL     1       3.063   2.461  17.393  0.00  0.00    +0.000 OA
ENDROOT
BRANCH   1  12
ATOM     12  C   UNL     1       0.970   3.724  18.824  0.00  0.00    +0.000 C 
BRANCH  12  13
ATOM     13  C   UNL     1       0.811   4.001  20.322  0.00  0.00    +0.000 C 
BRANCH  13  15
ATOM     14  C   UNL     1       2.641   2.819  21.578  0.00  0.00    +0.000 C 
ATOM     15  C   UNL     1       2.151   4.156  21.041  0.00  0.00    +0.000 C 
ENDBRANCH  13  15
ENDBRANCH  12  13
ENDBRANCH   1  12
BRANCH   3  16
ATOM     16  C   UNL     1       2.989   7.953  17.935  0.00  0.00    +0.000 C 
BRANCH  16  17
ATOM     17  C   UNL     1       1.859   8.456  18.790  0.00  0.00    +0.000 C 
ATOM     18  O   UNL     1       1.023   9.227  18.312  0.00  0.00    +0.000 OA
ATOM     19  N   UNL     1       1.818   8.039  20.098  0.00  0.00    +0.000 N 
ATOM     20  H   UNL     1       2.355   7.239  20.400  0.00  0.00    +0.000 HD
BRANCH  19  21
ATOM     21  C   UNL     1       0.688   8.484  20.894  0.00  0.00    +0.000 C 
BRANCH  21  22
ATOM     22  C   UNL     1       0.789   9.879  21.526  0.00  0.00    +0.000 C 
BRANCH  22  23
ATOM     23  N   UNL     1      -0.404  10.753  21.470  0.00  0.00    +0.000 NA
BRANCH  23  24
ATOM     24  C   UNL     1      -0.826  11.261  22.789  0.00  0.00    +0.000 C 
ATOM     25  C   UNL     1      -2.174  11.982  22.870  0.00  0.00    +0.000 C 
ENDBRANCH  23  24
BRANCH  23  26
ATOM     26  C   UNL     1      -0.166  11.813  20.472  0.00  0.00    +0.000 C 
ATOM     27  C   UNL     1       1.130  12.590  20.663  0.00  0.00    +0.000 C 
ENDBRANCH  23  26
ENDBRANCH  22  23
ENDBRANCH  21  22
ENDBRANCH  19  21
ENDBRANCH  16  17
ENDBRANCH   3  16
TORSDOF 10
ENDMDL
MODEL 9
REMARK VINA RESULT:      -6.9      4.910      6.785
REMARK  Name = 
REMARK  13 active torsions:
REMARK  status: ('A' for Active; 'I' for Inactive)
REMARK    1  A    between atoms: C_1  and  C_2
REMARK    2  A    between atoms: C_2  and  C_3
REMARK    3  A    between atoms: C_3  and  C_4
REMARK    4  A    between atoms: C_4  and  N_5
REMARK    5  A    between atoms: C_7  and  C_8
REMARK    6  A    between atoms: C_8  and  C_9
REMARK    7  A    between atoms: N_11  and  C_12
REMARK    8  A    between atoms: C_12  and  C_13
REMARK    9  A    between atoms: C_13  and  N_14
REMARK   10  A    between atoms: N_14  and  C_15
REMARK   11  A    between atoms: N_14  and  C_17
REMARK   12  A    between atoms: C_15  and  C_16
REMARK   13  A    between atoms: C_17  and  C_18
REMARK                            x       y       z     vdW  Elec       q    Type
REMARK                         _______ _______ _______ _____ _____    ______ ____
ROOT
ATOM      1  N   UNL     1       2.750   4.467  18.435  0.00  0.00    +0.000 N 
ATOM      2  N   UNL     1       2.438   5.741  18.046  0.00  0.00    +0.000 NA
ATOM      3  C   UNL     1       3.384   6.540  17.659  0.00  0.00    +0.000 A 
ATOM      4  C   UNL     1       4.811   6.158  17.649  0.00  0.00    +0.000 A 
ATOM      5  C   UNL     1       5.849   7.045  17.335  0.00  0.00    +0.000 A 
ATOM      6  C   UNL     1       7.176   6.610  17.369  0.00  0.00    +0.000 A 
ATOM      7  C   UNL     1       7.476   5.293  17.707  0.00  0.00    +0.000 A 
ATOM      8  C   UNL     1       6.444   4.406  18.013  0.00  0.00    +0.000 A 
ATOM      9  C   UNL     1       5.113   4.844  17.991  0.00  0.00    +0.000 A 
ATOM     10  C   UNL     1       4.027   3.920  18.363  0.00  0.00    +0.000 A 
ATOM     11  O   UNL     1       4.293   2.746  18.607  0.00  0.00    +0.000 OA
ENDROOT
BRANCH   1  12
ATOM     12  C   UNL     1       1.624   3.654  18.889  0.00  0.00    +0.000 C 
BRANCH  12  13
ATOM     13  C   UNL     1       1.046   4.108  20.232  0.00  0.00    +0.000 C 
BRANCH  13  15
ATOM     14  C   UNL     1       2.411   2.524  21.630  0.00  0.00    +0.000 C 
ATOM     15  C   UNL     1       2.047   3.980  21.381  0.00  0.00    +0.000 C 
ENDBRANCH  13  15
ENDBRANCH  12  13
ENDBRANCH   1  12
BRANCH   3  16
ATOM     16  C   UNL     1       2.956   7.917  17.217  0.00  0.00    +0.000 C 
BRANCH  16  17
ATOM     17  C   UNL     1       2.164   8.697  18.230  0.00  0.00    +0.000 C 
ATOM     18  O   UNL     1       1.981   8.231  19.357  0.00  0.00    +0.000 OA
ATOM     19  N   UNL     1       1.654   9.911  17.840  0.00  0.00    +0.000 N 
ATOM     20  H   UNL     1       2.007  10.376  17.016  0.00  0.00    +0.000 HD
BRANCH  19  21
ATOM     21  C   UNL     1       0.944  10.679  18.846  0.00  0.00    +0.000 C 
BRANCH  21  22
ATOM     22  C   UNL     1      -0.590  10.666  18.777  0.00  0.00    +0.000 C 
BRANCH  22  23
ATOM     23  N   UNL     1      -1.264  11.819  18.138  0.00  0.00    +0.000 NA
BRANCH  23  24
ATOM     24  C   UNL     1      -2.602  11.498  17.605  0.00  0.00    +0.000 C 
ATOM     25  C   UNL     1      -2.681  10.958  16.174  0.00  0.00    +0.000 C 
ENDBRANCH  23  24
BRANCH  23  26
ATOM     26  C   UNL     1      -1.254  12.953  19.080  0.00  0.00    +0.000 C 
ATOM     27  C   UNL     1      -0.308  14.087  18.705  0.00  0.00    +0.000 C 
ENDBRANCH  23  26
ENDBRANCH  22  23
ENDBRANCH  21  22
ENDBRANCH  19  21
ENDBRANCH  16  17
ENDBRANCH   3  16
TORSDOF 10
ENDMDL
