MODEL 1
REMARK VINA RESULT:      -9.5      0.000      0.000
REMARK  Name = 
REMARK  7 active torsions:
REMARK  status: ('A' for Active; 'I' for Inactive)
REMARK    1  A    between atoms: N_1  and  CA_2
REMARK    2  A    between atoms: CA_2  and  C_3
REMARK    3  A    between atoms: CA_2  and  C_26
REMARK    4  A    between atoms: C_3  and  C_4
REMARK    5  A    between atoms: C_5  and  C_6
REMARK    6  A    between atoms: C_5  and  C_18
REMARK    7  A    between atoms: C_10  and  C_11
REMARK                            x       y       z     vdW  Elec       q    Type
REMARK                         _______ _______ _______ _____ _____    ______ ____
ROOT
ATOM      1  C   UNL     1       2.250   4.476  17.964  0.00  0.00    +0.000 C 
ATOM      2  C   UNL     1       3.078   5.528  18.134  0.00  0.00    +0.000 C 
ENDROOT
BRANCH   2   3
ATOM      3  C   UNL     1       2.478   6.791  18.609  0.00  0.00    +0.000 A 
ATOM      4  C   UNL     1       2.365   7.880  17.730  0.00  0.00    +0.000 A 
ATOM      5  C   UNL     1       1.843   9.093  18.183  0.00  0.00    +0.000 A 
ATOM      6  C   UNL     1       1.429   9.209  19.506  0.00  0.00    +0.000 A 
ATOM      7  F   UNL     1       0.938  10.376  19.938  0.00  0.00    +0.000 F 
ATOM      8  C   UNL     1       1.522   8.137  20.387  0.00  0.00    +0.000 A 
ATOM      9  C   UNL     1       2.049   6.936  19.933  0.00  0.00    +0.000 A 
ATOM     10  F   UNL     1       2.141   5.913  20.796  0.00  0.00    +0.000 F 
ENDBRANCH   2   3
BRANCH   2  11
ATOM     11  C   UNL     1       4.501   5.445  17.756  0.00  0.00    +0.000 A 
ATOM     12  C   UNL     1       5.513   5.656  18.690  0.00  0.00    +0.000 A 
ATOM     13  C   UNL     1       6.845   5.585  18.287  0.00  0.00    +0.000 A 
ATOM     14  C   UNL     1       7.164   5.291  16.955  0.00  0.00    +0.000 A 
ATOM     15  C   UNL     1       6.165   5.069  15.989  0.00  0.00    +0.000 A 
ATOM     16  C   UNL     1       4.832   5.164  16.422  0.00  0.00    +0.000 A 
BRANCH  15  17
ATOM     17  C   UNL     1       6.486   4.740  14.579  0.00  0.00    +0.000 A 
ATOM     18  C   UNL     1       5.749   3.771  13.869  0.00  0.00    +0.000 A 
ATOM     19  C   UNL     1       6.035   3.464  12.535  0.00  0.00    +0.000 A 
ATOM     20  C   UNL     1       7.080   4.110  11.882  0.00  0.00    +0.000 A 
ATOM     21  C   UNL     1       7.827   5.067  12.558  0.00  0.00    +0.000 A 
ATOM     22  C   UNL     1       7.528   5.382  13.888  0.00  0.00    +0.000 A 
ENDBRANCH  15  17
ENDBRANCH   2  11
BRANCH   1  23
ATOM     23  C   UNL     1       2.638   3.101  17.468  0.00  0.00    +0.000 C 
BRANCH  23  24
ATOM     24  CA  UNL     1       2.754   2.023  18.558  0.00  0.00    +0.000 C 
BRANCH  24  25
ATOM     25  N   UNL     1       1.403   1.448  18.974  0.00  0.00    +0.000 NA
ATOM     26  H1  UNL     1       1.509   1.178  19.959  0.00  0.00    +0.000 HD
ATOM     27  H2  UNL     1       1.356   0.542  18.487  0.00  0.00    +0.000 HD
ENDBRANCH  24  25
BRANCH  24  28
ATOM     28  C   UNL     1       3.579   2.449  19.832  0.00  0.00    +0.000 C 
ATOM     29  O   UNL     1       2.835   2.652  20.854  0.00  0.00    +0.000 OA
ATOM     30  OXT UNL     1       4.824   2.477  19.738  0.00  0.00    +0.000 OA
ENDBRANCH  24  28
ENDBRANCH  23  24
ENDBRANCH   1  23
TORSDOF 7
ENDMDL
MODEL 2
REMARK VINA RESULT:      -9.2      0.874      1.413
REMARK  Name = 
REMARK  7 active torsions:
REMARK  status: ('A' for Active; 'I' for Inactive)
REMARK    1  A    between atoms: N_1  and  CA_2
REMARK    2  A    between atoms: CA_2  and  C_3
REMARK    3  A    between atoms: CA_2  and  C_26
REMARK    4  A    between atoms: C_3  and  C_4
REMARK    5  A    between atoms: C_5  and  C_6
REMARK    6  A    between atoms: C_5  and  C_18
REMARK    7  A    between atoms: C_10  and  C_11
REMARK                            x       y       z     vdW  Elec       q    Type
REMARK                         _______ _______ _______ _____ _____    ______ ____
ROOT
ATOM      1  C   UNL     1       2.361   4.493  18.084  0.00  0.00    +0.000 C 
ATOM      2  C   UNL     1       3.196   5.539  18.258  0.00  0.00    +0.000 C 
ENDROOT
BRANCH   2   3
ATOM      3  C   UNL     1       2.609   6.794  18.770  0.00  0.00    +0.000 A 
ATOM      4  C   UNL     1       2.095   6.838  20.076  0.00  0.00    +0.000 A 
ATOM      5  C   UNL     1       1.496   8.004  20.553  0.00  0.00    +0.000 A 
ATOM      6  C   UNL     1       1.421   9.122  19.728  0.00  0.00    +0.000 A 
ATOM      7  F   UNL     1       0.838  10.236  20.187  0.00  0.00    +0.000 F 
ATOM      8  C   UNL     1       1.936   9.101  18.437  0.00  0.00    +0.000 A 
ATOM      9  C   UNL     1       2.525   7.935  17.965  0.00  0.00    +0.000 A 
ATOM     10  F   UNL     1       3.009   7.925  16.715  0.00  0.00    +0.000 F 
ENDBRANCH   2   3
BRANCH   2  11
ATOM     11  C   UNL     1       4.610   5.460  17.847  0.00  0.00    +0.000 A 
ATOM     12  C   UNL     1       5.642   5.674  18.758  0.00  0.00    +0.000 A 
ATOM     13  C   UNL     1       6.965   5.608  18.324  0.00  0.00    +0.000 A 
ATOM     14  C   UNL     1       7.254   5.314  16.986  0.00  0.00    +0.000 A 
ATOM     15  C   UNL     1       6.234   5.090  16.043  0.00  0.00    +0.000 A 
ATOM     16  C   UNL     1       4.911   5.180  16.506  0.00  0.00    +0.000 A 
BRANCH  15  17
ATOM     17  C   UNL     1       6.524   4.762  14.626  0.00  0.00    +0.000 A 
ATOM     18  C   UNL     1       5.778   3.784  13.935  0.00  0.00    +0.000 A 
ATOM     19  C   UNL     1       6.036   3.478  12.595  0.00  0.00    +0.000 A 
ATOM     20  C   UNL     1       7.058   4.132  11.916  0.00  0.00    +0.000 A 
ATOM     21  C   UNL     1       7.812   5.098  12.572  0.00  0.00    +0.000 A 
ATOM     22  C   UNL     1       7.542   5.412  13.909  0.00  0.00    +0.000 A 
ENDBRANCH  15  17
ENDBRANCH   2  11
BRANCH   1  23
ATOM     23  C   UNL     1       2.735   3.126  17.554  0.00  0.00    +0.000 C 
BRANCH  23  24
ATOM     24  CA  UNL     1       2.800   2.011  18.610  0.00  0.00    +0.000 C 
BRANCH  24  25
ATOM     25  N   UNL     1       1.429   1.435  18.953  0.00  0.00    +0.000 NA
ATOM     26  H1  UNL     1       0.943   2.172  19.477  0.00  0.00    +0.000 HD
ATOM     27  H2  UNL     1       1.628   0.728  19.674  0.00  0.00    +0.000 HD
ENDBRANCH  24  25
BRANCH  24  28
ATOM     28  C   UNL     1       3.577   2.386  19.929  0.00  0.00    +0.000 C 
ATOM     29  O   UNL     1       4.843   2.451  19.752  0.00  0.00    +0.000 OA
ATOM     30  OXT UNL     1       2.904   2.637  20.950  0.00  0.00    +0.000 OA
ENDBRANCH  24  28
ENDBRANCH  23  24
ENDBRANCH   1  23
TORSDOF 7
ENDMDL
MODEL 3
REMARK VINA RESULT:      -9.1      0.670      1.252
REMARK  Name = 
REMARK  7 active torsions:
REMARK  status: ('A' for Active; 'I' for Inactive)
REMARK    1  A    between atoms: N_1  and  CA_2
REMARK    2  A    between atoms: CA_2  and  C_3
REMARK    3  A    between atoms: CA_2  and  C_26
REMARK    4  A    between atoms: C_3  and  C_4
REMARK    5  A    between atoms: C_5  and  C_6
REMARK    6  A    between atoms: C_5  and  C_18
REMARK    7  A    between atoms: C_10  and  C_11
REMARK                            x       y       z     vdW  Elec       q    Type
REMARK                         _______ _______ _______ _____ _____    ______ ____
ROOT
ATOM      1  C   UNL     1       2.226   4.591  18.018  0.00  0.00    +0.000 C 
ATOM      2  C   UNL     1       3.075   5.635  18.115  0.00  0.00    +0.000 C 
ENDROOT
BRANCH   2   3
ATOM      3  C   UNL     1       2.501   6.941  18.498  0.00  0.00    +0.000 A 
ATOM      4  C   UNL     1       2.443   7.978  17.554  0.00  0.00    +0.000 A 
ATOM      5  C   UNL     1       1.947   9.230  17.921  0.00  0.00    +0.000 A 
ATOM      6  C   UNL     1       1.502   9.436  19.222  0.00  0.00    +0.000 A 
ATOM      7  F   UNL     1       1.035  10.640  19.571  0.00  0.00    +0.000 F 
ATOM      8  C   UNL     1       1.540   8.416  20.167  0.00  0.00    +0.000 A 
ATOM      9  C   UNL     1       2.041   7.175  19.799  0.00  0.00    +0.000 A 
ATOM     10  F   UNL     1       2.081   6.203  20.722  0.00  0.00    +0.000 F 
ENDBRANCH   2   3
BRANCH   2  11
ATOM     11  C   UNL     1       4.496   5.496  17.746  0.00  0.00    +0.000 A 
ATOM     12  C   UNL     1       5.509   5.656  18.688  0.00  0.00    +0.000 A 
ATOM     13  C   UNL     1       6.840   5.534  18.293  0.00  0.00    +0.000 A 
ATOM     14  C   UNL     1       7.156   5.239  16.961  0.00  0.00    +0.000 A 
ATOM     15  C   UNL     1       6.156   5.068  15.986  0.00  0.00    +0.000 A 
ATOM     16  C   UNL     1       4.825   5.214  16.411  0.00  0.00    +0.000 A 
BRANCH  15  17
ATOM     17  C   UNL     1       6.473   4.739  14.575  0.00  0.00    +0.000 A 
ATOM     18  C   UNL     1       7.523   5.386  13.892  0.00  0.00    +0.000 A 
ATOM     19  C   UNL     1       7.837   5.073  12.566  0.00  0.00    +0.000 A 
ATOM     20  C   UNL     1       7.097   4.113  11.884  0.00  0.00    +0.000 A 
ATOM     21  C   UNL     1       6.054   3.462  12.530  0.00  0.00    +0.000 A 
ATOM     22  C   UNL     1       5.751   3.768  13.862  0.00  0.00    +0.000 A 
ENDBRANCH  15  17
ENDBRANCH   2  11
BRANCH   1  23
ATOM     23  C   UNL     1       2.586   3.176  17.622  0.00  0.00    +0.000 C 
BRANCH  23  24
ATOM     24  CA  UNL     1       3.357   2.376  18.684  0.00  0.00    +0.000 C 
BRANCH  24  25
ATOM     25  N   UNL     1       3.731   0.972  18.218  0.00  0.00    +0.000 NA
ATOM     26  H1  UNL     1       4.742   1.000  18.040  0.00  0.00    +0.000 HD
ATOM     27  H2  UNL     1       3.329   0.907  17.272  0.00  0.00    +0.000 HD
ENDBRANCH  24  25
BRANCH  24  28
ATOM     28  C   UNL     1       2.667   2.311  20.101  0.00  0.00    +0.000 C 
ATOM     29  O   UNL     1       3.486   2.544  21.057  0.00  0.00    +0.000 OA
ATOM     30  OXT UNL     1       1.434   2.117  20.140  0.00  0.00    +0.000 OA
ENDBRANCH  24  28
ENDBRANCH  23  24
ENDBRANCH   1  23
TORSDOF 7
ENDMDL
MODEL 4
REMARK VINA RESULT:      -8.9      3.296      7.801
REMARK  Name = 
REMARK  7 active torsions:
REMARK  status: ('A' for Active; 'I' for Inactive)
REMARK    1  A    between atoms: N_1  and  CA_2
REMARK    2  A    between atoms: CA_2  and  C_3
REMARK    3  A    between atoms: CA_2  and  C_26
REMARK    4  A    between atoms: C_3  and  C_4
REMARK    5  A    between atoms: C_5  and  C_6
REMARK    6  A    between atoms: C_5  and  C_18
REMARK    7  A    between atoms: C_10  and  C_11
REMARK                            x       y       z     vdW  Elec       q    Type
REMARK                         _______ _______ _______ _____ _____    ______ ____
ROOT
ATOM      1  C   UNL     1       4.224   5.843  18.193  0.00  0.00    +0.000 C 
ATOM      2  C   UNL     1       3.099   6.151  18.872  0.00  0.00    +0.000 C 
ENDROOT
BRANCH   2   3
ATOM      3  C   UNL     1       2.463   5.069  19.651  0.00  0.00    +0.000 A 
ATOM      4  C   UNL     1       2.824   4.876  20.994  0.00  0.00    +0.000 A 
ATOM      5  C   UNL     1       2.263   3.827  21.724  0.00  0.00    +0.000 A 
ATOM      6  C   UNL     1       1.341   2.985  21.114  0.00  0.00    +0.000 A 
ATOM      7  F   UNL     1       0.812   1.975  21.816  0.00  0.00    +0.000 F 
ATOM      8  C   UNL     1       0.962   3.169  19.789  0.00  0.00    +0.000 A 
ATOM      9  C   UNL     1       1.528   4.209  19.065  0.00  0.00    +0.000 A 
ATOM     10  F   UNL     1       1.160   4.371  17.785  0.00  0.00    +0.000 F 
ENDBRANCH   2   3
BRANCH   2  11
ATOM     11  C   UNL     1       2.477   7.482  18.750  0.00  0.00    +0.000 A 
ATOM     12  C   UNL     1       2.596   8.233  17.583  0.00  0.00    +0.000 A 
ATOM     13  C   UNL     1       2.007   9.495  17.515  0.00  0.00    +0.000 A 
ATOM     14  C   UNL     1       1.289   9.997  18.608  0.00  0.00    +0.000 A 
ATOM     15  C   UNL     1       1.147   9.261  19.799  0.00  0.00    +0.000 A 
ATOM     16  C   UNL     1       1.766   8.000  19.842  0.00  0.00    +0.000 A 
BRANCH  15  17
ATOM     17  C   UNL     1       0.377   9.771  20.959  0.00  0.00    +0.000 A 
ATOM     18  C   UNL     1       0.234   9.007  22.135  0.00  0.00    +0.000 A 
ATOM     19  C   UNL     1      -0.480   9.485  23.238  0.00  0.00    +0.000 A 
ATOM     20  C   UNL     1      -1.083  10.737  23.187  0.00  0.00    +0.000 A 
ATOM     21  C   UNL     1      -0.962  11.512  22.039  0.00  0.00    +0.000 A 
ATOM     22  C   UNL     1      -0.236  11.035  20.942  0.00  0.00    +0.000 A 
ENDBRANCH  15  17
ENDBRANCH   2  11
BRANCH   1  23
ATOM     23  C   UNL     1       5.027   6.779  17.317  0.00  0.00    +0.000 C 
BRANCH  23  24
ATOM     24  CA  UNL     1       6.535   6.486  17.258  0.00  0.00    +0.000 C 
BRANCH  24  25
ATOM     25  N   UNL     1       7.384   7.750  17.155  0.00  0.00    +0.000 NA
ATOM     26  H1  UNL     1       7.961   7.628  16.314  0.00  0.00    +0.000 HD
ATOM     27  H2  UNL     1       8.066   7.657  17.921  0.00  0.00    +0.000 HD
ENDBRANCH  24  25
BRANCH  24  28
ATOM     28  C   UNL     1       6.970   5.449  16.153  0.00  0.00    +0.000 C 
ATOM     29  O   UNL     1       7.781   4.565  16.601  0.00  0.00    +0.000 OA
ATOM     30  OXT UNL     1       6.449   5.549  15.023  0.00  0.00    +0.000 OA
ENDBRANCH  24  28
ENDBRANCH  23  24
ENDBRANCH   1  23
TORSDOF 7
ENDMDL
MODEL 5
REMARK VINA RESULT:      -8.8      3.311      7.856
REMARK  Name = 
REMARK  7 active torsions:
REMARK  status: ('A' for Active; 'I' for Inactive)
REMARK    1  A    between atoms: N_1  and  CA_2
REMARK    2  A    between atoms: CA_2  and  C_3
REMARK    3  A    between atoms: CA_2  and  C_26
REMARK    4  A    between atoms: C_3  and  C_4
REMARK    5  A    between atoms: C_5  and  C_6
REMARK    6  A    between atoms: C_5  and  C_18
REMARK    7  A    between atoms: C_10  and  C_11
REMARK                            x       y       z     vdW  Elec       q    Type
REMARK                         _______ _______ _______ _____ _____    ______ ____
ROOT
ATOM      1  C   UNL     1       4.182   5.873  18.268  0.00  0.00    +0.000 C 
ATOM      2  C   UNL     1       3.042   6.162  18.930  0.00  0.00    +0.000 C 
ENDROOT
BRANCH   2   3
ATOM      3  C   UNL     1       2.414   5.072  19.703  0.00  0.00    +0.000 A 
ATOM      4  C   UNL     1       2.781   4.871  21.043  0.00  0.00    +0.000 A 
ATOM      5  C   UNL     1       2.228   3.814  21.768  0.00  0.00    +0.000 A 
ATOM      6  C   UNL     1       1.307   2.971  21.155  0.00  0.00    +0.000 A 
ATOM      7  F   UNL     1       0.787   1.954  21.852  0.00  0.00    +0.000 F 
ATOM      8  C   UNL     1       0.923   3.163  19.833  0.00  0.00    +0.000 A 
ATOM      9  C   UNL     1       1.481   4.212  19.114  0.00  0.00    +0.000 A 
ATOM     10  F   UNL     1       1.108   4.380  17.837  0.00  0.00    +0.000 F 
ENDBRANCH   2   3
BRANCH   2  11
ATOM     11  C   UNL     1       2.397   7.482  18.793  0.00  0.00    +0.000 A 
ATOM     12  C   UNL     1       2.482   8.211  17.610  0.00  0.00    +0.000 A 
ATOM     13  C   UNL     1       1.873   9.462  17.529  0.00  0.00    +0.000 A 
ATOM     14  C   UNL     1       1.169   9.975  18.625  0.00  0.00    +0.000 A 
ATOM     15  C   UNL     1       1.062   9.261  19.833  0.00  0.00    +0.000 A 
ATOM     16  C   UNL     1       1.700   8.011  19.889  0.00  0.00    +0.000 A 
BRANCH  15  17
ATOM     17  C   UNL     1       0.306   9.783  20.997  0.00  0.00    +0.000 A 
ATOM     18  C   UNL     1      -0.466  10.959  20.900  0.00  0.00    +0.000 A 
ATOM     19  C   UNL     1      -1.193  11.451  21.989  0.00  0.00    +0.000 A 
ATOM     20  C   UNL     1      -1.152  10.787  23.210  0.00  0.00    +0.000 A 
ATOM     21  C   UNL     1      -0.396   9.627  23.336  0.00  0.00    +0.000 A 
ATOM     22  C   UNL     1       0.318   9.130  22.241  0.00  0.00    +0.000 A 
ENDBRANCH  15  17
ENDBRANCH   2  11
BRANCH   1  23
ATOM     23  C   UNL     1       4.981   6.820  17.401  0.00  0.00    +0.000 C 
BRANCH  23  24
ATOM     24  CA  UNL     1       6.457   6.438  17.202  0.00  0.00    +0.000 C 
BRANCH  24  25
ATOM     25  N   UNL     1       7.387   7.647  17.172  0.00  0.00    +0.000 NA
ATOM     26  H1  UNL     1       6.965   8.304  16.506  0.00  0.00    +0.000 HD
ATOM     27  H2  UNL     1       8.221   7.309  16.672  0.00  0.00    +0.000 HD
ENDBRANCH  24  25
BRANCH  24  28
ATOM     28  C   UNL     1       6.742   5.503  15.966  0.00  0.00    +0.000 C 
ATOM     29  O   UNL     1       5.961   5.740  14.979  0.00  0.00    +0.000 OA
ATOM     30  OXT UNL     1       7.703   4.709  16.046  0.00  0.00    +0.000 OA
ENDBRANCH  24  28
ENDBRANCH  23  24
ENDBRANCH   1  23
TORSDOF 7
ENDMDL
MODEL 6
REMARK VINA RESULT:      -8.8      3.522      7.672
REMARK  Name = 
REMARK  7 active torsions:
REMARK  status: ('A' for Active; 'I' for Inactive)
REMARK    1  A    between atoms: N_1  and  CA_2
REMARK    2  A    between atoms: CA_2  and  C_3
REMARK    3  A    between atoms: CA_2  and  C_26
REMARK    4  A    between atoms: C_3  and  C_4
REMARK    5  A    between atoms: C_5  and  C_6
REMARK    6  A    between atoms: C_5  and  C_18
REMARK    7  A    between atoms: C_10  and  C_11
REMARK                            x       y       z     vdW  Elec       q    Type
REMARK                         _______ _______ _______ _____ _____    ______ ____
ROOT
ATOM      1  C   UNL     1       4.335   5.723  18.366  0.00  0.00    +0.000 C 
ATOM      2  C   UNL     1       3.172   6.017  18.985  0.00  0.00    +0.000 C 
ENDROOT
BRANCH   2   3
ATOM      3  C   UNL     1       2.515   4.931  19.741  0.00  0.00    +0.000 A 
ATOM      4  C   UNL     1       2.916   4.662  21.059  0.00  0.00    +0.000 A 
ATOM      5  C   UNL     1       2.334   3.607  21.765  0.00  0.00    +0.000 A 
ATOM      6  C   UNL     1       1.351   2.835  21.155  0.00  0.00    +0.000 A 
ATOM      7  F   UNL     1       0.803   1.820  21.833  0.00  0.00    +0.000 F 
ATOM      8  C   UNL     1       0.933   3.096  19.855  0.00  0.00    +0.000 A 
ATOM      9  C   UNL     1       1.520   4.141  19.155  0.00  0.00    +0.000 A 
ATOM     10  F   UNL     1       1.114   4.376  17.899  0.00  0.00    +0.000 F 
ENDBRANCH   2   3
BRANCH   2  11
ATOM     11  C   UNL     1       2.535   7.336  18.819  0.00  0.00    +0.000 A 
ATOM     12  C   UNL     1       2.624   8.038  17.619  0.00  0.00    +0.000 A 
ATOM     13  C   UNL     1       2.021   9.290  17.510  0.00  0.00    +0.000 A 
ATOM     14  C   UNL     1       1.319   9.832  18.594  0.00  0.00    +0.000 A 
ATOM     15  C   UNL     1       1.208   9.146  19.818  0.00  0.00    +0.000 A 
ATOM     16  C   UNL     1       1.840   7.894  19.902  0.00  0.00    +0.000 A 
BRANCH  15  17
ATOM     17  C   UNL     1       0.455   9.698  20.970  0.00  0.00    +0.000 A 
ATOM     18  C   UNL     1      -0.279  10.896  20.856  0.00  0.00    +0.000 A 
ATOM     19  C   UNL     1      -1.004  11.417  21.933  0.00  0.00    +0.000 A 
ATOM     20  C   UNL     1      -0.999  10.759  23.158  0.00  0.00    +0.000 A 
ATOM     21  C   UNL     1      -0.281   9.577  23.301  0.00  0.00    +0.000 A 
ATOM     22  C   UNL     1       0.431   9.051  22.217  0.00  0.00    +0.000 A 
ENDBRANCH  15  17
ENDBRANCH   2  11
BRANCH   1  23
ATOM     23  C   UNL     1       5.166   6.665  17.524  0.00  0.00    +0.000 C 
BRANCH  23  24
ATOM     24  CA  UNL     1       6.686   6.451  17.611  0.00  0.00    +0.000 C 
BRANCH  24  25
ATOM     25  N   UNL     1       7.339   6.255  16.246  0.00  0.00    +0.000 NA
ATOM     26  H1  UNL     1       6.757   6.780  15.582  0.00  0.00    +0.000 HD
ATOM     27  H2  UNL     1       7.136   5.274  16.009  0.00  0.00    +0.000 HD
ENDBRANCH  24  25
BRANCH  24  28
ATOM     28  C   UNL     1       7.144   5.312  18.600  0.00  0.00    +0.000 C 
ATOM     29  O   UNL     1       7.649   4.305  17.990  0.00  0.00    +0.000 OA
ATOM     30  OXT UNL     1       7.035   5.526  19.825  0.00  0.00    +0.000 OA
ENDBRANCH  24  28
ENDBRANCH  23  24
ENDBRANCH   1  23
TORSDOF 7
ENDMDL
MODEL 7
REMARK VINA RESULT:      -8.7      1.346      1.602
REMARK  Name = 
REMARK  7 active torsions:
REMARK  status: ('A' for Active; 'I' for Inactive)
REMARK    1  A    between atoms: N_1  and  CA_2
REMARK    2  A    between atoms: CA_2  and  C_3
REMARK    3  A    between atoms: CA_2  and  C_26
REMARK    4  A    between atoms: C_3  and  C_4
REMARK    5  A    between atoms: C_5  and  C_6
REMARK    6  A    between atoms: C_5  and  C_18
REMARK    7  A    between atoms: C_10  and  C_11
REMARK                            x       y       z     vdW  Elec       q    Type
REMARK                         _______ _______ _______ _____ _____    ______ ____
ROOT
ATOM      1  C   UNL     1       2.955   4.528  19.703  0.00  0.00    +0.000 C 
ATOM      2  C   UNL     1       3.586   5.565  19.114  0.00  0.00    +0.000 C 
ENDROOT
BRANCH   2   3
ATOM      3  C   UNL     1       2.835   6.830  18.984  0.00  0.00    +0.000 A 
ATOM      4  C   UNL     1       2.965   7.598  17.816  0.00  0.00    +0.000 A 
ATOM      5  C   UNL     1       2.296   8.818  17.705  0.00  0.00    +0.000 A 
ATOM      6  C   UNL     1       1.495   9.259  18.753  0.00  0.00    +0.000 A 
ATOM      7  F   UNL     1       0.863  10.433  18.644  0.00  0.00    +0.000 F 
ATOM      8  C   UNL     1       1.345   8.505  19.911  0.00  0.00    +0.000 A 
ATOM      9  C   UNL     1       2.018   7.295  20.020  0.00  0.00    +0.000 A 
ATOM     10  F   UNL     1       1.871   6.582  21.147  0.00  0.00    +0.000 F 
ENDBRANCH   2   3
BRANCH   2  11
ATOM     11  C   UNL     1       4.930   5.403  18.527  0.00  0.00    +0.000 A 
ATOM     12  C   UNL     1       6.080   5.539  19.301  0.00  0.00    +0.000 A 
ATOM     13  C   UNL     1       7.331   5.395  18.703  0.00  0.00    +0.000 A 
ATOM     14  C   UNL     1       7.430   5.102  17.337  0.00  0.00    +0.000 A 
ATOM     15  C   UNL     1       6.287   4.955  16.530  0.00  0.00    +0.000 A 
ATOM     16  C   UNL     1       5.041   5.122  17.157  0.00  0.00    +0.000 A 
BRANCH  15  17
ATOM     17  C   UNL     1       6.374   4.628  15.086  0.00  0.00    +0.000 A 
ATOM     18  C   UNL     1       5.392   3.837  14.455  0.00  0.00    +0.000 A 
ATOM     19  C   UNL     1       5.459   3.535  13.091  0.00  0.00    +0.000 A 
ATOM     20  C   UNL     1       6.521   4.006  12.326  0.00  0.00    +0.000 A 
ATOM     21  C   UNL     1       7.506   4.785  12.922  0.00  0.00    +0.000 A 
ATOM     22  C   UNL     1       7.428   5.097  14.283  0.00  0.00    +0.000 A 
ENDBRANCH  15  17
ENDBRANCH   2  11
BRANCH   1  23
ATOM     23  C   UNL     1       3.518   3.142  19.922  0.00  0.00    +0.000 C 
BRANCH  23  24
ATOM     24  CA  UNL     1       3.017   2.070  18.940  0.00  0.00    +0.000 C 
BRANCH  24  25
ATOM     25  N   UNL     1       4.134   1.471  18.090  0.00  0.00    +0.000 NA
ATOM     26  H1  UNL     1       4.221   2.087  17.274  0.00  0.00    +0.000 HD
ATOM     27  H2  UNL     1       3.718   0.617  17.696  0.00  0.00    +0.000 HD
ENDBRANCH  24  25
BRANCH  24  28
ATOM     28  C   UNL     1       1.817   2.517  18.021  0.00  0.00    +0.000 C 
ATOM     29  O   UNL     1       2.208   3.000  16.902  0.00  0.00    +0.000 OA
ATOM     30  OXT UNL     1       0.657   2.301  18.431  0.00  0.00    +0.000 OA
ENDBRANCH  24  28
ENDBRANCH  23  24
ENDBRANCH   1  23
TORSDOF 7
ENDMDL
MODEL 8
REMARK VINA RESULT:      -8.6      1.365      1.762
REMARK  Name = 
REMARK  7 active torsions:
REMARK  status: ('A' for Active; 'I' for Inactive)
REMARK    1  A    between atoms: N_1  and  CA_2
REMARK    2  A    between atoms: CA_2  and  C_3
REMARK    3  A    between atoms: CA_2  and  C_26
REMARK    4  A    between atoms: C_3  and  C_4
REMARK    5  A    between atoms: C_5  and  C_6
REMARK    6  A    between atoms: C_5  and  C_18
REMARK    7  A    between atoms: C_10  and  C_11
REMARK                            x       y       z     vdW  Elec       q    Type
REMARK                         _______ _______ _______ _____ _____    ______ ____
ROOT
ATOM      1  C   UNL     1       2.863   4.595  19.713  0.00  0.00    +0.000 C 
ATOM      2  C   UNL     1       3.514   5.620  19.123  0.00  0.00    +0.000 C 
ENDROOT
BRANCH   2   3
ATOM      3  C   UNL     1       2.778   6.893  18.975  0.00  0.00    +0.000 A 
ATOM      4  C   UNL     1       2.916   7.641  17.795  0.00  0.00    +0.000 A 
ATOM      5  C   UNL     1       2.263   8.867  17.666  0.00  0.00    +0.000 A 
ATOM      6  C   UNL     1       1.470   9.335  18.709  0.00  0.00    +0.000 A 
ATOM      7  F   UNL     1       0.853  10.516  18.583  0.00  0.00    +0.000 F 
ATOM      8  C   UNL     1       1.312   8.601  19.879  0.00  0.00    +0.000 A 
ATOM      9  C   UNL     1       1.970   7.385  20.006  0.00  0.00    +0.000 A 
ATOM     10  F   UNL     1       1.816   6.691  21.144  0.00  0.00    +0.000 F 
ENDBRANCH   2   3
BRANCH   2  11
ATOM     11  C   UNL     1       4.862   5.438  18.554  0.00  0.00    +0.000 A 
ATOM     12  C   UNL     1       6.003   5.552  19.344  0.00  0.00    +0.000 A 
ATOM     13  C   UNL     1       7.260   5.390  18.762  0.00  0.00    +0.000 A 
ATOM     14  C   UNL     1       7.372   5.101  17.396  0.00  0.00    +0.000 A 
ATOM     15  C   UNL     1       6.238   4.977  16.573  0.00  0.00    +0.000 A 
ATOM     16  C   UNL     1       4.987   5.162  17.184  0.00  0.00    +0.000 A 
BRANCH  15  17
ATOM     17  C   UNL     1       6.339   4.656  15.128  0.00  0.00    +0.000 A 
ATOM     18  C   UNL     1       7.415   5.127  14.348  0.00  0.00    +0.000 A 
ATOM     19  C   UNL     1       7.525   4.818  12.989  0.00  0.00    +0.000 A 
ATOM     20  C   UNL     1       6.552   4.041  12.371  0.00  0.00    +0.000 A 
ATOM     21  C   UNL     1       5.477   3.565  13.114  0.00  0.00    +0.000 A 
ATOM     22  C   UNL     1       5.377   3.865  14.477  0.00  0.00    +0.000 A 
ENDBRANCH  15  17
ENDBRANCH   2  11
BRANCH   1  23
ATOM     23  C   UNL     1       3.408   3.204  19.948  0.00  0.00    +0.000 C 
BRANCH  23  24
ATOM     24  CA  UNL     1       3.007   2.158  18.895  0.00  0.00    +0.000 C 
BRANCH  24  25
ATOM     25  N   UNL     1       4.191   1.653  18.076  0.00  0.00    +0.000 NA
ATOM     26  H1  UNL     1       4.997   2.211  18.382  0.00  0.00    +0.000 HD
ATOM     27  H2  UNL     1       4.008   2.008  17.127  0.00  0.00    +0.000 HD
ENDBRANCH  24  25
BRANCH  24  28
ATOM     28  C   UNL     1       1.831   2.592  17.939  0.00  0.00    +0.000 C 
ATOM     29  O   UNL     1       0.677   2.359  18.441  0.00  0.00    +0.000 OA
ATOM     30  OXT UNL     1       2.131   3.157  16.866  0.00  0.00    +0.000 OA
ENDBRANCH  24  28
ENDBRANCH  23  24
ENDBRANCH   1  23
TORSDOF 7
ENDMDL
MODEL 9
REMARK VINA RESULT:      -8.6      3.171      7.725
REMARK  Name = 
REMARK  7 active torsions:
REMARK  status: ('A' for Active; 'I' for Inactive)
REMARK    1  A    between atoms: N_1  and  CA_2
REMARK    2  A    between atoms: CA_2  and  C_3
REMARK    3  A    between atoms: CA_2  and  C_26
REMARK    4  A    between atoms: C_3  and  C_4
REMARK    5  A    between atoms: C_5  and  C_6
REMARK    6  A    between atoms: C_5  and  C_18
REMARK    7  A    between atoms: C_10  and  C_11
REMARK                            x       y       z     vdW  Elec       q    Type
REMARK                         _______ _______ _______ _____ _____    ______ ____
ROOT
ATOM      1  C   UNL     1       4.176   5.657  18.228  0.00  0.00    +0.000 C 
ATOM      2  C   UNL     1       3.065   5.994  18.916  0.00  0.00    +0.000 C 
ENDROOT
BRANCH   2   3
ATOM      3  C   UNL     1       2.424   4.937  19.725  0.00  0.00    +0.000 A 
ATOM      4  C   UNL     1       2.817   4.750  21.060  0.00  0.00    +0.000 A 
ATOM      5  C   UNL     1       2.252   3.722  21.817  0.00  0.00    +0.000 A 
ATOM      6  C   UNL     1       1.293   2.896  21.242  0.00  0.00    +0.000 A 
ATOM      7  F   UNL     1       0.760   1.907  21.970  0.00  0.00    +0.000 F 
ATOM      8  C   UNL     1       0.882   3.075  19.926  0.00  0.00    +0.000 A 
ATOM      9  C   UNL     1       1.453   4.093  19.175  0.00  0.00    +0.000 A 
ATOM     10  F   UNL     1       1.054   4.249  17.903  0.00  0.00    +0.000 F 
ENDBRANCH   2   3
BRANCH   2  11
ATOM     11  C   UNL     1       2.459   7.331  18.776  0.00  0.00    +0.000 A 
ATOM     12  C   UNL     1       2.570   8.056  17.592  0.00  0.00    +0.000 A 
ATOM     13  C   UNL     1       1.997   9.324  17.507  0.00  0.00    +0.000 A 
ATOM     14  C   UNL     1       1.303   9.859  18.600  0.00  0.00    +0.000 A 
ATOM     15  C   UNL     1       1.171   9.149  19.808  0.00  0.00    +0.000 A 
ATOM     16  C   UNL     1       1.773   7.882  19.868  0.00  0.00    +0.000 A 
BRANCH  15  17
ATOM     17  C   UNL     1       0.425   9.694  20.969  0.00  0.00    +0.000 A 
ATOM     18  C   UNL     1      -0.328  10.881  20.862  0.00  0.00    +0.000 A 
ATOM     19  C   UNL     1      -1.044  11.395  21.948  0.00  0.00    +0.000 A 
ATOM     20  C   UNL     1      -1.013  10.741  23.174  0.00  0.00    +0.000 A 
ATOM     21  C   UNL     1      -0.276   9.570  23.311  0.00  0.00    +0.000 A 
ATOM     22  C   UNL     1       0.429   9.051  22.219  0.00  0.00    +0.000 A 
ENDBRANCH  15  17
ENDBRANCH   2  11
BRANCH   1  23
ATOM     23  C   UNL     1       4.979   6.565  17.323  0.00  0.00    +0.000 C 
BRANCH  23  24
ATOM     24  CA  UNL     1       5.520   5.902  16.046  0.00  0.00    +0.000 C 
BRANCH  24  25
ATOM     25  N   UNL     1       5.029   4.468  15.865  0.00  0.00    +0.000 NA
ATOM     26  H1  UNL     1       5.578   3.902  16.522  0.00  0.00    +0.000 HD
ATOM     27  H2  UNL     1       5.404   4.190  14.947  0.00  0.00    +0.000 HD
ENDBRANCH  24  25
BRANCH  24  28
ATOM     28  C   UNL     1       7.086   5.965  15.874  0.00  0.00    +0.000 C 
ATOM     29  O   UNL     1       7.645   6.729  16.736  0.00  0.00    +0.000 OA
ATOM     30  OXT UNL     1       7.605   5.242  14.998  0.00  0.00    +0.000 OA
ENDBRANCH  24  28
ENDBRANCH  23  24
ENDBRANCH   1  23
TORSDOF 7
ENDMDL
