MODEL 1
REMARK VINA RESULT:      -8.5      0.000      0.000
REMARK  Name = 
REMARK  3 active torsions:
REMARK  status: ('A' for Active; 'I' for Inactive)
REMARK    1  A    between atoms: C_1  and  N_2
REMARK    2  A    between atoms: N_2  and  C_3
REMARK    3  A    between atoms: C_8  and  C_9
REMARK                            x       y       z     vdW  Elec       q    Type
REMARK                         _______ _______ _______ _____ _____    ______ ____
ROOT
ATOM      1  C   UNL     1       7.800   5.213  13.319  0.00  0.00    +0.000 C 
ATOM      2  N   UNL     1       6.521   4.725  13.828  0.00  0.00    +0.000 N 
ATOM      3  C   UNL     1       5.916   3.597  13.158  0.00  0.00    +0.000 C 
ATOM      4  C   UNL     1       6.385   4.761  15.213  0.00  0.00    +0.000 A 
ATOM      5  N   UNL     1       7.214   5.592  15.868  0.00  0.00    +0.000 NA
ATOM      6  C   UNL     1       7.086   5.638  17.189  0.00  0.00    +0.000 A 
ATOM      7  C   UNL     1       6.170   4.923  17.903  0.00  0.00    +0.000 A 
ATOM      8  C   UNL     1       5.277   4.155  17.183  0.00  0.00    +0.000 A 
ATOM      9  N   UNL     1       5.404   4.039  15.834  0.00  0.00    +0.000 NA
ATOM     10  C   UNL     1       6.343   5.258  19.337  0.00  0.00    +0.000 C 
ATOM     11  O   UNL     1       7.567   6.030  19.400  0.00  0.00    +0.000 OA
ATOM     12  C   UNL     1       7.801   6.589  18.090  0.00  0.00    +0.000 C 
ENDROOT
BRANCH   8  13
ATOM     13  C   UNL     1       4.092   3.585  17.853  0.00  0.00    +0.000 A 
ATOM     14  C   UNL     1       3.771   2.198  17.896  0.00  0.00    +0.000 A 
ATOM     15  N   UNL     1       2.611   1.924  18.455  0.00  0.00    +0.000 NA
ATOM     16  N   UNL     1       2.236   3.091  18.971  0.00  0.00    +0.000 N 
ATOM     17  N   UNL     1       1.140   3.091  19.756  0.00  0.00    +0.000 NA
ATOM     18  C   UNL     1       0.983   4.203  20.385  0.00  0.00    +0.000 A 
ATOM     19  C   UNL     1       1.862   5.392  20.286  0.00  0.00    +0.000 A 
ATOM     20  C   UNL     1       2.891   5.337  19.420  0.00  0.00    +0.000 A 
ATOM     21  C   UNL     1       3.140   4.125  18.719  0.00  0.00    +0.000 A 
ENDBRANCH   8  13
TORSDOF 1
ENDMDL
MODEL 2
REMARK VINA RESULT:      -8.4      2.176      6.282
REMARK  Name = 
REMARK  3 active torsions:
REMARK  status: ('A' for Active; 'I' for Inactive)
REMARK    1  A    between atoms: C_1  and  N_2
REMARK    2  A    between atoms: N_2  and  C_3
REMARK    3  A    between atoms: C_8  and  C_9
REMARK                            x       y       z     vdW  Elec       q    Type
REMARK                         _______ _______ _______ _____ _____    ______ ____
ROOT
ATOM      1  C   UNL     1       1.780   3.257  21.518  0.00  0.00    +0.000 C 
ATOM      2  N   UNL     1       3.041   3.329  20.786  0.00  0.00    +0.000 N 
ATOM      3  C   UNL     1       3.614   2.090  20.310  0.00  0.00    +0.000 C 
ATOM      4  C   UNL     1       3.174   4.429  19.943  0.00  0.00    +0.000 A 
ATOM      5  N   UNL     1       2.368   5.474  20.203  0.00  0.00    +0.000 NA
ATOM      6  C   UNL     1       2.493   6.531  19.409  0.00  0.00    +0.000 A 
ATOM      7  C   UNL     1       3.384   6.625  18.381  0.00  0.00    +0.000 A 
ATOM      8  C   UNL     1       4.256   5.569  18.210  0.00  0.00    +0.000 A 
ATOM      9  N   UNL     1       4.130   4.446  18.966  0.00  0.00    +0.000 NA
ATOM     10  C   UNL     1       3.216   7.956  17.750  0.00  0.00    +0.000 C 
ATOM     11  O   UNL     1       2.016   8.508  18.344  0.00  0.00    +0.000 OA
ATOM     12  C   UNL     1       1.804   7.840  19.606  0.00  0.00    +0.000 C 
ENDROOT
BRANCH   8  13
ATOM     13  C   UNL     1       5.420   5.715  17.315  0.00  0.00    +0.000 A 
ATOM     14  C   UNL     1       6.648   6.342  17.673  0.00  0.00    +0.000 A 
ATOM     15  N   UNL     1       7.510   6.456  16.685  0.00  0.00    +0.000 NA
ATOM     16  N   UNL     1       6.961   5.733  15.713  0.00  0.00    +0.000 N 
ATOM     17  N   UNL     1       7.703   5.528  14.606  0.00  0.00    +0.000 NA
ATOM     18  C   UNL     1       7.189   4.644  13.824  0.00  0.00    +0.000 A 
ATOM     19  C   UNL     1       5.921   3.912  14.050  0.00  0.00    +0.000 A 
ATOM     20  C   UNL     1       5.201   4.233  15.142  0.00  0.00    +0.000 A 
ATOM     21  C   UNL     1       5.728   5.178  16.064  0.00  0.00    +0.000 A 
ENDBRANCH   8  13
TORSDOF 1
ENDMDL
MODEL 3
REMARK VINA RESULT:      -7.8      3.543      4.945
REMARK  Name = 
REMARK  3 active torsions:
REMARK  status: ('A' for Active; 'I' for Inactive)
REMARK    1  A    between atoms: C_1  and  N_2
REMARK    2  A    between atoms: N_2  and  C_3
REMARK    3  A    between atoms: C_8  and  C_9
REMARK                            x       y       z     vdW  Elec       q    Type
REMARK                         _______ _______ _______ _____ _____    ______ ____
ROOT
ATOM      1  C   UNL     1       7.444   4.449  16.776  0.00  0.00    +0.000 C 
ATOM      2  N   UNL     1       6.771   5.438  17.613  0.00  0.00    +0.000 N 
ATOM      3  C   UNL     1       7.178   6.819  17.481  0.00  0.00    +0.000 C 
ATOM      4  C   UNL     1       5.411   5.216  17.814  0.00  0.00    +0.000 A 
ATOM      5  N   UNL     1       4.978   3.962  17.596  0.00  0.00    +0.000 NA
ATOM      6  C   UNL     1       3.684   3.739  17.793  0.00  0.00    +0.000 A 
ATOM      7  C   UNL     1       2.792   4.681  18.212  0.00  0.00    +0.000 A 
ATOM      8  C   UNL     1       3.296   5.929  18.515  0.00  0.00    +0.000 A 
ATOM      9  N   UNL     1       4.605   6.216  18.280  0.00  0.00    +0.000 NA
ATOM     10  C   UNL     1       1.461   4.037  18.317  0.00  0.00    +0.000 C 
ATOM     11  O   UNL     1       1.622   2.734  17.706  0.00  0.00    +0.000 OA
ATOM     12  C   UNL     1       3.026   2.401  17.748  0.00  0.00    +0.000 C 
ENDROOT
BRANCH   8  13
ATOM     13  C   UNL     1       2.457   6.906  19.236  0.00  0.00    +0.000 A 
ATOM     14  C   UNL     1       2.058   6.787  20.598  0.00  0.00    +0.000 A 
ATOM     15  N   UNL     1       1.222   7.719  21.004  0.00  0.00    +0.000 NA
ATOM     16  N   UNL     1       1.209   8.582  19.992  0.00  0.00    +0.000 N 
ATOM     17  N   UNL     1       0.551   9.744  20.185  0.00  0.00    +0.000 NA
ATOM     18  C   UNL     1       0.778  10.600  19.251  0.00  0.00    +0.000 A 
ATOM     19  C   UNL     1       1.639  10.387  18.064  0.00  0.00    +0.000 A 
ATOM     20  C   UNL     1       2.197   9.171  17.907  0.00  0.00    +0.000 A 
ATOM     21  C   UNL     1       2.014   8.191  18.920  0.00  0.00    +0.000 A 
ENDBRANCH   8  13
TORSDOF 1
ENDMDL
MODEL 4
REMARK VINA RESULT:      -7.8      3.626      4.966
REMARK  Name = 
REMARK  3 active torsions:
REMARK  status: ('A' for Active; 'I' for Inactive)
REMARK    1  A    between atoms: C_1  and  N_2
REMARK    2  A    between atoms: N_2  and  C_3
REMARK    3  A    between atoms: C_8  and  C_9
REMARK                            x       y       z     vdW  Elec       q    Type
REMARK                         _______ _______ _______ _____ _____    ______ ____
ROOT
ATOM      1  C   UNL     1       7.603   4.428  17.325  0.00  0.00    +0.000 C 
ATOM      2  N   UNL     1       6.913   5.620  17.810  0.00  0.00    +0.000 N 
ATOM      3  C   UNL     1       7.459   6.908  17.447  0.00  0.00    +0.000 C 
ATOM      4  C   UNL     1       5.523   5.528  17.836  0.00  0.00    +0.000 A 
ATOM      5  N   UNL     1       5.012   4.285  17.830  0.00  0.00    +0.000 NA
ATOM      6  C   UNL     1       3.688   4.188  17.863  0.00  0.00    +0.000 A 
ATOM      7  C   UNL     1       2.836   5.251  17.919  0.00  0.00    +0.000 A 
ATOM      8  C   UNL     1       3.405   6.504  18.020  0.00  0.00    +0.000 A 
ATOM      9  N   UNL     1       4.754   6.653  17.939  0.00  0.00    +0.000 NA
ATOM     10  C   UNL     1       1.450   4.726  17.949  0.00  0.00    +0.000 C 
ATOM     11  O   UNL     1       1.576   3.310  17.670  0.00  0.00    +0.000 OA
ATOM     12  C   UNL     1       2.923   2.915  18.006  0.00  0.00    +0.000 C 
ENDROOT
BRANCH   8  13
ATOM     13  C   UNL     1       2.565   7.666  18.369  0.00  0.00    +0.000 A 
ATOM     14  C   UNL     1       2.151   8.676  17.453  0.00  0.00    +0.000 A 
ATOM     15  N   UNL     1       1.496   9.676  18.004  0.00  0.00    +0.000 NA
ATOM     16  N   UNL     1       1.288   9.258  19.249  0.00  0.00    +0.000 N 
ATOM     17  N   UNL     1       0.487  10.016  20.026  0.00  0.00    +0.000 NA
ATOM     18  C   UNL     1       0.163   9.429  21.124  0.00  0.00    +0.000 A 
ATOM     19  C   UNL     1       0.601   8.080  21.552  0.00  0.00    +0.000 A 
ATOM     20  C   UNL     1       1.463   7.420  20.754  0.00  0.00    +0.000 A 
ATOM     21  C   UNL     1       1.834   7.999  19.510  0.00  0.00    +0.000 A 
ENDBRANCH   8  13
TORSDOF 1
ENDMDL
MODEL 5
REMARK VINA RESULT:      -7.7      1.071      1.280
REMARK  Name = 
REMARK  3 active torsions:
REMARK  status: ('A' for Active; 'I' for Inactive)
REMARK    1  A    between atoms: C_1  and  N_2
REMARK    2  A    between atoms: N_2  and  C_3
REMARK    3  A    between atoms: C_8  and  C_9
REMARK                            x       y       z     vdW  Elec       q    Type
REMARK                         _______ _______ _______ _____ _____    ______ ____
ROOT
ATOM      1  C   UNL     1       7.805   4.940  13.387  0.00  0.00    +0.000 C 
ATOM      2  N   UNL     1       6.438   4.662  13.819  0.00  0.00    +0.000 N 
ATOM      3  C   UNL     1       5.711   3.625  13.123  0.00  0.00    +0.000 C 
ATOM      4  C   UNL     1       6.224   4.745  15.193  0.00  0.00    +0.000 A 
ATOM      5  N   UNL     1       7.129   5.453  15.891  0.00  0.00    +0.000 NA
ATOM      6  C   UNL     1       6.928   5.544  17.200  0.00  0.00    +0.000 A 
ATOM      7  C   UNL     1       5.873   4.990  17.861  0.00  0.00    +0.000 A 
ATOM      8  C   UNL     1       4.919   4.353  17.094  0.00  0.00    +0.000 A 
ATOM      9  N   UNL     1       5.109   4.192  15.757  0.00  0.00    +0.000 NA
ATOM     10  C   UNL     1       6.006   5.323  19.300  0.00  0.00    +0.000 C 
ATOM     11  O   UNL     1       7.327   5.902  19.433  0.00  0.00    +0.000 OA
ATOM     12  C   UNL     1       7.723   6.394  18.135  0.00  0.00    +0.000 C 
ENDROOT
BRANCH   8  13
ATOM     13  C   UNL     1       3.622   3.981  17.693  0.00  0.00    +0.000 A 
ATOM     14  C   UNL     1       2.392   3.890  16.980  0.00  0.00    +0.000 A 
ATOM     15  N   UNL     1       1.341   3.647  17.734  0.00  0.00    +0.000 NA
ATOM     16  N   UNL     1       1.873   3.372  18.922  0.00  0.00    +0.000 N 
ATOM     17  N   UNL     1       1.037   2.922  19.879  0.00  0.00    +0.000 NA
ATOM     18  C   UNL     1       1.663   2.474  20.911  0.00  0.00    +0.000 A 
ATOM     19  C   UNL     1       3.133   2.445  21.093  0.00  0.00    +0.000 A 
ATOM     20  C   UNL     1       3.894   2.986  20.122  0.00  0.00    +0.000 A 
ATOM     21  C   UNL     1       3.266   3.468  18.942  0.00  0.00    +0.000 A 
ENDBRANCH   8  13
TORSDOF 1
ENDMDL
MODEL 6
REMARK VINA RESULT:      -7.6      3.340      5.064
REMARK  Name = 
REMARK  3 active torsions:
REMARK  status: ('A' for Active; 'I' for Inactive)
REMARK    1  A    between atoms: C_1  and  N_2
REMARK    2  A    between atoms: N_2  and  C_3
REMARK    3  A    between atoms: C_8  and  C_9
REMARK                            x       y       z     vdW  Elec       q    Type
REMARK                         _______ _______ _______ _____ _____    ______ ____
ROOT
ATOM      1  C   UNL     1       3.453   1.398  18.543  0.00  0.00    +0.000 C 
ATOM      2  N   UNL     1       2.611   2.588  18.630  0.00  0.00    +0.000 N 
ATOM      3  C   UNL     1       1.642   2.650  19.700  0.00  0.00    +0.000 C 
ATOM      4  C   UNL     1       3.245   3.785  18.307  0.00  0.00    +0.000 A 
ATOM      5  N   UNL     1       4.367   3.681  17.573  0.00  0.00    +0.000 NA
ATOM      6  C   UNL     1       4.974   4.818  17.253  0.00  0.00    +0.000 A 
ATOM      7  C   UNL     1       4.526   6.058  17.601  0.00  0.00    +0.000 A 
ATOM      8  C   UNL     1       3.321   6.123  18.271  0.00  0.00    +0.000 A 
ATOM      9  N   UNL     1       2.692   4.983  18.663  0.00  0.00    +0.000 NA
ATOM     10  C   UNL     1       5.471   7.058  17.050  0.00  0.00    +0.000 C 
ATOM     11  O   UNL     1       6.601   6.287  16.572  0.00  0.00    +0.000 OA
ATOM     12  C   UNL     1       6.143   4.940  16.334  0.00  0.00    +0.000 C 
ENDROOT
BRANCH   8  13
ATOM     13  C   UNL     1       2.636   7.421  18.428  0.00  0.00    +0.000 A 
ATOM     14  C   UNL     1       2.333   8.316  17.362  0.00  0.00    +0.000 A 
ATOM     15  N   UNL     1       1.816   9.464  17.744  0.00  0.00    +0.000 NA
ATOM     16  N   UNL     1       1.578   9.277  19.040  0.00  0.00    +0.000 N 
ATOM     17  N   UNL     1       0.890  10.243  19.683  0.00  0.00    +0.000 NA
ATOM     18  C   UNL     1       0.515   9.881  20.859  0.00  0.00    +0.000 A 
ATOM     19  C   UNL     1       0.792   8.573  21.499  0.00  0.00    +0.000 A 
ATOM     20  C   UNL     1       1.552   7.694  20.819  0.00  0.00    +0.000 A 
ATOM     21  C   UNL     1       1.970   8.018  19.500  0.00  0.00    +0.000 A 
ENDBRANCH   8  13
TORSDOF 1
ENDMDL
MODEL 7
REMARK VINA RESULT:      -7.5      1.098      1.198
REMARK  Name = 
REMARK  3 active torsions:
REMARK  status: ('A' for Active; 'I' for Inactive)
REMARK    1  A    between atoms: C_1  and  N_2
REMARK    2  A    between atoms: N_2  and  C_3
REMARK    3  A    between atoms: C_8  and  C_9
REMARK                            x       y       z     vdW  Elec       q    Type
REMARK                         _______ _______ _______ _____ _____    ______ ____
ROOT
ATOM      1  C   UNL     1       7.760   5.366  13.264  0.00  0.00    +0.000 C 
ATOM      2  N   UNL     1       6.619   4.723  13.908  0.00  0.00    +0.000 N 
ATOM      3  C   UNL     1       6.152   3.471  13.355  0.00  0.00    +0.000 C 
ATOM      4  C   UNL     1       6.585   4.830  15.296  0.00  0.00    +0.000 A 
ATOM      5  N   UNL     1       7.319   5.822  15.830  0.00  0.00    +0.000 NA
ATOM      6  C   UNL     1       7.286   5.937  17.152  0.00  0.00    +0.000 A 
ATOM      7  C   UNL     1       6.555   5.139  17.981  0.00  0.00    +0.000 A 
ATOM      8  C   UNL     1       5.743   4.196  17.384  0.00  0.00    +0.000 A 
ATOM      9  N   UNL     1       5.783   4.009  16.038  0.00  0.00    +0.000 NA
ATOM     10  C   UNL     1       6.781   5.593  19.374  0.00  0.00    +0.000 C 
ATOM     11  O   UNL     1       7.868   6.547  19.288  0.00  0.00    +0.000 OA
ATOM     12  C   UNL     1       7.907   7.046  17.934  0.00  0.00    +0.000 C 
ENDROOT
BRANCH   8  13
ATOM     13  C   UNL     1       4.719   3.496  18.184  0.00  0.00    +0.000 A 
ATOM     14  C   UNL     1       4.983   2.740  19.363  0.00  0.00    +0.000 A 
ATOM     15  N   UNL     1       3.935   2.112  19.854  0.00  0.00    +0.000 NA
ATOM     16  N   UNL     1       2.924   2.596  19.138  0.00  0.00    +0.000 N 
ATOM     17  N   UNL     1       1.679   2.252  19.524  0.00  0.00    +0.000 NA
ATOM     18  C   UNL     1       0.769   2.936  18.923  0.00  0.00    +0.000 A 
ATOM     19  C   UNL     1       0.998   3.983  17.901  0.00  0.00    +0.000 A 
ATOM     20  C   UNL     1       2.268   4.212  17.515  0.00  0.00    +0.000 A 
ATOM     21  C   UNL     1       3.323   3.514  18.164  0.00  0.00    +0.000 A 
ENDBRANCH   8  13
TORSDOF 1
ENDMDL
MODEL 8
REMARK VINA RESULT:      -7.3      2.896      6.301
REMARK  Name = 
REMARK  3 active torsions:
REMARK  status: ('A' for Active; 'I' for Inactive)
REMARK    1  A    between atoms: C_1  and  N_2
REMARK    2  A    between atoms: N_2  and  C_3
REMARK    3  A    between atoms: C_8  and  C_9
REMARK                            x       y       z     vdW  Elec       q    Type
REMARK                         _______ _______ _______ _____ _____    ______ ____
ROOT
ATOM      1  C   UNL     1       0.528   9.273  19.492  0.00  0.00    +0.000 C 
ATOM      2  N   UNL     1       1.554   9.097  18.468  0.00  0.00    +0.000 N 
ATOM      3  C   UNL     1       2.227  10.279  17.980  0.00  0.00    +0.000 C 
ATOM      4  C   UNL     1       2.342   7.958  18.610  0.00  0.00    +0.000 A 
ATOM      5  N   UNL     1       1.828   6.975  19.370  0.00  0.00    +0.000 NA
ATOM      6  C   UNL     1       2.569   5.881  19.505  0.00  0.00    +0.000 A 
ATOM      7  C   UNL     1       3.784   5.693  18.917  0.00  0.00    +0.000 A 
ATOM      8  C   UNL     1       4.230   6.687  18.070  0.00  0.00    +0.000 A 
ATOM      9  N   UNL     1       3.528   7.844  17.942  0.00  0.00    +0.000 NA
ATOM     10  C   UNL     1       4.279   4.350  19.305  0.00  0.00    +0.000 C 
ATOM     11  O   UNL     1       3.367   3.895  20.336  0.00  0.00    +0.000 OA
ATOM     12  C   UNL     1       2.132   4.625  20.181  0.00  0.00    +0.000 C 
ENDROOT
BRANCH   8  13
ATOM     13  C   UNL     1       5.384   6.435  17.185  0.00  0.00    +0.000 A 
ATOM     14  C   UNL     1       6.711   6.892  17.428  0.00  0.00    +0.000 A 
ATOM     15  N   UNL     1       7.560   6.645  16.453  0.00  0.00    +0.000 NA
ATOM     16  N   UNL     1       6.871   5.849  15.641  0.00  0.00    +0.000 N 
ATOM     17  N   UNL     1       7.543   5.292  14.613  0.00  0.00    +0.000 NA
ATOM     18  C   UNL     1       6.864   4.372  14.020  0.00  0.00    +0.000 A 
ATOM     19  C   UNL     1       5.490   3.942  14.369  0.00  0.00    +0.000 A 
ATOM     20  C   UNL     1       4.861   4.603  15.359  0.00  0.00    +0.000 A 
ATOM     21  C   UNL     1       5.566   5.606  16.077  0.00  0.00    +0.000 A 
ENDBRANCH   8  13
TORSDOF 1
ENDMDL
MODEL 9
REMARK VINA RESULT:      -7.3      3.607      5.037
REMARK  Name = 
REMARK  3 active torsions:
REMARK  status: ('A' for Active; 'I' for Inactive)
REMARK    1  A    between atoms: C_1  and  N_2
REMARK    2  A    between atoms: N_2  and  C_3
REMARK    3  A    between atoms: C_8  and  C_9
REMARK                            x       y       z     vdW  Elec       q    Type
REMARK                         _______ _______ _______ _____ _____    ______ ____
ROOT
ATOM      1  C   UNL     1       6.032   3.680  15.785  0.00  0.00    +0.000 C 
ATOM      2  N   UNL     1       5.650   4.864  16.548  0.00  0.00    +0.000 N 
ATOM      3  C   UNL     1       5.862   6.156  15.936  0.00  0.00    +0.000 C 
ATOM      4  C   UNL     1       4.491   4.729  17.308  0.00  0.00    +0.000 A 
ATOM      5  N   UNL     1       4.112   3.470  17.589  0.00  0.00    +0.000 NA
ATOM      6  C   UNL     1       3.012   3.332  18.320  0.00  0.00    +0.000 A 
ATOM      7  C   UNL     1       2.272   4.368  18.808  0.00  0.00    +0.000 A 
ATOM      8  C   UNL     1       2.750   5.642  18.577  0.00  0.00    +0.000 A 
ATOM      9  N   UNL     1       3.843   5.831  17.791  0.00  0.00    +0.000 NA
ATOM     10  C   UNL     1       1.138   3.800  19.575  0.00  0.00    +0.000 C 
ATOM     11  O   UNL     1       1.160   2.380  19.288  0.00  0.00    +0.000 OA
ATOM     12  C   UNL     1       2.497   2.041  18.862  0.00  0.00    +0.000 C 
ENDROOT
BRANCH   8  13
ATOM     13  C   UNL     1       2.171   6.788  19.305  0.00  0.00    +0.000 A 
ATOM     14  C   UNL     1       1.903   6.812  20.703  0.00  0.00    +0.000 A 
ATOM     15  N   UNL     1       1.287   7.898  21.121  0.00  0.00    +0.000 NA
ATOM     16  N   UNL     1       1.315   8.695  20.058  0.00  0.00    +0.000 N 
ATOM     17  N   UNL     1       0.891   9.964  20.230  0.00  0.00    +0.000 NA
ATOM     18  C   UNL     1       1.161  10.716  19.222  0.00  0.00    +0.000 A 
ATOM     19  C   UNL     1       1.843  10.293  17.977  0.00  0.00    +0.000 A 
ATOM     20  C   UNL     1       2.165   8.991  17.852  0.00  0.00    +0.000 A 
ATOM     21  C   UNL     1       1.924   8.113  18.944  0.00  0.00    +0.000 A 
ENDBRANCH   8  13
TORSDOF 1
ENDMDL
