MODEL 1
REMARK VINA RESULT:      -7.7      0.000      0.000
REMARK  Name = 
REMARK  13 active torsions:
REMARK  status: ('A' for Active; 'I' for Inactive)
REMARK    1  A    between atoms: C_1  and  C_2
REMARK    2  A    between atoms: C_4  and  C_5
REMARK    3  A    between atoms: C_6  and  C_7
REMARK    4  A    between atoms: C_7  and  C_9
REMARK    5  A    between atoms: C_9  and  O_10
REMARK    6  A    between atoms: O_10  and  C_11
REMARK    7  A    between atoms: C_11  and  C_13
REMARK    8  A    between atoms: C_15  and  N_16
REMARK    9  A    between atoms: C_21  and  N_22
REMARK   10  A    between atoms: N_22  and  C_23
REMARK   11  A    between atoms: C_23  and  C_24
REMARK   12  A    between atoms: C_24  and  O_25
REMARK   13  A    between atoms: C_27  and  C_28
REMARK                            x       y       z     vdW  Elec       q    Type
REMARK                         _______ _______ _______ _____ _____    ______ ____
ROOT
ATOM      1  C   UNL     1       2.637   6.389  19.108  0.00  0.00    +0.000 C 
ATOM      2  O   UNL     1       2.006   5.948  20.053  0.00  0.00    +0.000 OA
ENDROOT
BRANCH   1   3
ATOM      3  C   UNL     1       3.503   5.567  18.193  0.00  0.00    +0.000 A 
ATOM      4  C   UNL     1       4.737   6.133  17.800  0.00  0.00    +0.000 A 
ATOM      5  C   UNL     1       5.575   5.455  16.908  0.00  0.00    +0.000 A 
ATOM      6  C   UNL     1       5.229   4.197  16.430  0.00  0.00    +0.000 A 
ATOM      7  C   UNL     1       4.023   3.631  16.823  0.00  0.00    +0.000 A 
ATOM      8  C   UNL     1       3.133   4.277  17.710  0.00  0.00    +0.000 A 
BRANCH   5   9
ATOM      9  N   UNL     1       6.793   6.097  16.405  0.00  0.00    +0.000 N 
ATOM     10  O   UNL     1       7.443   5.499  15.539  0.00  0.00    +0.000 OA
ATOM     11  O   UNL     1       7.105   7.194  16.891  0.00  0.00    +0.000 OA
ENDBRANCH   5   9
BRANCH   8  12
ATOM     12  N   UNL     1       1.886   3.653  17.991  0.00  0.00    +0.000 N 
ATOM     13  H   UNL     1       1.398   3.539  17.095  0.00  0.00    +0.000 HD
BRANCH  12  14
ATOM     14  C   UNL     1       1.935   2.351  18.707  0.00  0.00    +0.000 C 
BRANCH  14  15
ATOM     15  C   UNL     1       1.451   2.462  20.150  0.00  0.00    +0.000 C 
BRANCH  15  16
ATOM     16  O   UNL     1       0.509   3.518  20.283  0.00  0.00    +0.000 OA
ATOM     17  H   UNL     1       0.842   4.235  19.714  0.00  0.00    +0.000 HD
ENDBRANCH  15  16
ENDBRANCH  14  15
ENDBRANCH  12  14
ENDBRANCH   8  12
ENDBRANCH   1   3
BRANCH   1  18
ATOM     18  O   UNL     1       2.731   7.714  18.775  0.00  0.00    +0.000 OA
BRANCH  18  19
ATOM     19  C   UNL     1       1.684   8.565  19.254  0.00  0.00    +0.000 C 
BRANCH  19  20
ATOM     20  C   UNL     1       1.277   9.757  18.365  0.00  0.00    +0.000 C 
ATOM     21  O   UNL     1       2.125  10.313  17.657  0.00  0.00    +0.000 OA
BRANCH  20  27
ATOM     22  C   UNL     1      -4.220  11.829  18.353  0.00  0.00    +0.000 C 
ATOM     23  C   UNL     1      -2.828  11.248  18.362  0.00  0.00    +0.000 A 
ATOM     24  C   UNL     1      -1.934  11.641  19.363  0.00  0.00    +0.000 A 
ATOM     25  C   UNL     1      -0.604  11.157  19.401  0.00  0.00    +0.000 A 
ATOM     26  C   UNL     1       0.250  11.626  20.553  0.00  0.00    +0.000 C 
ATOM     27  C   UNL     1      -0.156  10.268  18.398  0.00  0.00    +0.000 A 
ATOM     28  C   UNL     1      -1.072   9.858  17.416  0.00  0.00    +0.000 A 
ATOM     29  C   UNL     1      -2.404  10.328  17.390  0.00  0.00    +0.000 A 
ATOM     30  C   UNL     1      -3.342   9.846  16.315  0.00  0.00    +0.000 C 
ENDBRANCH  20  27
ENDBRANCH  19  20
ENDBRANCH  18  19
ENDBRANCH   1  18
TORSDOF 10
ENDMDL
MODEL 2
REMARK VINA RESULT:      -7.5      1.733      2.459
REMARK  Name = 
REMARK  13 active torsions:
REMARK  status: ('A' for Active; 'I' for Inactive)
REMARK    1  A    between atoms: C_1  and  C_2
REMARK    2  A    between atoms: C_4  and  C_5
REMARK    3  A    between atoms: C_6  and  C_7
REMARK    4  A    between atoms: C_7  and  C_9
REMARK    5  A    between atoms: C_9  and  O_10
REMARK    6  A    between atoms: O_10  and  C_11
REMARK    7  A    between atoms: C_11  and  C_13
REMARK    8  A    between atoms: C_15  and  N_16
REMARK    9  A    between atoms: C_21  and  N_22
REMARK   10  A    between atoms: N_22  and  C_23
REMARK   11  A    between atoms: C_23  and  C_24
REMARK   12  A    between atoms: C_24  and  O_25
REMARK   13  A    between atoms: C_27  and  C_28
REMARK                            x       y       z     vdW  Elec       q    Type
REMARK                         _______ _______ _______ _____ _____    ______ ____
ROOT
ATOM      1  C   UNL     1       2.794   7.195  18.604  0.00  0.00    +0.000 C 
ATOM      2  O   UNL     1       2.310   7.116  19.720  0.00  0.00    +0.000 OA
ENDROOT
BRANCH   1   3
ATOM      3  C   UNL     1       3.632   6.129  17.952  0.00  0.00    +0.000 A 
ATOM      4  C   UNL     1       4.905   6.517  17.476  0.00  0.00    +0.000 A 
ATOM      5  C   UNL     1       5.723   5.598  16.810  0.00  0.00    +0.000 A 
ATOM      6  C   UNL     1       5.315   4.280  16.643  0.00  0.00    +0.000 A 
ATOM      7  C   UNL     1       4.069   3.890  17.119  0.00  0.00    +0.000 A 
ATOM      8  C   UNL     1       3.199   4.780  17.787  0.00  0.00    +0.000 A 
BRANCH   5   9
ATOM      9  N   UNL     1       6.986   6.033  16.209  0.00  0.00    +0.000 N 
ATOM     10  O   UNL     1       7.372   5.445  15.190  0.00  0.00    +0.000 OA
ATOM     11  O   UNL     1       7.600   6.953  16.768  0.00  0.00    +0.000 OA
ENDBRANCH   5   9
BRANCH   8  12
ATOM     12  N   UNL     1       1.912   4.309  18.168  0.00  0.00    +0.000 N 
ATOM     13  H   UNL     1       1.227   4.788  17.571  0.00  0.00    +0.000 HD
BRANCH  12  14
ATOM     14  C   UNL     1       1.692   2.840  18.108  0.00  0.00    +0.000 C 
BRANCH  14  15
ATOM     15  C   UNL     1       0.690   2.358  19.153  0.00  0.00    +0.000 C 
BRANCH  15  16
ATOM     16  O   UNL     1       0.469   3.360  20.136  0.00  0.00    +0.000 OA
ATOM     17  H   UNL     1      -0.360   3.109  20.580  0.00  0.00    +0.000 HD
ENDBRANCH  15  16
ENDBRANCH  14  15
ENDBRANCH  12  14
ENDBRANCH   8  12
ENDBRANCH   1   3
BRANCH   1  18
ATOM     18  O   UNL     1       2.728   8.298  17.796  0.00  0.00    +0.000 OA
BRANCH  18  19
ATOM     19  C   UNL     1       1.515   9.055  17.851  0.00  0.00    +0.000 C 
BRANCH  19  20
ATOM     20  C   UNL     1       1.584  10.462  18.477  0.00  0.00    +0.000 C 
ATOM     21  O   UNL     1       2.385  11.294  18.032  0.00  0.00    +0.000 OA
BRANCH  20  27
ATOM     22  C   UNL     1      -1.933  11.639  23.033  0.00  0.00    +0.000 C 
ATOM     23  C   UNL     1      -0.988  11.347  21.894  0.00  0.00    +0.000 A 
ATOM     24  C   UNL     1      -1.069  12.117  20.730  0.00  0.00    +0.000 A 
ATOM     25  C   UNL     1      -0.234  11.866  19.614  0.00  0.00    +0.000 A 
ATOM     26  C   UNL     1      -0.393  12.791  18.433  0.00  0.00    +0.000 C 
ATOM     27  C   UNL     1       0.697  10.804  19.665  0.00  0.00    +0.000 A 
ATOM     28  C   UNL     1       0.789  10.058  20.851  0.00  0.00    +0.000 A 
ATOM     29  C   UNL     1      -0.033  10.321  21.969  0.00  0.00    +0.000 A 
ATOM     30  C   UNL     1       0.119   9.490  23.216  0.00  0.00    +0.000 C 
ENDBRANCH  20  27
ENDBRANCH  19  20
ENDBRANCH  18  19
ENDBRANCH   1  18
TORSDOF 10
ENDMDL
MODEL 3
REMARK VINA RESULT:      -7.5      1.655      2.614
REMARK  Name = 
REMARK  13 active torsions:
REMARK  status: ('A' for Active; 'I' for Inactive)
REMARK    1  A    between atoms: C_1  and  C_2
REMARK    2  A    between atoms: C_4  and  C_5
REMARK    3  A    between atoms: C_6  and  C_7
REMARK    4  A    between atoms: C_7  and  C_9
REMARK    5  A    between atoms: C_9  and  O_10
REMARK    6  A    between atoms: O_10  and  C_11
REMARK    7  A    between atoms: C_11  and  C_13
REMARK    8  A    between atoms: C_15  and  N_16
REMARK    9  A    between atoms: C_21  and  N_22
REMARK   10  A    between atoms: N_22  and  C_23
REMARK   11  A    between atoms: C_23  and  C_24
REMARK   12  A    between atoms: C_24  and  O_25
REMARK   13  A    between atoms: C_27  and  C_28
REMARK                            x       y       z     vdW  Elec       q    Type
REMARK                         _______ _______ _______ _____ _____    ______ ____
ROOT
ATOM      1  C   UNL     1       2.659   7.324  18.469  0.00  0.00    +0.000 C 
ATOM      2  O   UNL     1       2.302   7.371  19.633  0.00  0.00    +0.000 OA
ENDROOT
BRANCH   1   3
ATOM      3  C   UNL     1       3.496   6.226  17.870  0.00  0.00    +0.000 A 
ATOM      4  C   UNL     1       4.794   6.577  17.432  0.00  0.00    +0.000 A 
ATOM      5  C   UNL     1       5.615   5.627  16.815  0.00  0.00    +0.000 A 
ATOM      6  C   UNL     1       5.185   4.314  16.662  0.00  0.00    +0.000 A 
ATOM      7  C   UNL     1       3.915   3.961  17.101  0.00  0.00    +0.000 A 
ATOM      8  C   UNL     1       3.040   4.883  17.718  0.00  0.00    +0.000 A 
BRANCH   5   9
ATOM      9  N   UNL     1       6.908   6.022  16.252  0.00  0.00    +0.000 N 
ATOM     10  O   UNL     1       7.570   6.867  16.868  0.00  0.00    +0.000 OA
ATOM     11  O   UNL     1       7.252   5.497  15.183  0.00  0.00    +0.000 OA
ENDBRANCH   5   9
BRANCH   8  12
ATOM     12  N   UNL     1       1.730   4.448  18.061  0.00  0.00    +0.000 N 
ATOM     13  H   UNL     1       1.484   3.692  17.412  0.00  0.00    +0.000 HD
BRANCH  12  14
ATOM     14  C   UNL     1       1.521   3.997  19.462  0.00  0.00    +0.000 C 
BRANCH  14  15
ATOM     15  C   UNL     1       1.795   2.507  19.642  0.00  0.00    +0.000 C 
BRANCH  15  16
ATOM     16  O   UNL     1       1.251   1.762  18.559  0.00  0.00    +0.000 OA
ATOM     17  H   UNL     1       0.924   0.935  18.953  0.00  0.00    +0.000 HD
ENDBRANCH  15  16
ENDBRANCH  14  15
ENDBRANCH  12  14
ENDBRANCH   8  12
ENDBRANCH   1   3
BRANCH   1  18
ATOM     18  O   UNL     1       2.432   8.301  17.536  0.00  0.00    +0.000 OA
BRANCH  18  19
ATOM     19  C   UNL     1       2.005   9.571  18.038  0.00  0.00    +0.000 C 
BRANCH  19  20
ATOM     20  C   UNL     1       0.492   9.778  18.249  0.00  0.00    +0.000 C 
ATOM     21  O   UNL     1      -0.303   9.440  17.364  0.00  0.00    +0.000 OA
BRANCH  20  27
ATOM     22  C   UNL     1      -1.576  12.208  23.181  0.00  0.00    +0.000 C 
ATOM     23  C   UNL     1      -0.996  11.583  21.937  0.00  0.00    +0.000 A 
ATOM     24  C   UNL     1      -1.084  12.276  20.725  0.00  0.00    +0.000 A 
ATOM     25  C   UNL     1      -0.590  11.724  19.518  0.00  0.00    +0.000 A 
ATOM     26  C   UNL     1      -0.710  12.587  18.286  0.00  0.00    +0.000 C 
ATOM     27  C   UNL     1      -0.009  10.436  19.526  0.00  0.00    +0.000 A 
ATOM     28  C   UNL     1       0.100   9.764  20.754  0.00  0.00    +0.000 A 
ATOM     29  C   UNL     1      -0.377  10.324  21.960  0.00  0.00    +0.000 A 
ATOM     30  C   UNL     1      -0.225   9.557  23.247  0.00  0.00    +0.000 C 
ENDBRANCH  20  27
ENDBRANCH  19  20
ENDBRANCH  18  19
ENDBRANCH   1  18
TORSDOF 10
ENDMDL
MODEL 4
REMARK VINA RESULT:      -7.5      1.004      1.047
REMARK  Name = 
REMARK  13 active torsions:
REMARK  status: ('A' for Active; 'I' for Inactive)
REMARK    1  A    between atoms: C_1  and  C_2
REMARK    2  A    between atoms: C_4  and  C_5
REMARK    3  A    between atoms: C_6  and  C_7
REMARK    4  A    between atoms: C_7  and  C_9
REMARK    5  A    between atoms: C_9  and  O_10
REMARK    6  A    between atoms: O_10  and  C_11
REMARK    7  A    between atoms: C_11  and  C_13
REMARK    8  A    between atoms: C_15  and  N_16
REMARK    9  A    between atoms: C_21  and  N_22
REMARK   10  A    between atoms: N_22  and  C_23
REMARK   11  A    between atoms: C_23  and  C_24
REMARK   12  A    between atoms: C_24  and  O_25
REMARK   13  A    between atoms: C_27  and  C_28
REMARK                            x       y       z     vdW  Elec       q    Type
REMARK                         _______ _______ _______ _____ _____    ______ ____
ROOT
ATOM      1  C   UNL     1       2.193   6.724  19.529  0.00  0.00    +0.000 C 
ATOM      2  O   UNL     1       1.757   6.414  20.623  0.00  0.00    +0.000 OA
ENDROOT
BRANCH   1   3
ATOM      3  C   UNL     1       2.909   5.789  18.592  0.00  0.00    +0.000 A 
ATOM      4  C   UNL     1       4.042   6.300  17.918  0.00  0.00    +0.000 A 
ATOM      5  C   UNL     1       4.731   5.512  16.990  0.00  0.00    +0.000 A 
ATOM      6  C   UNL     1       4.340   4.201  16.748  0.00  0.00    +0.000 A 
ATOM      7  C   UNL     1       3.235   3.689  17.417  0.00  0.00    +0.000 A 
ATOM      8  C   UNL     1       2.495   4.445  18.354  0.00  0.00    +0.000 A 
BRANCH   5   9
ATOM      9  N   UNL     1       5.825   6.085  16.202  0.00  0.00    +0.000 N 
ATOM     10  O   UNL     1       5.577   6.437  15.042  0.00  0.00    +0.000 OA
ATOM     11  O   UNL     1       6.938   6.166  16.742  0.00  0.00    +0.000 OA
ENDBRANCH   5   9
BRANCH   8  12
ATOM     12  N   UNL     1       1.332   3.860  18.927  0.00  0.00    +0.000 N 
ATOM     13  H   UNL     1       0.710   3.604  18.152  0.00  0.00    +0.000 HD
BRANCH  12  14
ATOM     14  C   UNL     1       1.541   2.687  19.816  0.00  0.00    +0.000 C 
BRANCH  14  15
ATOM     15  C   UNL     1       2.534   2.976  20.938  0.00  0.00    +0.000 C 
BRANCH  15  16
ATOM     16  O   UNL     1       1.929   2.771  22.208  0.00  0.00    +0.000 OA
ATOM     17  H   UNL     1       2.652   2.853  22.855  0.00  0.00    +0.000 HD
ENDBRANCH  15  16
ENDBRANCH  14  15
ENDBRANCH  12  14
ENDBRANCH   8  12
ENDBRANCH   1   3
BRANCH   1  18
ATOM     18  O   UNL     1       2.181   7.990  19.007  0.00  0.00    +0.000 OA
BRANCH  18  19
ATOM     19  C   UNL     1       1.253   8.909  19.592  0.00  0.00    +0.000 C 
BRANCH  19  20
ATOM     20  C   UNL     1       0.924  10.187  18.796  0.00  0.00    +0.000 C 
ATOM     21  O   UNL     1       1.836  10.950  18.454  0.00  0.00    +0.000 OA
BRANCH  20  27
ATOM     22  C   UNL     1      -4.613  11.590  17.423  0.00  0.00    +0.000 C 
ATOM     23  C   UNL     1      -3.206  11.178  17.778  0.00  0.00    +0.000 A 
ATOM     24  C   UNL     1      -2.626  11.679  18.948  0.00  0.00    +0.000 A 
ATOM     25  C   UNL     1      -1.297  11.358  19.314  0.00  0.00    +0.000 A 
ATOM     26  C   UNL     1      -0.801  11.930  20.618  0.00  0.00    +0.000 C 
ATOM     27  C   UNL     1      -0.525  10.524  18.474  0.00  0.00    +0.000 A 
ATOM     28  C   UNL     1      -1.128  10.004  17.318  0.00  0.00    +0.000 A 
ATOM     29  C   UNL     1      -2.460  10.311  16.964  0.00  0.00    +0.000 A 
ATOM     30  C   UNL     1      -3.055   9.716  15.715  0.00  0.00    +0.000 C 
ENDBRANCH  20  27
ENDBRANCH  19  20
ENDBRANCH  18  19
ENDBRANCH   1  18
TORSDOF 10
ENDMDL
MODEL 5
REMARK VINA RESULT:      -7.5      1.896      2.631
REMARK  Name = 
REMARK  13 active torsions:
REMARK  status: ('A' for Active; 'I' for Inactive)
REMARK    1  A    between atoms: C_1  and  C_2
REMARK    2  A    between atoms: C_4  and  C_5
REMARK    3  A    between atoms: C_6  and  C_7
REMARK    4  A    between atoms: C_7  and  C_9
REMARK    5  A    between atoms: C_9  and  O_10
REMARK    6  A    between atoms: O_10  and  C_11
REMARK    7  A    between atoms: C_11  and  C_13
REMARK    8  A    between atoms: C_15  and  N_16
REMARK    9  A    between atoms: C_21  and  N_22
REMARK   10  A    between atoms: N_22  and  C_23
REMARK   11  A    between atoms: C_23  and  C_24
REMARK   12  A    between atoms: C_24  and  O_25
REMARK   13  A    between atoms: C_27  and  C_28
REMARK                            x       y       z     vdW  Elec       q    Type
REMARK                         _______ _______ _______ _____ _____    ______ ____
ROOT
ATOM      1  C   UNL     1       2.532   7.428  18.707  0.00  0.00    +0.000 C 
ATOM      2  O   UNL     1       2.179   7.538  19.868  0.00  0.00    +0.000 OA
ENDROOT
BRANCH   1   3
ATOM      3  C   UNL     1       3.256   6.239  18.137  0.00  0.00    +0.000 A 
ATOM      4  C   UNL     1       4.406   6.501  17.358  0.00  0.00    +0.000 A 
ATOM      5  C   UNL     1       5.103   5.453  16.748  0.00  0.00    +0.000 A 
ATOM      6  C   UNL     1       4.703   4.135  16.934  0.00  0.00    +0.000 A 
ATOM      7  C   UNL     1       3.581   3.870  17.709  0.00  0.00    +0.000 A 
ATOM      8  C   UNL     1       2.832   4.891  18.336  0.00  0.00    +0.000 A 
BRANCH   5   9
ATOM      9  N   UNL     1       6.218   5.737  15.841  0.00  0.00    +0.000 N 
ATOM     10  O   UNL     1       7.321   5.986  16.345  0.00  0.00    +0.000 OA
ATOM     11  O   UNL     1       5.985   5.726  14.624  0.00  0.00    +0.000 OA
ENDBRANCH   5   9
BRANCH   8  12
ATOM     12  N   UNL     1       1.652   4.528  19.043  0.00  0.00    +0.000 N 
ATOM     13  H   UNL     1       1.261   3.704  18.572  0.00  0.00    +0.000 HD
BRANCH  12  14
ATOM     14  C   UNL     1       1.801   4.255  20.496  0.00  0.00    +0.000 C 
BRANCH  14  15
ATOM     15  C   UNL     1       1.263   2.882  20.889  0.00  0.00    +0.000 C 
BRANCH  15  16
ATOM     16  O   UNL     1       1.778   2.485  22.154  0.00  0.00    +0.000 OA
ATOM     17  H   UNL     1       1.796   3.296  22.692  0.00  0.00    +0.000 HD
ENDBRANCH  15  16
ENDBRANCH  14  15
ENDBRANCH  12  14
ENDBRANCH   8  12
ENDBRANCH   1   3
BRANCH   1  18
ATOM     18  O   UNL     1       2.407   8.402  17.752  0.00  0.00    +0.000 OA
BRANCH  18  19
ATOM     19  C   UNL     1       1.250   9.239  17.846  0.00  0.00    +0.000 C 
BRANCH  19  20
ATOM     20  C   UNL     1       1.417  10.602  18.546  0.00  0.00    +0.000 C 
ATOM     21  O   UNL     1       2.307  11.379  18.175  0.00  0.00    +0.000 OA
BRANCH  20  27
ATOM     22  C   UNL     1      -2.162  11.864  23.030  0.00  0.00    +0.000 C 
ATOM     23  C   UNL     1      -1.201  11.550  21.911  0.00  0.00    +0.000 A 
ATOM     24  C   UNL     1      -1.245  12.317  20.742  0.00  0.00    +0.000 A 
ATOM     25  C   UNL     1      -0.394  12.046  19.644  0.00  0.00    +0.000 A 
ATOM     26  C   UNL     1      -0.512  12.970  18.457  0.00  0.00    +0.000 C 
ATOM     27  C   UNL     1       0.515  10.966  19.716  0.00  0.00    +0.000 A 
ATOM     28  C   UNL     1       0.570  10.223  20.906  0.00  0.00    +0.000 A 
ATOM     29  C   UNL     1      -0.268  10.506  22.007  0.00  0.00    +0.000 A 
ATOM     30  C   UNL     1      -0.156   9.677  23.259  0.00  0.00    +0.000 C 
ENDBRANCH  20  27
ENDBRANCH  19  20
ENDBRANCH  18  19
ENDBRANCH   1  18
TORSDOF 10
ENDMDL
MODEL 6
REMARK VINA RESULT:      -7.4      3.350      7.928
REMARK  Name = 
REMARK  13 active torsions:
REMARK  status: ('A' for Active; 'I' for Inactive)
REMARK    1  A    between atoms: C_1  and  C_2
REMARK    2  A    between atoms: C_4  and  C_5
REMARK    3  A    between atoms: C_6  and  C_7
REMARK    4  A    between atoms: C_7  and  C_9
REMARK    5  A    between atoms: C_9  and  O_10
REMARK    6  A    between atoms: O_10  and  C_11
REMARK    7  A    between atoms: C_11  and  C_13
REMARK    8  A    between atoms: C_15  and  N_16
REMARK    9  A    between atoms: C_21  and  N_22
REMARK   10  A    between atoms: N_22  and  C_23
REMARK   11  A    between atoms: C_23  and  C_24
REMARK   12  A    between atoms: C_24  and  O_25
REMARK   13  A    between atoms: C_27  and  C_28
REMARK                            x       y       z     vdW  Elec       q    Type
REMARK                         _______ _______ _______ _____ _____    ______ ____
ROOT
ATOM      1  C   UNL     1       3.092   7.269  17.833  0.00  0.00    +0.000 C 
ATOM      2  O   UNL     1       2.748   8.436  17.764  0.00  0.00    +0.000 OA
ENDROOT
BRANCH   1   3
ATOM      3  C   UNL     1       2.468   6.241  18.738  0.00  0.00    +0.000 A 
ATOM      4  C   UNL     1       2.234   4.960  18.188  0.00  0.00    +0.000 A 
ATOM      5  C   UNL     1       1.609   3.966  18.947  0.00  0.00    +0.000 A 
ATOM      6  C   UNL     1       1.248   4.207  20.267  0.00  0.00    +0.000 A 
ATOM      7  C   UNL     1       1.487   5.460  20.818  0.00  0.00    +0.000 A 
ATOM      8  C   UNL     1       2.103   6.504  20.092  0.00  0.00    +0.000 A 
BRANCH   5   9
ATOM      9  N   UNL     1       1.255   2.682  18.336  0.00  0.00    +0.000 N 
ATOM     10  O   UNL     1       1.981   2.257  17.429  0.00  0.00    +0.000 OA
ATOM     11  O   UNL     1       0.239   2.108  18.754  0.00  0.00    +0.000 OA
ENDBRANCH   5   9
BRANCH   8  12
ATOM     12  N   UNL     1       2.233   7.776  20.715  0.00  0.00    +0.000 N 
ATOM     13  H   UNL     1       2.876   8.330  20.137  0.00  0.00    +0.000 HD
BRANCH  12  14
ATOM     14  C   UNL     1       0.978   8.539  20.946  0.00  0.00    +0.000 C 
BRANCH  14  15
ATOM     15  C   UNL     1       0.947   9.206  22.318  0.00  0.00    +0.000 C 
BRANCH  15  16
ATOM     16  O   UNL     1       2.256   9.286  22.867  0.00  0.00    +0.000 OA
ATOM     17  H   UNL     1       2.519   8.365  23.044  0.00  0.00    +0.000 HD
ENDBRANCH  15  16
ENDBRANCH  14  15
ENDBRANCH  12  14
ENDBRANCH   8  12
ENDBRANCH   1   3
BRANCH   1  18
ATOM     18  O   UNL     1       4.154   6.721  17.165  0.00  0.00    +0.000 OA
BRANCH  18  19
ATOM     19  C   UNL     1       5.440   6.890  17.769  0.00  0.00    +0.000 C 
BRANCH  19  20
ATOM     20  C   UNL     1       6.541   5.880  17.388  0.00  0.00    +0.000 C 
ATOM     21  O   UNL     1       7.494   5.693  18.155  0.00  0.00    +0.000 OA
BRANCH  20  27
ATOM     22  C   UNL     1       6.176   3.207  12.171  0.00  0.00    +0.000 C 
ATOM     23  C   UNL     1       6.323   3.882  13.511  0.00  0.00    +0.000 A 
ATOM     24  C   UNL     1       5.589   3.397  14.599  0.00  0.00    +0.000 A 
ATOM     25  C   UNL     1       5.657   4.012  15.873  0.00  0.00    +0.000 A 
ATOM     26  C   UNL     1       4.849   3.371  16.973  0.00  0.00    +0.000 C 
ATOM     27  C   UNL     1       6.471   5.154  16.053  0.00  0.00    +0.000 A 
ATOM     28  C   UNL     1       7.224   5.612  14.962  0.00  0.00    +0.000 A 
ATOM     29  C   UNL     1       7.169   4.987  13.696  0.00  0.00    +0.000 A 
ATOM     30  C   UNL     1       8.006   5.521  12.565  0.00  0.00    +0.000 C 
ENDBRANCH  20  27
ENDBRANCH  19  20
ENDBRANCH  18  19
ENDBRANCH   1  18
TORSDOF 10
ENDMDL
MODEL 7
REMARK VINA RESULT:      -7.3      0.929      1.124
REMARK  Name = 
REMARK  13 active torsions:
REMARK  status: ('A' for Active; 'I' for Inactive)
REMARK    1  A    between atoms: C_1  and  C_2
REMARK    2  A    between atoms: C_4  and  C_5
REMARK    3  A    between atoms: C_6  and  C_7
REMARK    4  A    between atoms: C_7  and  C_9
REMARK    5  A    between atoms: C_9  and  O_10
REMARK    6  A    between atoms: O_10  and  C_11
REMARK    7  A    between atoms: C_11  and  C_13
REMARK    8  A    between atoms: C_15  and  N_16
REMARK    9  A    between atoms: C_21  and  N_22
REMARK   10  A    between atoms: N_22  and  C_23
REMARK   11  A    between atoms: C_23  and  C_24
REMARK   12  A    between atoms: C_24  and  O_25
REMARK   13  A    between atoms: C_27  and  C_28
REMARK                            x       y       z     vdW  Elec       q    Type
REMARK                         _______ _______ _______ _____ _____    ______ ____
ROOT
ATOM      1  C   UNL     1       2.582   7.098  18.809  0.00  0.00    +0.000 C 
ATOM      2  O   UNL     1       1.901   6.882  19.797  0.00  0.00    +0.000 OA
ENDROOT
BRANCH   1   3
ATOM      3  C   UNL     1       3.375   6.057  18.066  0.00  0.00    +0.000 A 
ATOM      4  C   UNL     1       4.706   6.389  17.724  0.00  0.00    +0.000 A 
ATOM      5  C   UNL     1       5.492   5.497  16.987  0.00  0.00    +0.000 A 
ATOM      6  C   UNL     1       4.992   4.254  16.617  0.00  0.00    +0.000 A 
ATOM      7  C   UNL     1       3.689   3.917  16.961  0.00  0.00    +0.000 A 
ATOM      8  C   UNL     1       2.848   4.785  17.693  0.00  0.00    +0.000 A 
BRANCH   5   9
ATOM      9  N   UNL     1       6.825   5.894  16.527  0.00  0.00    +0.000 N 
ATOM     10  O   UNL     1       7.157   7.077  16.676  0.00  0.00    +0.000 OA
ATOM     11  O   UNL     1       7.533   5.023  16.002  0.00  0.00    +0.000 OA
ENDBRANCH   5   9
BRANCH   8  12
ATOM     12  N   UNL     1       1.503   4.385  17.928  0.00  0.00    +0.000 N 
ATOM     13  H   UNL     1       1.111   4.101  17.023  0.00  0.00    +0.000 HD
BRANCH  12  14
ATOM     14  C   UNL     1       1.292   3.307  18.930  0.00  0.00    +0.000 C 
BRANCH  14  15
ATOM     15  C   UNL     1       0.967   3.856  20.316  0.00  0.00    +0.000 C 
BRANCH  15  16
ATOM     16  O   UNL     1       0.926   2.806  21.274  0.00  0.00    +0.000 OA
ATOM     17  H   UNL     1       0.601   3.217  22.095  0.00  0.00    +0.000 HD
ENDBRANCH  15  16
ENDBRANCH  14  15
ENDBRANCH  12  14
ENDBRANCH   8  12
ENDBRANCH   1   3
BRANCH   1  18
ATOM     18  O   UNL     1       2.806   8.334  18.263  0.00  0.00    +0.000 OA
BRANCH  18  19
ATOM     19  C   UNL     1       1.660   9.017  17.746  0.00  0.00    +0.000 C 
BRANCH  19  20
ATOM     20  C   UNL     1       0.767   9.768  18.753  0.00  0.00    +0.000 C 
ATOM     21  O   UNL     1       1.167   9.953  19.910  0.00  0.00    +0.000 OA
BRANCH  20  27
ATOM     22  C   UNL     1      -4.500  11.686  16.998  0.00  0.00    +0.000 C 
ATOM     23  C   UNL     1      -3.167  11.144  17.450  0.00  0.00    +0.000 A 
ATOM     24  C   UNL     1      -2.619  11.605  18.651  0.00  0.00    +0.000 A 
ATOM     25  C   UNL     1      -1.355  11.160  19.109  0.00  0.00    +0.000 A 
ATOM     26  C   UNL     1      -0.892  11.703  20.438  0.00  0.00    +0.000 C 
ATOM     27  C   UNL     1      -0.616  10.241  18.331  0.00  0.00    +0.000 A 
ATOM     28  C   UNL     1      -1.191   9.763  17.143  0.00  0.00    +0.000 A 
ATOM     29  C   UNL     1      -2.460  10.194  16.697  0.00  0.00    +0.000 A 
ATOM     30  C   UNL     1      -3.027   9.640  15.417  0.00  0.00    +0.000 C 
ENDBRANCH  20  27
ENDBRANCH  19  20
ENDBRANCH  18  19
ENDBRANCH   1  18
TORSDOF 10
ENDMDL
MODEL 8
REMARK VINA RESULT:      -7.2      1.839      2.491
REMARK  Name = 
REMARK  13 active torsions:
REMARK  status: ('A' for Active; 'I' for Inactive)
REMARK    1  A    between atoms: C_1  and  C_2
REMARK    2  A    between atoms: C_4  and  C_5
REMARK    3  A    between atoms: C_6  and  C_7
REMARK    4  A    between atoms: C_7  and  C_9
REMARK    5  A    between atoms: C_9  and  O_10
REMARK    6  A    between atoms: O_10  and  C_11
REMARK    7  A    between atoms: C_11  and  C_13
REMARK    8  A    between atoms: C_15  and  N_16
REMARK    9  A    between atoms: C_21  and  N_22
REMARK   10  A    between atoms: N_22  and  C_23
REMARK   11  A    between atoms: C_23  and  C_24
REMARK   12  A    between atoms: C_24  and  O_25
REMARK   13  A    between atoms: C_27  and  C_28
REMARK                            x       y       z     vdW  Elec       q    Type
REMARK                         _______ _______ _______ _____ _____    ______ ____
ROOT
ATOM      1  C   UNL     1       2.492   6.752  18.708  0.00  0.00    +0.000 C 
ATOM      2  O   UNL     1       2.124   6.650  19.865  0.00  0.00    +0.000 OA
ENDROOT
BRANCH   1   3
ATOM      3  C   UNL     1       3.371   5.761  17.994  0.00  0.00    +0.000 A 
ATOM      4  C   UNL     1       4.657   6.204  17.610  0.00  0.00    +0.000 A 
ATOM      5  C   UNL     1       5.514   5.361  16.895  0.00  0.00    +0.000 A 
ATOM      6  C   UNL     1       5.132   4.060  16.589  0.00  0.00    +0.000 A 
ATOM      7  C   UNL     1       3.874   3.615  16.974  0.00  0.00    +0.000 A 
ATOM      8  C   UNL     1       2.964   4.428  17.686  0.00  0.00    +0.000 A 
BRANCH   5   9
ATOM      9  N   UNL     1       6.794   5.864  16.390  0.00  0.00    +0.000 N 
ATOM     10  O   UNL     1       7.508   5.082  15.749  0.00  0.00    +0.000 OA
ATOM     11  O   UNL     1       7.092   7.039  16.651  0.00  0.00    +0.000 OA
ENDBRANCH   5   9
BRANCH   8  12
ATOM     12  N   UNL     1       1.670   3.910  17.967  0.00  0.00    +0.000 N 
ATOM     13  H   UNL     1       1.180   3.821  17.069  0.00  0.00    +0.000 HD
BRANCH  12  14
ATOM     14  C   UNL     1       1.610   2.621  18.704  0.00  0.00    +0.000 C 
BRANCH  14  15
ATOM     15  C   UNL     1       1.002   2.773  20.095  0.00  0.00    +0.000 C 
BRANCH  15  16
ATOM     16  O   UNL     1       0.603   4.119  20.324  0.00  0.00    +0.000 OA
ATOM     17  H   UNL     1       1.278   4.490  20.920  0.00  0.00    +0.000 HD
ENDBRANCH  15  16
ENDBRANCH  14  15
ENDBRANCH  12  14
ENDBRANCH   8  12
ENDBRANCH   1   3
BRANCH   1  18
ATOM     18  O   UNL     1       2.240   7.824  17.894  0.00  0.00    +0.000 OA
BRANCH  18  19
ATOM     19  C   UNL     1       2.139   9.099  18.537  0.00  0.00    +0.000 C 
BRANCH  19  20
ATOM     20  C   UNL     1       0.756   9.779  18.548  0.00  0.00    +0.000 C 
ATOM     21  O   UNL     1      -0.036   9.578  17.618  0.00  0.00    +0.000 OA
BRANCH  20  27
ATOM     22  C   UNL     1      -0.824  13.413  22.884  0.00  0.00    +0.000 C 
ATOM     23  C   UNL     1      -0.384  12.457  21.804  0.00  0.00    +0.000 A 
ATOM     24  C   UNL     1       0.180  12.970  20.632  0.00  0.00    +0.000 A 
ATOM     25  C   UNL     1       0.578  12.123  19.568  0.00  0.00    +0.000 A 
ATOM     26  C   UNL     1       1.209  12.796  18.374  0.00  0.00    +0.000 C 
ATOM     27  C   UNL     1       0.390  10.727  19.680  0.00  0.00    +0.000 A 
ATOM     28  C   UNL     1      -0.150  10.223  20.874  0.00  0.00    +0.000 A 
ATOM     29  C   UNL     1      -0.530  11.068  21.941  0.00  0.00    +0.000 A 
ATOM     30  C   UNL     1      -1.097  10.466  23.200  0.00  0.00    +0.000 C 
ENDBRANCH  20  27
ENDBRANCH  19  20
ENDBRANCH  18  19
ENDBRANCH   1  18
TORSDOF 10
ENDMDL
MODEL 9
REMARK VINA RESULT:      -7.2      3.831      6.225
REMARK  Name = 
REMARK  13 active torsions:
REMARK  status: ('A' for Active; 'I' for Inactive)
REMARK    1  A    between atoms: C_1  and  C_2
REMARK    2  A    between atoms: C_4  and  C_5
REMARK    3  A    between atoms: C_6  and  C_7
REMARK    4  A    between atoms: C_7  and  C_9
REMARK    5  A    between atoms: C_9  and  O_10
REMARK    6  A    between atoms: O_10  and  C_11
REMARK    7  A    between atoms: C_11  and  C_13
REMARK    8  A    between atoms: C_15  and  N_16
REMARK    9  A    between atoms: C_21  and  N_22
REMARK   10  A    between atoms: N_22  and  C_23
REMARK   11  A    between atoms: C_23  and  C_24
REMARK   12  A    between atoms: C_24  and  O_25
REMARK   13  A    between atoms: C_27  and  C_28
REMARK                            x       y       z     vdW  Elec       q    Type
REMARK                         _______ _______ _______ _____ _____    ______ ____
ROOT
ATOM      1  C   UNL     1       5.353   3.932  16.540  0.00  0.00    +0.000 C 
ATOM      2  O   UNL     1       5.995   4.037  17.570  0.00  0.00    +0.000 OA
ENDROOT
BRANCH   1   3
ATOM      3  C   UNL     1       5.901   4.160  15.158  0.00  0.00    +0.000 A 
ATOM      4  C   UNL     1       5.290   3.447  14.100  0.00  0.00    +0.000 A 
ATOM      5  C   UNL     1       5.776   3.563  12.794  0.00  0.00    +0.000 A 
ATOM      6  C   UNL     1       6.838   4.413  12.507  0.00  0.00    +0.000 A 
ATOM      7  C   UNL     1       7.434   5.125  13.540  0.00  0.00    +0.000 A 
ATOM      8  C   UNL     1       6.992   5.035  14.879  0.00  0.00    +0.000 A 
BRANCH   5   9
ATOM      9  N   UNL     1       5.222   2.730  11.723  0.00  0.00    +0.000 N 
ATOM     10  O   UNL     1       5.875   1.740  11.369  0.00  0.00    +0.000 OA
ATOM     11  O   UNL     1       4.141   3.077  11.227  0.00  0.00    +0.000 OA
ENDBRANCH   5   9
BRANCH   8  12
ATOM     12  N   UNL     1       7.717   5.741  15.879  0.00  0.00    +0.000 N 
ATOM     13  H   UNL     1       8.562   6.115  15.431  0.00  0.00    +0.000 HD
BRANCH  12  14
ATOM     14  C   UNL     1       6.995   6.832  16.584  0.00  0.00    +0.000 C 
BRANCH  14  15
ATOM     15  C   UNL     1       7.686   7.247  17.880  0.00  0.00    +0.000 C 
BRANCH  15  16
ATOM     16  O   UNL     1       7.503   6.257  18.884  0.00  0.00    +0.000 OA
ATOM     17  H   UNL     1       8.210   5.604  18.735  0.00  0.00    +0.000 HD
ENDBRANCH  15  16
ENDBRANCH  14  15
ENDBRANCH  12  14
ENDBRANCH   8  12
ENDBRANCH   1   3
BRANCH   1  18
ATOM     18  O   UNL     1       4.010   3.673  16.474  0.00  0.00    +0.000 OA
BRANCH  18  19
ATOM     19  C   UNL     1       3.480   2.803  17.478  0.00  0.00    +0.000 C 
BRANCH  19  20
ATOM     20  C   UNL     1       2.131   3.192  18.115  0.00  0.00    +0.000 C 
ATOM     21  O   UNL     1       1.161   2.430  18.012  0.00  0.00    +0.000 OA
BRANCH  20  27
ATOM     22  C   UNL     1       1.758   8.369  20.864  0.00  0.00    +0.000 C 
ATOM     23  C   UNL     1       1.815   7.055  20.125  0.00  0.00    +0.000 A 
ATOM     24  C   UNL     1       1.562   5.871  20.825  0.00  0.00    +0.000 A 
ATOM     25  C   UNL     1       1.636   4.606  20.194  0.00  0.00    +0.000 A 
ATOM     26  C   UNL     1       1.304   3.408  21.048  0.00  0.00    +0.000 C 
ATOM     27  C   UNL     1       1.990   4.528  18.828  0.00  0.00    +0.000 A 
ATOM     28  C   UNL     1       2.211   5.725  18.129  0.00  0.00    +0.000 A 
ATOM     29  C   UNL     1       2.119   6.988  18.757  0.00  0.00    +0.000 A 
ATOM     30  C   UNL     1       2.361   8.238  17.952  0.00  0.00    +0.000 C 
ENDBRANCH  20  27
ENDBRANCH  19  20
ENDBRANCH  18  19
ENDBRANCH   1  18
TORSDOF 10
ENDMDL
