MODEL 1
REMARK VINA RESULT:      -5.8      0.000      0.000
REMARK  Name = 
REMARK  2 active torsions:
REMARK  status: ('A' for Active; 'I' for Inactive)
REMARK    1  A    between atoms: C_5  and  S_6
REMARK    2  A    between atoms: S_6  and  C_7
REMARK                            x       y       z     vdW  Elec       q    Type
REMARK                         _______ _______ _______ _____ _____    ______ ____
ROOT
ATOM      1  N   UNL     1       7.754   4.480  16.591  0.00  0.00    +0.000 N 
ATOM      2  C   UNL     1       6.607   5.141  16.802  0.00  0.00    +0.000 A 
ATOM      3  N   UNL     1       6.171   6.135  16.058  0.00  0.00    +0.000 NA
ATOM      4  N   UNL     1       4.944   6.617  16.482  0.00  0.00    +0.000 NA
ATOM      5  C   UNL     1       4.490   5.957  17.522  0.00  0.00    +0.000 A 
ATOM      6  S   UNL     1       5.551   4.736  18.096  0.00  0.00    +0.000 S 
ATOM      7  H   UNL     1       8.398   4.820  15.884  0.00  0.00    +0.000 HD
ATOM      8  H   UNL     1       8.126   3.827  17.270  0.00  0.00    +0.000 HD
ENDROOT
BRANCH   5   9
ATOM      9  S   UNL     1       2.937   6.274  18.270  0.00  0.00    +0.000 S 
BRANCH   9  10
ATOM     10  C   UNL     1       2.497   4.659  18.979  0.00  0.00    +0.000 C 
ATOM     11  C   UNL     1       1.652   4.744  20.248  0.00  0.00    +0.000 C 
ATOM     12  C   UNL     1       1.034   3.357  20.361  0.00  0.00    +0.000 C 
ATOM     13  C   UNL     1       0.876   2.852  18.930  0.00  0.00    +0.000 C 
ATOM     14  C   UNL     1       1.581   3.874  18.035  0.00  0.00    +0.000 C 
ENDBRANCH   9  10
ENDBRANCH   5   9
TORSDOF 2
ENDMDL
MODEL 2
REMARK VINA RESULT:      -5.8      2.254      2.450
REMARK  Name = 
REMARK  2 active torsions:
REMARK  status: ('A' for Active; 'I' for Inactive)
REMARK    1  A    between atoms: C_5  and  S_6
REMARK    2  A    between atoms: S_6  and  C_7
REMARK                            x       y       z     vdW  Elec       q    Type
REMARK                         _______ _______ _______ _____ _____    ______ ____
ROOT
ATOM      1  N   UNL     1       8.381   6.997  18.961  0.00  0.00    +0.000 N 
ATOM      2  C   UNL     1       7.444   6.056  18.780  0.00  0.00    +0.000 A 
ATOM      3  N   UNL     1       7.021   5.234  19.716  0.00  0.00    +0.000 NA
ATOM      4  N   UNL     1       6.028   4.381  19.266  0.00  0.00    +0.000 NA
ATOM      5  C   UNL     1       5.725   4.601  18.007  0.00  0.00    +0.000 A 
ATOM      6  S   UNL     1       6.669   5.827  17.263  0.00  0.00    +0.000 S 
ATOM      7  H   UNL     1       8.889   7.027  19.839  0.00  0.00    +0.000 HD
ATOM      8  H   UNL     1       8.786   7.503  18.182  0.00  0.00    +0.000 HD
ENDROOT
BRANCH   5   9
ATOM      9  S   UNL     1       4.468   3.736  17.145  0.00  0.00    +0.000 S 
BRANCH   9  10
ATOM     10  C   UNL     1       3.267   3.362  18.458  0.00  0.00    +0.000 C 
ATOM     11  C   UNL     1       2.434   4.562  18.901  0.00  0.00    +0.000 C 
ATOM     12  C   UNL     1       1.239   3.929  19.604  0.00  0.00    +0.000 C 
ATOM     13  C   UNL     1       1.012   2.587  18.913  0.00  0.00    +0.000 C 
ATOM     14  C   UNL     1       2.193   2.390  17.961  0.00  0.00    +0.000 C 
ENDBRANCH   9  10
ENDBRANCH   5   9
TORSDOF 2
ENDMDL
MODEL 3
REMARK VINA RESULT:      -5.8      1.658      2.154
REMARK  Name = 
REMARK  2 active torsions:
REMARK  status: ('A' for Active; 'I' for Inactive)
REMARK    1  A    between atoms: C_5  and  S_6
REMARK    2  A    between atoms: S_6  and  C_7
REMARK                            x       y       z     vdW  Elec       q    Type
REMARK                         _______ _______ _______ _____ _____    ______ ____
ROOT
ATOM      1  N   UNL     1       7.547   5.209  14.641  0.00  0.00    +0.000 N 
ATOM      2  C   UNL     1       7.076   5.030  15.883  0.00  0.00    +0.000 A 
ATOM      3  N   UNL     1       7.771   4.525  16.880  0.00  0.00    +0.000 NA
ATOM      4  N   UNL     1       7.050   4.479  18.061  0.00  0.00    +0.000 NA
ATOM      5  C   UNL     1       5.839   4.968  17.917  0.00  0.00    +0.000 A 
ATOM      6  S   UNL     1       5.471   5.468  16.317  0.00  0.00    +0.000 S 
ATOM      7  H   UNL     1       8.461   4.839  14.401  0.00  0.00    +0.000 HD
ATOM      8  H   UNL     1       6.939   5.457  13.870  0.00  0.00    +0.000 HD
ENDROOT
BRANCH   5   9
ATOM      9  S   UNL     1       4.688   5.112  19.230  0.00  0.00    +0.000 S 
BRANCH   9  10
ATOM     10  C   UNL     1       3.214   4.283  18.564  0.00  0.00    +0.000 C 
ATOM     11  C   UNL     1       3.392   2.785  18.331  0.00  0.00    +0.000 C 
ATOM     12  C   UNL     1       1.964   2.262  18.250  0.00  0.00    +0.000 C 
ATOM     13  C   UNL     1       1.134   3.176  19.147  0.00  0.00    +0.000 C 
ATOM     14  C   UNL     1       2.060   4.318  19.570  0.00  0.00    +0.000 C 
ENDBRANCH   9  10
ENDBRANCH   5   9
TORSDOF 2
ENDMDL
MODEL 4
REMARK VINA RESULT:      -5.7      1.447      1.905
REMARK  Name = 
REMARK  2 active torsions:
REMARK  status: ('A' for Active; 'I' for Inactive)
REMARK    1  A    between atoms: C_5  and  S_6
REMARK    2  A    between atoms: S_6  and  C_7
REMARK                            x       y       z     vdW  Elec       q    Type
REMARK                         _______ _______ _______ _____ _____    ______ ____
ROOT
ATOM      1  N   UNL     1       7.802   4.329  17.071  0.00  0.00    +0.000 N 
ATOM      2  C   UNL     1       6.635   4.663  17.641  0.00  0.00    +0.000 A 
ATOM      3  N   UNL     1       6.341   4.469  18.909  0.00  0.00    +0.000 NA
ATOM      4  N   UNL     1       5.079   4.933  19.238  0.00  0.00    +0.000 NA
ATOM      5  C   UNL     1       4.472   5.478  18.210  0.00  0.00    +0.000 A 
ATOM      6  S   UNL     1       5.371   5.413  16.749  0.00  0.00    +0.000 S 
ATOM      7  H   UNL     1       8.477   3.793  17.605  0.00  0.00    +0.000 HD
ATOM      8  H   UNL     1       7.932   4.355  16.066  0.00  0.00    +0.000 HD
ENDROOT
BRANCH   5   9
ATOM      9  S   UNL     1       2.885   6.217  18.298  0.00  0.00    +0.000 S 
BRANCH   9  10
ATOM     10  C   UNL     1       1.780   4.779  18.434  0.00  0.00    +0.000 C 
ATOM     11  C   UNL     1       2.355   3.493  17.845  0.00  0.00    +0.000 C 
ATOM     12  C   UNL     1       1.511   2.398  18.484  0.00  0.00    +0.000 C 
ATOM     13  C   UNL     1       1.106   2.930  19.855  0.00  0.00    +0.000 C 
ATOM     14  C   UNL     1       1.559   4.391  19.899  0.00  0.00    +0.000 C 
ENDBRANCH   9  10
ENDBRANCH   5   9
TORSDOF 2
ENDMDL
MODEL 5
REMARK VINA RESULT:      -5.6      1.359      1.369
REMARK  Name = 
REMARK  2 active torsions:
REMARK  status: ('A' for Active; 'I' for Inactive)
REMARK    1  A    between atoms: C_5  and  S_6
REMARK    2  A    between atoms: S_6  and  C_7
REMARK                            x       y       z     vdW  Elec       q    Type
REMARK                         _______ _______ _______ _____ _____    ______ ____
ROOT
ATOM      1  N   UNL     1       7.418   5.281  15.132  0.00  0.00    +0.000 N 
ATOM      2  C   UNL     1       6.290   5.141  15.843  0.00  0.00    +0.000 A 
ATOM      3  N   UNL     1       5.748   3.986  16.164  0.00  0.00    +0.000 NA
ATOM      4  N   UNL     1       4.602   4.130  16.926  0.00  0.00    +0.000 NA
ATOM      5  C   UNL     1       4.327   5.391  17.168  0.00  0.00    +0.000 A 
ATOM      6  S   UNL     1       5.417   6.498  16.436  0.00  0.00    +0.000 S 
ATOM      7  H   UNL     1       7.842   4.461  14.711  0.00  0.00    +0.000 HD
ATOM      8  H   UNL     1       7.718   6.182  14.779  0.00  0.00    +0.000 HD
ENDROOT
BRANCH   5   9
ATOM      9  S   UNL     1       2.978   5.920  18.153  0.00  0.00    +0.000 S 
BRANCH   9  10
ATOM     10  C   UNL     1       2.523   4.408  19.054  0.00  0.00    +0.000 C 
ATOM     11  C   UNL     1       1.921   4.662  20.434  0.00  0.00    +0.000 C 
ATOM     12  C   UNL     1       1.208   3.356  20.760  0.00  0.00    +0.000 C 
ATOM     13  C   UNL     1       0.761   2.779  19.420  0.00  0.00    +0.000 C 
ATOM     14  C   UNL     1       1.391   3.662  18.341  0.00  0.00    +0.000 C 
ENDBRANCH   9  10
ENDBRANCH   5   9
TORSDOF 2
ENDMDL
MODEL 6
REMARK VINA RESULT:      -5.6      1.556      1.714
REMARK  Name = 
REMARK  2 active torsions:
REMARK  status: ('A' for Active; 'I' for Inactive)
REMARK    1  A    between atoms: C_5  and  S_6
REMARK    2  A    between atoms: S_6  and  C_7
REMARK                            x       y       z     vdW  Elec       q    Type
REMARK                         _______ _______ _______ _____ _____    ______ ____
ROOT
ATOM      1  N   UNL     1       7.617   4.851  15.637  0.00  0.00    +0.000 N 
ATOM      2  C   UNL     1       6.872   4.802  16.750  0.00  0.00    +0.000 A 
ATOM      3  N   UNL     1       7.225   4.185  17.858  0.00  0.00    +0.000 NA
ATOM      4  N   UNL     1       6.281   4.316  18.862  0.00  0.00    +0.000 NA
ATOM      5  C   UNL     1       5.255   5.041  18.481  0.00  0.00    +0.000 A 
ATOM      6  S   UNL     1       5.338   5.571  16.850  0.00  0.00    +0.000 S 
ATOM      7  H   UNL     1       8.464   4.295  15.583  0.00  0.00    +0.000 HD
ATOM      8  H   UNL     1       7.247   5.203  14.762  0.00  0.00    +0.000 HD
ENDROOT
BRANCH   5   9
ATOM      9  S   UNL     1       3.912   5.449  19.529  0.00  0.00    +0.000 S 
BRANCH   9  10
ATOM     10  C   UNL     1       3.042   3.862  19.703  0.00  0.00    +0.000 C 
ATOM     11  C   UNL     1       2.329   3.686  21.041  0.00  0.00    +0.000 C 
ATOM     12  C   UNL     1       1.327   2.570  20.769  0.00  0.00    +0.000 C 
ATOM     13  C   UNL     1       0.951   2.698  19.296  0.00  0.00    +0.000 C 
ATOM     14  C   UNL     1       1.885   3.757  18.705  0.00  0.00    +0.000 C 
ENDBRANCH   9  10
ENDBRANCH   5   9
TORSDOF 2
ENDMDL
MODEL 7
REMARK VINA RESULT:      -5.5      1.720      2.089
REMARK  Name = 
REMARK  2 active torsions:
REMARK  status: ('A' for Active; 'I' for Inactive)
REMARK    1  A    between atoms: C_5  and  S_6
REMARK    2  A    between atoms: S_6  and  C_7
REMARK                            x       y       z     vdW  Elec       q    Type
REMARK                         _______ _______ _______ _____ _____    ______ ____
ROOT
ATOM      1  N   UNL     1       8.244   6.219  19.238  0.00  0.00    +0.000 N 
ATOM      2  C   UNL     1       7.347   5.523  18.524  0.00  0.00    +0.000 A 
ATOM      3  N   UNL     1       7.607   4.922  17.382  0.00  0.00    +0.000 NA
ATOM      4  N   UNL     1       6.508   4.252  16.873  0.00  0.00    +0.000 NA
ATOM      5  C   UNL     1       5.461   4.357  17.658  0.00  0.00    +0.000 A 
ATOM      6  S   UNL     1       5.722   5.329  19.048  0.00  0.00    +0.000 S 
ATOM      7  H   UNL     1       9.159   6.399  18.842  0.00  0.00    +0.000 HD
ATOM      8  H   UNL     1       7.968   6.790  20.029  0.00  0.00    +0.000 HD
ENDROOT
BRANCH   5   9
ATOM      9  S   UNL     1       3.924   3.578  17.337  0.00  0.00    +0.000 S 
BRANCH   9  10
ATOM     10  C   UNL     1       3.088   3.662  18.949  0.00  0.00    +0.000 C 
ATOM     11  C   UNL     1       1.854   4.561  18.965  0.00  0.00    +0.000 C 
ATOM     12  C   UNL     1       1.093   4.104  20.203  0.00  0.00    +0.000 C 
ATOM     13  C   UNL     1       1.414   2.621  20.365  0.00  0.00    +0.000 C 
ATOM     14  C   UNL     1       2.500   2.302  19.335  0.00  0.00    +0.000 C 
ENDBRANCH   9  10
ENDBRANCH   5   9
TORSDOF 2
ENDMDL
MODEL 8
REMARK VINA RESULT:      -5.5      1.261      1.726
REMARK  Name = 
REMARK  2 active torsions:
REMARK  status: ('A' for Active; 'I' for Inactive)
REMARK    1  A    between atoms: C_5  and  S_6
REMARK    2  A    between atoms: S_6  and  C_7
REMARK                            x       y       z     vdW  Elec       q    Type
REMARK                         _______ _______ _______ _____ _____    ______ ____
ROOT
ATOM      1  N   UNL     1       7.520   5.293  14.624  0.00  0.00    +0.000 N 
ATOM      2  C   UNL     1       6.658   5.430  15.641  0.00  0.00    +0.000 A 
ATOM      3  N   UNL     1       5.490   6.031  15.554  0.00  0.00    +0.000 NA
ATOM      4  N   UNL     1       4.789   6.005  16.747  0.00  0.00    +0.000 NA
ATOM      5  C   UNL     1       5.446   5.369  17.689  0.00  0.00    +0.000 A 
ATOM      6  S   UNL     1       6.993   4.805  17.206  0.00  0.00    +0.000 S 
ATOM      7  H   UNL     1       7.332   5.769  13.748  0.00  0.00    +0.000 HD
ATOM      8  H   UNL     1       8.467   4.961  14.768  0.00  0.00    +0.000 HD
ENDROOT
BRANCH   5   9
ATOM      9  S   UNL     1       4.815   5.103  19.303  0.00  0.00    +0.000 S 
BRANCH   9  10
ATOM     10  C   UNL     1       3.053   4.777  18.995  0.00  0.00    +0.000 C 
ATOM     11  C   UNL     1       2.771   3.407  18.382  0.00  0.00    +0.000 C 
ATOM     12  C   UNL     1       1.291   3.186  18.665  0.00  0.00    +0.000 C 
ATOM     13  C   UNL     1       1.001   3.922  19.970  0.00  0.00    +0.000 C 
ATOM     14  C   UNL     1       2.269   4.709  20.309  0.00  0.00    +0.000 C 
ENDBRANCH   9  10
ENDBRANCH   5   9
TORSDOF 2
ENDMDL
MODEL 9
REMARK VINA RESULT:      -5.5      1.967      2.716
REMARK  Name = 
REMARK  2 active torsions:
REMARK  status: ('A' for Active; 'I' for Inactive)
REMARK    1  A    between atoms: C_5  and  S_6
REMARK    2  A    between atoms: S_6  and  C_7
REMARK                            x       y       z     vdW  Elec       q    Type
REMARK                         _______ _______ _______ _____ _____    ______ ____
ROOT
ATOM      1  N   UNL     1       6.431   3.926  13.299  0.00  0.00    +0.000 N 
ATOM      2  C   UNL     1       6.616   4.448  14.519  0.00  0.00    +0.000 A 
ATOM      3  N   UNL     1       7.474   5.406  14.799  0.00  0.00    +0.000 NA
ATOM      4  N   UNL     1       7.441   5.775  16.133  0.00  0.00    +0.000 NA
ATOM      5  C   UNL     1       6.547   5.094  16.810  0.00  0.00    +0.000 A 
ATOM      6  S   UNL     1       5.718   3.911  15.883  0.00  0.00    +0.000 S 
ATOM      7  H   UNL     1       7.055   4.195  12.546  0.00  0.00    +0.000 HD
ATOM      8  H   UNL     1       5.875   3.092  13.154  0.00  0.00    +0.000 HD
ENDROOT
BRANCH   5   9
ATOM      9  S   UNL     1       6.208   5.356  18.509  0.00  0.00    +0.000 S 
BRANCH   9  10
ATOM     10  C   UNL     1       4.547   4.643  18.701  0.00  0.00    +0.000 C 
ATOM     11  C   UNL     1       4.522   3.312  19.448  0.00  0.00    +0.000 C 
ATOM     12  C   UNL     1       3.070   3.175  19.890  0.00  0.00    +0.000 C 
ATOM     13  C   UNL     1       2.563   4.599  20.099  0.00  0.00    +0.000 C 
ATOM     14  C   UNL     1       3.668   5.527  19.590  0.00  0.00    +0.000 C 
ENDBRANCH   9  10
ENDBRANCH   5   9
TORSDOF 2
ENDMDL
