MODEL 1
REMARK VINA RESULT:      -8.8      0.000      0.000
REMARK  Name = 
REMARK  10 active torsions:
REMARK  status: ('A' for Active; 'I' for Inactive)
REMARK    1  A    between atoms: C_1  and  O_2
REMARK    2  A    between atoms: O_2  and  C_3
REMARK    3  A    between atoms: C_5  and  N_6
REMARK    4  A    between atoms: C_11  and  S_12
REMARK    5  A    between atoms: S_12  and  C_13
REMARK    6  A    between atoms: C_16  and  C_17
REMARK    7  A    between atoms: C_26  and  O_27
REMARK    8  A    between atoms: O_27  and  C_28
REMARK    9  A    between atoms: C_28  and  C_29
REMARK   10  A    between atoms: C_29  and  N_30
REMARK                            x       y       z     vdW  Elec       q    Type
REMARK                         _______ _______ _______ _____ _____    ______ ____
ROOT
ATOM      1  N   UNL     1       1.225   8.972  20.061  0.00  0.00    +0.000 N 
ATOM      2  C   UNL     1       0.598   9.833  19.070  0.00  0.00    +0.000 C 
ATOM      3  C   UNL     1      -0.050  10.893  19.889  0.00  0.00    +0.000 A 
ATOM      4  C   UNL     1      -0.818  11.984  19.542  0.00  0.00    +0.000 A 
ATOM      5  C   UNL     1      -1.280  12.800  20.588  0.00  0.00    +0.000 A 
ATOM      6  C   UNL     1      -0.956  12.485  21.917  0.00  0.00    +0.000 A 
ATOM      7  N   UNL     1      -0.208  11.418  22.260  0.00  0.00    +0.000 NA
ATOM      8  C   UNL     1       0.212  10.675  21.227  0.00  0.00    +0.000 A 
ATOM      9  C   UNL     1       1.027   9.459  21.365  0.00  0.00    +0.000 C 
ATOM     10  O   UNL     1       1.408   9.023  22.438  0.00  0.00    +0.000 OA
ENDROOT
BRANCH   1  13
ATOM     11  C   UNL     1       2.337   5.383  20.269  0.00  0.00    +0.000 A 
ATOM     12  C   UNL     1       1.779   6.628  20.593  0.00  0.00    +0.000 A 
ATOM     13  C   UNL     1       1.824   7.731  19.726  0.00  0.00    +0.000 A 
ATOM     14  C   UNL     1       2.448   7.567  18.494  0.00  0.00    +0.000 A 
ATOM     15  C   UNL     1       2.961   6.326  18.130  0.00  0.00    +0.000 A 
ATOM     16  C   UNL     1       2.942   5.228  19.012  0.00  0.00    +0.000 A 
BRANCH  11  18
ATOM     17  C   UNL     1       1.269   3.368  21.039  0.00  0.00    +0.000 C 
ATOM     18  O   UNL     1       2.342   4.307  21.122  0.00  0.00    +0.000 OA
ENDBRANCH  11  18
BRANCH  16  19
ATOM     19  O   UNL     1       3.524   4.007  18.690  0.00  0.00    +0.000 OA
BRANCH  19  20
ATOM     20  C   UNL     1       4.881   4.153  18.252  0.00  0.00    +0.000 C 
BRANCH  20  21
ATOM     21  C   UNL     1       5.831   4.828  19.248  0.00  0.00    +0.000 C 
BRANCH  21  22
ATOM     22  N   UNL     1       7.206   4.866  18.684  0.00  0.00    +0.000 NA
ATOM     23  C   UNL     1       7.837   6.184  18.843  0.00  0.00    +0.000 C 
ATOM     24  C   UNL     1       7.336   6.992  17.661  0.00  0.00    +0.000 C 
ATOM     25  C   UNL     1       7.262   5.976  16.537  0.00  0.00    +0.000 C 
ATOM     26  C   UNL     1       7.256   4.621  17.229  0.00  0.00    +0.000 C 
ENDBRANCH  21  22
ENDBRANCH  20  21
ENDBRANCH  19  20
ENDBRANCH  16  19
ENDBRANCH   1  13
BRANCH   6  27
ATOM     27  S   UNL     1      -1.413  13.576  23.241  0.00  0.00    +0.000 S 
BRANCH  27  28
ATOM     28  C   UNL     1      -3.159  13.269  23.419  0.00  0.00    +0.000 A 
ATOM     29  C   UNL     1      -3.694  12.496  24.454  0.00  0.00    +0.000 A 
ATOM     30  C   UNL     1      -5.082  12.358  24.590  0.00  0.00    +0.000 A 
ATOM     31  C   UNL     1      -5.952  12.994  23.695  0.00  0.00    +0.000 A 
ATOM     32  C   UNL     1      -7.442  12.883  23.838  0.00  0.00    +0.000 C 
ATOM     33  C   UNL     1      -5.413  13.772  22.665  0.00  0.00    +0.000 A 
ATOM     34  C   UNL     1      -4.030  13.909  22.532  0.00  0.00    +0.000 A 
ENDBRANCH  27  28
ENDBRANCH   6  27
TORSDOF 8
ENDMDL
MODEL 2
REMARK VINA RESULT:      -8.5      3.578      5.647
REMARK  Name = 
REMARK  10 active torsions:
REMARK  status: ('A' for Active; 'I' for Inactive)
REMARK    1  A    between atoms: C_1  and  O_2
REMARK    2  A    between atoms: O_2  and  C_3
REMARK    3  A    between atoms: C_5  and  N_6
REMARK    4  A    between atoms: C_11  and  S_12
REMARK    5  A    between atoms: S_12  and  C_13
REMARK    6  A    between atoms: C_16  and  C_17
REMARK    7  A    between atoms: C_26  and  O_27
REMARK    8  A    between atoms: O_27  and  C_28
REMARK    9  A    between atoms: C_28  and  C_29
REMARK   10  A    between atoms: C_29  and  N_30
REMARK                            x       y       z     vdW  Elec       q    Type
REMARK                         _______ _______ _______ _____ _____    ______ ____
ROOT
ATOM      1  N   UNL     1       2.927   7.132  18.596  0.00  0.00    +0.000 N 
ATOM      2  C   UNL     1       2.504   6.762  19.938  0.00  0.00    +0.000 C 
ATOM      3  C   UNL     1       1.558   7.848  20.316  0.00  0.00    +0.000 A 
ATOM      4  C   UNL     1       0.842   8.084  21.470  0.00  0.00    +0.000 A 
ATOM      5  C   UNL     1       0.025   9.227  21.492  0.00  0.00    +0.000 A 
ATOM      6  C   UNL     1      -0.032  10.069  20.371  0.00  0.00    +0.000 A 
ATOM      7  N   UNL     1       0.669   9.844  19.244  0.00  0.00    +0.000 NA
ATOM      8  C   UNL     1       1.429   8.740  19.269  0.00  0.00    +0.000 A 
ATOM      9  C   UNL     1       2.287   8.304  18.158  0.00  0.00    +0.000 C 
ATOM     10  O   UNL     1       2.374   8.905  17.101  0.00  0.00    +0.000 OA
ENDROOT
BRANCH   1  13
ATOM     11  C   UNL     1       6.262   6.385  17.020  0.00  0.00    +0.000 A 
ATOM     12  C   UNL     1       5.212   7.049  17.670  0.00  0.00    +0.000 A 
ATOM     13  C   UNL     1       3.965   6.452  17.908  0.00  0.00    +0.000 A 
ATOM     14  C   UNL     1       3.776   5.143  17.478  0.00  0.00    +0.000 A 
ATOM     15  C   UNL     1       4.821   4.447  16.877  0.00  0.00    +0.000 A 
ATOM     16  C   UNL     1       6.062   5.057  16.613  0.00  0.00    +0.000 A 
BRANCH  11  18
ATOM     17  C   UNL     1       7.917   8.045  17.566  0.00  0.00    +0.000 C 
ATOM     18  O   UNL     1       7.473   6.968  16.739  0.00  0.00    +0.000 OA
ENDBRANCH  11  18
BRANCH  16  19
ATOM     19  O   UNL     1       7.086   4.396  15.943  0.00  0.00    +0.000 OA
BRANCH  19  20
ATOM     20  C   UNL     1       6.972   4.526  14.520  0.00  0.00    +0.000 C 
BRANCH  20  21
ATOM     21  C   UNL     1       5.995   3.559  13.841  0.00  0.00    +0.000 C 
BRANCH  21  22
ATOM     22  N   UNL     1       5.972   3.812  12.377  0.00  0.00    +0.000 NA
ATOM     23  C   UNL     1       5.016   2.944  11.675  0.00  0.00    +0.000 C 
ATOM     24  C   UNL     1       5.776   1.654  11.435  0.00  0.00    +0.000 C 
ATOM     25  C   UNL     1       7.194   2.119  11.157  0.00  0.00    +0.000 C 
ATOM     26  C   UNL     1       7.259   3.536  11.708  0.00  0.00    +0.000 C 
ENDBRANCH  21  22
ENDBRANCH  20  21
ENDBRANCH  19  20
ENDBRANCH  16  19
ENDBRANCH   1  13
BRANCH   6  27
ATOM     27  S   UNL     1      -1.159  11.440  20.328  0.00  0.00    +0.000 S 
BRANCH  27  28
ATOM     28  C   UNL     1      -2.084  11.141  18.835  0.00  0.00    +0.000 A 
ATOM     29  C   UNL     1      -3.299  11.773  18.553  0.00  0.00    +0.000 A 
ATOM     30  C   UNL     1      -3.940  11.560  17.324  0.00  0.00    +0.000 A 
ATOM     31  C   UNL     1      -3.371  10.716  16.362  0.00  0.00    +0.000 A 
ATOM     32  C   UNL     1      -4.026  10.495  15.029  0.00  0.00    +0.000 C 
ATOM     33  C   UNL     1      -2.153  10.091  16.645  0.00  0.00    +0.000 A 
ATOM     34  C   UNL     1      -1.515  10.305  17.869  0.00  0.00    +0.000 A 
ENDBRANCH  27  28
ENDBRANCH   6  27
TORSDOF 8
ENDMDL
MODEL 3
REMARK VINA RESULT:      -8.2      3.395      4.790
REMARK  Name = 
REMARK  10 active torsions:
REMARK  status: ('A' for Active; 'I' for Inactive)
REMARK    1  A    between atoms: C_1  and  O_2
REMARK    2  A    between atoms: O_2  and  C_3
REMARK    3  A    between atoms: C_5  and  N_6
REMARK    4  A    between atoms: C_11  and  S_12
REMARK    5  A    between atoms: S_12  and  C_13
REMARK    6  A    between atoms: C_16  and  C_17
REMARK    7  A    between atoms: C_26  and  O_27
REMARK    8  A    between atoms: O_27  and  C_28
REMARK    9  A    between atoms: C_28  and  C_29
REMARK   10  A    between atoms: C_29  and  N_30
REMARK                            x       y       z     vdW  Elec       q    Type
REMARK                         _______ _______ _______ _____ _____    ______ ____
ROOT
ATOM      1  N   UNL     1       2.415   7.579  18.747  0.00  0.00    +0.000 N 
ATOM      2  C   UNL     1       1.903   7.319  20.084  0.00  0.00    +0.000 C 
ATOM      3  C   UNL     1       1.193   8.579  20.436  0.00  0.00    +0.000 A 
ATOM      4  C   UNL     1       0.521   8.969  21.575  0.00  0.00    +0.000 A 
ATOM      5  C   UNL     1      -0.046  10.255  21.573  0.00  0.00    +0.000 A 
ATOM      6  C   UNL     1       0.090  11.078  20.446  0.00  0.00    +0.000 A 
ATOM      7  N   UNL     1       0.748  10.702  19.333  0.00  0.00    +0.000 NA
ATOM      8  C   UNL     1       1.266   9.467  19.381  0.00  0.00    +0.000 A 
ATOM      9  C   UNL     1       2.035   8.853  18.289  0.00  0.00    +0.000 C 
ATOM     10  O   UNL     1       2.262   9.411  17.229  0.00  0.00    +0.000 OA
ENDROOT
BRANCH   1  13
ATOM     11  C   UNL     1       5.481   6.238  17.025  0.00  0.00    +0.000 A 
ATOM     12  C   UNL     1       4.575   7.104  17.655  0.00  0.00    +0.000 A 
ATOM     13  C   UNL     1       3.304   6.695  18.084  0.00  0.00    +0.000 A 
ATOM     14  C   UNL     1       2.940   5.369  17.873  0.00  0.00    +0.000 A 
ATOM     15  C   UNL     1       3.843   4.479  17.298  0.00  0.00    +0.000 A 
ATOM     16  C   UNL     1       5.107   4.898  16.841  0.00  0.00    +0.000 A 
BRANCH  11  18
ATOM     17  C   UNL     1       7.623   7.240  17.474  0.00  0.00    +0.000 C 
ATOM     18  O   UNL     1       6.710   6.632  16.558  0.00  0.00    +0.000 OA
ENDBRANCH  11  18
BRANCH  16  19
ATOM     19  O   UNL     1       5.985   4.037  16.193  0.00  0.00    +0.000 OA
BRANCH  19  20
ATOM     20  C   UNL     1       6.098   4.331  14.795  0.00  0.00    +0.000 C 
BRANCH  20  21
ATOM     21  C   UNL     1       5.164   3.541  13.872  0.00  0.00    +0.000 C 
BRANCH  21  22
ATOM     22  N   UNL     1       5.451   3.881  12.454  0.00  0.00    +0.000 NA
ATOM     23  C   UNL     1       4.802   2.954  11.516  0.00  0.00    +0.000 C 
ATOM     24  C   UNL     1       5.755   1.778  11.420  0.00  0.00    +0.000 C 
ATOM     25  C   UNL     1       7.127   2.420  11.505  0.00  0.00    +0.000 C 
ATOM     26  C   UNL     1       6.883   3.798  12.104  0.00  0.00    +0.000 C 
ENDBRANCH  21  22
ENDBRANCH  20  21
ENDBRANCH  19  20
ENDBRANCH  16  19
ENDBRANCH   1  13
BRANCH   6  27
ATOM     27  S   UNL     1      -0.733  12.650  20.371  0.00  0.00    +0.000 S 
BRANCH  27  28
ATOM     28  C   UNL     1      -2.344  12.220  19.742  0.00  0.00    +0.000 A 
ATOM     29  C   UNL     1      -3.533  12.683  20.316  0.00  0.00    +0.000 A 
ATOM     30  C   UNL     1      -4.768  12.379  19.727  0.00  0.00    +0.000 A 
ATOM     31  C   UNL     1      -4.829  11.612  18.557  0.00  0.00    +0.000 A 
ATOM     32  C   UNL     1      -6.139  11.297  17.895  0.00  0.00    +0.000 C 
ATOM     33  C   UNL     1      -3.639  11.156  17.983  0.00  0.00    +0.000 A 
ATOM     34  C   UNL     1      -2.409  11.462  18.570  0.00  0.00    +0.000 A 
ENDBRANCH  27  28
ENDBRANCH   6  27
TORSDOF 8
ENDMDL
MODEL 4
REMARK VINA RESULT:      -8.2      0.914      1.470
REMARK  Name = 
REMARK  10 active torsions:
REMARK  status: ('A' for Active; 'I' for Inactive)
REMARK    1  A    between atoms: C_1  and  O_2
REMARK    2  A    between atoms: O_2  and  C_3
REMARK    3  A    between atoms: C_5  and  N_6
REMARK    4  A    between atoms: C_11  and  S_12
REMARK    5  A    between atoms: S_12  and  C_13
REMARK    6  A    between atoms: C_16  and  C_17
REMARK    7  A    between atoms: C_26  and  O_27
REMARK    8  A    between atoms: O_27  and  C_28
REMARK    9  A    between atoms: C_28  and  C_29
REMARK   10  A    between atoms: C_29  and  N_30
REMARK                            x       y       z     vdW  Elec       q    Type
REMARK                         _______ _______ _______ _____ _____    ______ ____
ROOT
ATOM      1  N   UNL     1       1.191   9.052  20.253  0.00  0.00    +0.000 N 
ATOM      2  C   UNL     1       0.601   9.906  19.233  0.00  0.00    +0.000 C 
ATOM      3  C   UNL     1      -0.030  11.001  20.020  0.00  0.00    +0.000 A 
ATOM      4  C   UNL     1      -0.764  12.104  19.637  0.00  0.00    +0.000 A 
ATOM      5  C   UNL     1      -1.219  12.954  20.659  0.00  0.00    +0.000 A 
ATOM      6  C   UNL     1      -0.922  12.661  21.998  0.00  0.00    +0.000 A 
ATOM      7  N   UNL     1      -0.208  11.583  22.376  0.00  0.00    +0.000 NA
ATOM      8  C   UNL     1       0.207  10.806  21.366  0.00  0.00    +0.000 A 
ATOM      9  C   UNL     1       0.988   9.573  21.542  0.00  0.00    +0.000 C 
ATOM     10  O   UNL     1       1.342   9.151  22.630  0.00  0.00    +0.000 OA
ENDROOT
BRANCH   1  13
ATOM     11  C   UNL     1       2.195   5.437  20.550  0.00  0.00    +0.000 A 
ATOM     12  C   UNL     1       1.666   6.703  20.838  0.00  0.00    +0.000 A 
ATOM     13  C   UNL     1       1.762   7.788  19.954  0.00  0.00    +0.000 A 
ATOM     14  C   UNL     1       2.409   7.585  18.740  0.00  0.00    +0.000 A 
ATOM     15  C   UNL     1       2.895   6.323  18.410  0.00  0.00    +0.000 A 
ATOM     16  C   UNL     1       2.825   5.243  19.311  0.00  0.00    +0.000 A 
BRANCH  11  18
ATOM     17  C   UNL     1       1.218   3.326  21.165  0.00  0.00    +0.000 C 
ATOM     18  O   UNL     1       2.150   4.377  21.421  0.00  0.00    +0.000 OA
ENDBRANCH  11  18
BRANCH  16  19
ATOM     19  O   UNL     1       3.378   4.000  19.024  0.00  0.00    +0.000 OA
BRANCH  19  20
ATOM     20  C   UNL     1       4.778   4.086  18.730  0.00  0.00    +0.000 C 
BRANCH  20  21
ATOM     21  C   UNL     1       5.158   3.920  17.254  0.00  0.00    +0.000 C 
BRANCH  21  22
ATOM     22  N   UNL     1       5.996   5.066  16.818  0.00  0.00    +0.000 NA
ATOM     23  C   UNL     1       5.353   5.857  15.759  0.00  0.00    +0.000 C 
ATOM     24  C   UNL     1       5.695   5.126  14.475  0.00  0.00    +0.000 C 
ATOM     25  C   UNL     1       7.104   4.616  14.716  0.00  0.00    +0.000 C 
ATOM     26  C   UNL     1       7.288   4.664  16.226  0.00  0.00    +0.000 C 
ENDBRANCH  21  22
ENDBRANCH  20  21
ENDBRANCH  19  20
ENDBRANCH  16  19
ENDBRANCH   1  13
BRANCH   6  27
ATOM     27  S   UNL     1      -1.369  13.792  23.291  0.00  0.00    +0.000 S 
BRANCH  27  28
ATOM     28  C   UNL     1      -3.130  13.554  23.431  0.00  0.00    +0.000 A 
ATOM     29  C   UNL     1      -4.047  14.122  22.541  0.00  0.00    +0.000 A 
ATOM     30  C   UNL     1      -5.414  13.831  22.653  0.00  0.00    +0.000 A 
ATOM     31  C   UNL     1      -5.879  12.967  23.653  0.00  0.00    +0.000 A 
ATOM     32  C   UNL     1      -7.334  12.621  23.774  0.00  0.00    +0.000 C 
ATOM     33  C   UNL     1      -4.957  12.397  24.537  0.00  0.00    +0.000 A 
ATOM     34  C   UNL     1      -3.596  12.686  24.423  0.00  0.00    +0.000 A 
ENDBRANCH  27  28
ENDBRANCH   6  27
TORSDOF 8
ENDMDL
MODEL 5
REMARK VINA RESULT:      -8.1      2.626      3.345
REMARK  Name = 
REMARK  10 active torsions:
REMARK  status: ('A' for Active; 'I' for Inactive)
REMARK    1  A    between atoms: C_1  and  O_2
REMARK    2  A    between atoms: O_2  and  C_3
REMARK    3  A    between atoms: C_5  and  N_6
REMARK    4  A    between atoms: C_11  and  S_12
REMARK    5  A    between atoms: S_12  and  C_13
REMARK    6  A    between atoms: C_16  and  C_17
REMARK    7  A    between atoms: C_26  and  O_27
REMARK    8  A    between atoms: O_27  and  C_28
REMARK    9  A    between atoms: C_28  and  C_29
REMARK   10  A    between atoms: C_29  and  N_30
REMARK                            x       y       z     vdW  Elec       q    Type
REMARK                         _______ _______ _______ _____ _____    ______ ____
ROOT
ATOM      1  N   UNL     1       1.852   8.026  19.400  0.00  0.00    +0.000 N 
ATOM      2  C   UNL     1       1.425   8.096  20.789  0.00  0.00    +0.000 C 
ATOM      3  C   UNL     1       0.669   9.377  20.856  0.00  0.00    +0.000 A 
ATOM      4  C   UNL     1       0.038  10.019  21.900  0.00  0.00    +0.000 A 
ATOM      5  C   UNL     1      -0.595  11.240  21.611  0.00  0.00    +0.000 A 
ATOM      6  C   UNL     1      -0.562  11.753  20.306  0.00  0.00    +0.000 A 
ATOM      7  N   UNL     1       0.056  11.130  19.284  0.00  0.00    +0.000 NA
ATOM      8  C   UNL     1       0.640   9.969  19.609  0.00  0.00    +0.000 A 
ATOM      9  C   UNL     1       1.382   9.125  18.660  0.00  0.00    +0.000 C 
ATOM     10  O   UNL     1       1.522   9.403  17.481  0.00  0.00    +0.000 OA
ENDROOT
BRANCH   1  13
ATOM     11  C   UNL     1       3.635   4.737  18.991  0.00  0.00    +0.000 A 
ATOM     12  C   UNL     1       2.779   5.741  19.465  0.00  0.00    +0.000 A 
ATOM     13  C   UNL     1       2.749   7.035  18.925  0.00  0.00    +0.000 A 
ATOM     14  C   UNL     1       3.609   7.321  17.870  0.00  0.00    +0.000 A 
ATOM     15  C   UNL     1       4.430   6.326  17.348  0.00  0.00    +0.000 A 
ATOM     16  C   UNL     1       4.480   5.036  17.910  0.00  0.00    +0.000 A 
BRANCH  11  18
ATOM     17  C   UNL     1       2.776   3.125  20.557  0.00  0.00    +0.000 C 
ATOM     18  O   UNL     1       3.710   3.480  19.537  0.00  0.00    +0.000 OA
ENDBRANCH  11  18
BRANCH  16  19
ATOM     19  O   UNL     1       5.354   4.059  17.449  0.00  0.00    +0.000 OA
BRANCH  19  20
ATOM     20  C   UNL     1       6.401   4.608  16.638  0.00  0.00    +0.000 C 
BRANCH  20  21
ATOM     21  C   UNL     1       6.669   3.879  15.316  0.00  0.00    +0.000 C 
BRANCH  21  22
ATOM     22  N   UNL     1       6.240   4.730  14.177  0.00  0.00    +0.000 NA
ATOM     23  C   UNL     1       5.210   4.082  13.353  0.00  0.00    +0.000 C 
ATOM     24  C   UNL     1       5.986   3.200  12.394  0.00  0.00    +0.000 C 
ATOM     25  C   UNL     1       7.236   4.008  12.095  0.00  0.00    +0.000 C 
ATOM     26  C   UNL     1       7.323   5.030  13.220  0.00  0.00    +0.000 C 
ENDBRANCH  21  22
ENDBRANCH  20  21
ENDBRANCH  19  20
ENDBRANCH  16  19
ENDBRANCH   1  13
BRANCH   6  27
ATOM     27  S   UNL     1      -1.469  13.222  19.890  0.00  0.00    +0.000 S 
BRANCH  27  28
ATOM     28  C   UNL     1      -3.164  12.698  20.058  0.00  0.00    +0.000 A 
ATOM     29  C   UNL     1      -3.931  12.960  21.197  0.00  0.00    +0.000 A 
ATOM     30  C   UNL     1      -5.284  12.595  21.238  0.00  0.00    +0.000 A 
ATOM     31  C   UNL     1      -5.886  11.969  20.139  0.00  0.00    +0.000 A 
ATOM     32  C   UNL     1      -7.340  11.594  20.150  0.00  0.00    +0.000 C 
ATOM     33  C   UNL     1      -5.117  11.714  18.999  0.00  0.00    +0.000 A 
ATOM     34  C   UNL     1      -3.769  12.080  18.960  0.00  0.00    +0.000 A 
ENDBRANCH  27  28
ENDBRANCH   6  27
TORSDOF 8
ENDMDL
MODEL 6
REMARK VINA RESULT:      -8.1      3.707      5.623
REMARK  Name = 
REMARK  10 active torsions:
REMARK  status: ('A' for Active; 'I' for Inactive)
REMARK    1  A    between atoms: C_1  and  O_2
REMARK    2  A    between atoms: O_2  and  C_3
REMARK    3  A    between atoms: C_5  and  N_6
REMARK    4  A    between atoms: C_11  and  S_12
REMARK    5  A    between atoms: S_12  and  C_13
REMARK    6  A    between atoms: C_16  and  C_17
REMARK    7  A    between atoms: C_26  and  O_27
REMARK    8  A    between atoms: O_27  and  C_28
REMARK    9  A    between atoms: C_28  and  C_29
REMARK   10  A    between atoms: C_29  and  N_30
REMARK                            x       y       z     vdW  Elec       q    Type
REMARK                         _______ _______ _______ _____ _____    ______ ____
ROOT
ATOM      1  N   UNL     1       2.655   7.233  18.675  0.00  0.00    +0.000 N 
ATOM      2  C   UNL     1       2.209   6.994  20.039  0.00  0.00    +0.000 C 
ATOM      3  C   UNL     1       1.430   8.219  20.370  0.00  0.00    +0.000 A 
ATOM      4  C   UNL     1       0.774   8.610  21.517  0.00  0.00    +0.000 A 
ATOM      5  C   UNL     1       0.123   9.855  21.489  0.00  0.00    +0.000 A 
ATOM      6  C   UNL     1       0.164  10.639  20.326  0.00  0.00    +0.000 A 
ATOM      7  N   UNL     1       0.806  10.262  19.204  0.00  0.00    +0.000 NA
ATOM      8  C   UNL     1       1.406   9.066  19.280  0.00  0.00    +0.000 A 
ATOM      9  C   UNL     1       2.176   8.460  18.183  0.00  0.00    +0.000 C 
ATOM     10  O   UNL     1       2.327   8.988  17.095  0.00  0.00    +0.000 OA
ENDROOT
BRANCH   1  13
ATOM     11  C   UNL     1       4.336   4.126  17.377  0.00  0.00    +0.000 A 
ATOM     12  C   UNL     1       3.456   4.985  18.050  0.00  0.00    +0.000 A 
ATOM     13  C   UNL     1       3.576   6.382  18.012  0.00  0.00    +0.000 A 
ATOM     14  C   UNL     1       4.617   6.927  17.266  0.00  0.00    +0.000 A 
ATOM     15  C   UNL     1       5.471   6.095  16.547  0.00  0.00    +0.000 A 
ATOM     16  C   UNL     1       5.367   4.693  16.611  0.00  0.00    +0.000 A 
BRANCH  11  18
ATOM     17  C   UNL     1       3.316   2.169  18.336  0.00  0.00    +0.000 C 
ATOM     18  O   UNL     1       4.260   2.757  17.440  0.00  0.00    +0.000 OA
ENDBRANCH  11  18
BRANCH  16  19
ATOM     19  O   UNL     1       6.263   3.852  15.961  0.00  0.00    +0.000 OA
BRANCH  19  20
ATOM     20  C   UNL     1       6.359   4.141  14.560  0.00  0.00    +0.000 C 
BRANCH  20  21
ATOM     21  C   UNL     1       5.199   3.632  13.696  0.00  0.00    +0.000 C 
BRANCH  21  22
ATOM     22  N   UNL     1       5.517   3.833  12.259  0.00  0.00    +0.000 NA
ATOM     23  C   UNL     1       4.808   2.881  11.393  0.00  0.00    +0.000 C 
ATOM     24  C   UNL     1       5.673   1.635  11.404  0.00  0.00    +0.000 C 
ATOM     25  C   UNL     1       7.088   2.181  11.451  0.00  0.00    +0.000 C 
ATOM     26  C   UNL     1       6.941   3.618  11.932  0.00  0.00    +0.000 C 
ENDBRANCH  21  22
ENDBRANCH  20  21
ENDBRANCH  19  20
ENDBRANCH  16  19
ENDBRANCH   1  13
BRANCH   6  27
ATOM     27  S   UNL     1      -0.764  12.150  20.223  0.00  0.00    +0.000 S 
BRANCH  27  28
ATOM     28  C   UNL     1       0.485  13.351  19.809  0.00  0.00    +0.000 A 
ATOM     29  C   UNL     1       0.262  14.403  18.915  0.00  0.00    +0.000 A 
ATOM     30  C   UNL     1       1.257  15.366  18.692  0.00  0.00    +0.000 A 
ATOM     31  C   UNL     1       2.484  15.290  19.364  0.00  0.00    +0.000 A 
ATOM     32  C   UNL     1       3.552  16.324  19.161  0.00  0.00    +0.000 C 
ATOM     33  C   UNL     1       2.700  14.241  20.262  0.00  0.00    +0.000 A 
ATOM     34  C   UNL     1       1.708  13.283  20.484  0.00  0.00    +0.000 A 
ENDBRANCH  27  28
ENDBRANCH   6  27
TORSDOF 8
ENDMDL
MODEL 7
REMARK VINA RESULT:      -8.0      2.277      2.984
REMARK  Name = 
REMARK  10 active torsions:
REMARK  status: ('A' for Active; 'I' for Inactive)
REMARK    1  A    between atoms: C_1  and  O_2
REMARK    2  A    between atoms: O_2  and  C_3
REMARK    3  A    between atoms: C_5  and  N_6
REMARK    4  A    between atoms: C_11  and  S_12
REMARK    5  A    between atoms: S_12  and  C_13
REMARK    6  A    between atoms: C_16  and  C_17
REMARK    7  A    between atoms: C_26  and  O_27
REMARK    8  A    between atoms: O_27  and  C_28
REMARK    9  A    between atoms: C_28  and  C_29
REMARK   10  A    between atoms: C_29  and  N_30
REMARK                            x       y       z     vdW  Elec       q    Type
REMARK                         _______ _______ _______ _____ _____    ______ ____
ROOT
ATOM      1  N   UNL     1       1.852   7.993  19.374  0.00  0.00    +0.000 N 
ATOM      2  C   UNL     1       1.425   7.908  20.763  0.00  0.00    +0.000 C 
ATOM      3  C   UNL     1       0.768   9.222  21.005  0.00  0.00    +0.000 A 
ATOM      4  C   UNL     1       0.181   9.763  22.129  0.00  0.00    +0.000 A 
ATOM      5  C   UNL     1      -0.356  11.056  22.009  0.00  0.00    +0.000 A 
ATOM      6  C   UNL     1      -0.278  11.736  20.784  0.00  0.00    +0.000 A 
ATOM      7  N   UNL     1       0.296  11.211  19.685  0.00  0.00    +0.000 NA
ATOM      8  C   UNL     1       0.789   9.975  19.848  0.00  0.00    +0.000 A 
ATOM      9  C   UNL     1       1.471   9.213  18.791  0.00  0.00    +0.000 C 
ATOM     10  O   UNL     1       1.637   9.635  17.660  0.00  0.00    +0.000 OA
ENDROOT
BRANCH   1  13
ATOM     11  C   UNL     1       3.317   4.653  18.443  0.00  0.00    +0.000 A 
ATOM     12  C   UNL     1       2.536   5.644  19.055  0.00  0.00    +0.000 A 
ATOM     13  C   UNL     1       2.675   7.010  18.767  0.00  0.00    +0.000 A 
ATOM     14  C   UNL     1       3.631   7.384  17.827  0.00  0.00    +0.000 A 
ATOM     15  C   UNL     1       4.380   6.414  17.169  0.00  0.00    +0.000 A 
ATOM     16  C   UNL     1       4.260   5.046  17.481  0.00  0.00    +0.000 A 
BRANCH  11  18
ATOM     17  C   UNL     1       2.115   2.579  18.235  0.00  0.00    +0.000 C 
ATOM     18  O   UNL     1       3.226   3.318  18.746  0.00  0.00    +0.000 OA
ENDBRANCH  11  18
BRANCH  16  19
ATOM     19  O   UNL     1       5.061   4.076  16.888  0.00  0.00    +0.000 OA
BRANCH  19  20
ATOM     20  C   UNL     1       6.413   4.519  16.720  0.00  0.00    +0.000 C 
BRANCH  20  21
ATOM     21  C   UNL     1       7.086   4.115  15.403  0.00  0.00    +0.000 C 
BRANCH  21  22
ATOM     22  N   UNL     1       6.563   4.954  14.294  0.00  0.00    +0.000 NA
ATOM     23  C   UNL     1       5.396   4.348  13.638  0.00  0.00    +0.000 C 
ATOM     24  C   UNL     1       5.986   3.385  12.624  0.00  0.00    +0.000 C 
ATOM     25  C   UNL     1       7.231   4.098  12.133  0.00  0.00    +0.000 C 
ATOM     26  C   UNL     1       7.528   5.149  13.193  0.00  0.00    +0.000 C 
ENDBRANCH  21  22
ENDBRANCH  20  21
ENDBRANCH  19  20
ENDBRANCH  16  19
ENDBRANCH   1  13
BRANCH   6  27
ATOM     27  S   UNL     1      -1.071  13.311  20.573  0.00  0.00    +0.000 S 
BRANCH  27  28
ATOM     28  C   UNL     1      -2.504  13.173  21.622  0.00  0.00    +0.000 A 
ATOM     29  C   UNL     1      -2.497  13.538  22.971  0.00  0.00    +0.000 A 
ATOM     30  C   UNL     1      -3.679  13.486  23.725  0.00  0.00    +0.000 A 
ATOM     31  C   UNL     1      -4.880  13.072  23.137  0.00  0.00    +0.000 A 
ATOM     32  C   UNL     1      -6.162  13.035  23.917  0.00  0.00    +0.000 C 
ATOM     33  C   UNL     1      -4.885  12.714  21.785  0.00  0.00    +0.000 A 
ATOM     34  C   UNL     1      -3.708  12.769  21.035  0.00  0.00    +0.000 A 
ENDBRANCH  27  28
ENDBRANCH   6  27
TORSDOF 8
ENDMDL
MODEL 8
REMARK VINA RESULT:      -8.0      3.194      4.216
REMARK  Name = 
REMARK  10 active torsions:
REMARK  status: ('A' for Active; 'I' for Inactive)
REMARK    1  A    between atoms: C_1  and  O_2
REMARK    2  A    between atoms: O_2  and  C_3
REMARK    3  A    between atoms: C_5  and  N_6
REMARK    4  A    between atoms: C_11  and  S_12
REMARK    5  A    between atoms: S_12  and  C_13
REMARK    6  A    between atoms: C_16  and  C_17
REMARK    7  A    between atoms: C_26  and  O_27
REMARK    8  A    between atoms: O_27  and  C_28
REMARK    9  A    between atoms: C_28  and  C_29
REMARK   10  A    between atoms: C_29  and  N_30
REMARK                            x       y       z     vdW  Elec       q    Type
REMARK                         _______ _______ _______ _____ _____    ______ ____
ROOT
ATOM      1  N   UNL     1       2.076   7.644  18.999  0.00  0.00    +0.000 N 
ATOM      2  C   UNL     1       1.617   7.513  20.373  0.00  0.00    +0.000 C 
ATOM      3  C   UNL     1       0.945   8.814  20.642  0.00  0.00    +0.000 A 
ATOM      4  C   UNL     1       0.329   9.316  21.768  0.00  0.00    +0.000 A 
ATOM      5  C   UNL     1      -0.215  10.609  21.676  0.00  0.00    +0.000 A 
ATOM      6  C   UNL     1      -0.114  11.327  20.476  0.00  0.00    +0.000 A 
ATOM      7  N   UNL     1       0.489  10.841  19.374  0.00  0.00    +0.000 NA
ATOM      8  C   UNL     1       0.988   9.604  19.510  0.00  0.00    +0.000 A 
ATOM      9  C   UNL     1       1.698   8.880  18.445  0.00  0.00    +0.000 C 
ATOM     10  O   UNL     1       1.888   9.339  17.332  0.00  0.00    +0.000 OA
ENDROOT
BRANCH   1  13
ATOM     11  C   UNL     1       3.404   4.361  17.727  0.00  0.00    +0.000 A 
ATOM     12  C   UNL     1       2.601   5.320  18.360  0.00  0.00    +0.000 A 
ATOM     13  C   UNL     1       2.919   6.687  18.380  0.00  0.00    +0.000 A 
ATOM     14  C   UNL     1       4.083   7.095  17.736  0.00  0.00    +0.000 A 
ATOM     15  C   UNL     1       4.867   6.167  17.056  0.00  0.00    +0.000 A 
ATOM     16  C   UNL     1       4.562   4.793  17.063  0.00  0.00    +0.000 A 
BRANCH  11  18
ATOM     17  C   UNL     1       1.933   2.569  18.370  0.00  0.00    +0.000 C 
ATOM     18  O   UNL     1       3.132   3.015  17.737  0.00  0.00    +0.000 OA
ENDBRANCH  11  18
BRANCH  16  19
ATOM     19  O   UNL     1       5.382   3.848  16.455  0.00  0.00    +0.000 OA
BRANCH  19  20
ATOM     20  C   UNL     1       5.223   3.829  15.031  0.00  0.00    +0.000 C 
BRANCH  20  21
ATOM     21  C   UNL     1       6.511   4.002  14.217  0.00  0.00    +0.000 C 
BRANCH  21  22
ATOM     22  N   UNL     1       6.174   4.306  12.802  0.00  0.00    +0.000 NA
ATOM     23  C   UNL     1       5.094   3.451  12.290  0.00  0.00    +0.000 C 
ATOM     24  C   UNL     1       5.792   2.180  11.844  0.00  0.00    +0.000 C 
ATOM     25  C   UNL     1       7.115   2.672  11.288  0.00  0.00    +0.000 C 
ATOM     26  C   UNL     1       7.290   4.070  11.864  0.00  0.00    +0.000 C 
ENDBRANCH  21  22
ENDBRANCH  20  21
ENDBRANCH  19  20
ENDBRANCH  16  19
ENDBRANCH   1  13
BRANCH   6  27
ATOM     27  S   UNL     1      -0.912  12.903  20.296  0.00  0.00    +0.000 S 
BRANCH  27  28
ATOM     28  C   UNL     1      -2.491  12.466  19.596  0.00  0.00    +0.000 A 
ATOM     29  C   UNL     1      -2.622  11.740  18.408  0.00  0.00    +0.000 A 
ATOM     30  C   UNL     1      -3.890  11.355  17.949  0.00  0.00    +0.000 A 
ATOM     31  C   UNL     1      -5.040  11.687  18.676  0.00  0.00    +0.000 A 
ATOM     32  C   UNL     1      -6.405  11.261  18.218  0.00  0.00    +0.000 C 
ATOM     33  C   UNL     1      -4.905  12.407  19.866  0.00  0.00    +0.000 A 
ATOM     34  C   UNL     1      -3.641  12.789  20.322  0.00  0.00    +0.000 A 
ENDBRANCH  27  28
ENDBRANCH   6  27
TORSDOF 8
ENDMDL
MODEL 9
REMARK VINA RESULT:      -8.0      3.155      4.971
REMARK  Name = 
REMARK  10 active torsions:
REMARK  status: ('A' for Active; 'I' for Inactive)
REMARK    1  A    between atoms: C_1  and  O_2
REMARK    2  A    between atoms: O_2  and  C_3
REMARK    3  A    between atoms: C_5  and  N_6
REMARK    4  A    between atoms: C_11  and  S_12
REMARK    5  A    between atoms: S_12  and  C_13
REMARK    6  A    between atoms: C_16  and  C_17
REMARK    7  A    between atoms: C_26  and  O_27
REMARK    8  A    between atoms: O_27  and  C_28
REMARK    9  A    between atoms: C_28  and  C_29
REMARK   10  A    between atoms: C_29  and  N_30
REMARK                            x       y       z     vdW  Elec       q    Type
REMARK                         _______ _______ _______ _____ _____    ______ ____
ROOT
ATOM      1  N   UNL     1       1.479   8.908  19.549  0.00  0.00    +0.000 N 
ATOM      2  C   UNL     1       0.866   9.297  20.810  0.00  0.00    +0.000 C 
ATOM      3  C   UNL     1       0.593  10.750  20.630  0.00  0.00    +0.000 A 
ATOM      4  C   UNL     1       0.046  11.694  21.472  0.00  0.00    +0.000 A 
ATOM      5  C   UNL     1      -0.070  13.003  20.974  0.00  0.00    +0.000 A 
ATOM      6  C   UNL     1       0.364  13.298  19.673  0.00  0.00    +0.000 A 
ATOM      7  N   UNL     1       0.901  12.379  18.849  0.00  0.00    +0.000 NA
ATOM      8  C   UNL     1       0.987  11.146  19.367  0.00  0.00    +0.000 A 
ATOM      9  C   UNL     1       1.551   9.990  18.655  0.00  0.00    +0.000 C 
ATOM     10  O   UNL     1       1.982  10.047  17.516  0.00  0.00    +0.000 OA
ENDROOT
BRANCH   1  13
ATOM     11  C   UNL     1       2.475   5.320  20.096  0.00  0.00    +0.000 A 
ATOM     12  C   UNL     1       1.943   6.602  20.294  0.00  0.00    +0.000 A 
ATOM     13  C   UNL     1       2.053   7.627  19.342  0.00  0.00    +0.000 A 
ATOM     14  C   UNL     1       2.718   7.345  18.153  0.00  0.00    +0.000 A 
ATOM     15  C   UNL     1       3.208   6.064  17.914  0.00  0.00    +0.000 A 
ATOM     16  C   UNL     1       3.123   5.045  18.882  0.00  0.00    +0.000 A 
BRANCH  11  18
ATOM     17  C   UNL     1       1.293   3.436  21.016  0.00  0.00    +0.000 C 
ATOM     18  O   UNL     1       2.416   4.319  21.034  0.00  0.00    +0.000 OA
ENDBRANCH  11  18
BRANCH  16  19
ATOM     19  O   UNL     1       3.679   3.787  18.685  0.00  0.00    +0.000 OA
BRANCH  19  20
ATOM     20  C   UNL     1       5.059   3.859  18.304  0.00  0.00    +0.000 C 
BRANCH  20  21
ATOM     21  C   UNL     1       5.968   4.652  19.250  0.00  0.00    +0.000 C 
BRANCH  21  22
ATOM     22  N   UNL     1       7.309   4.822  18.633  0.00  0.00    +0.000 NA
ATOM     23  C   UNL     1       7.823   6.191  18.783  0.00  0.00    +0.000 C 
ATOM     24  C   UNL     1       7.203   6.960  17.632  0.00  0.00    +0.000 C 
ATOM     25  C   UNL     1       7.177   5.951  16.499  0.00  0.00    +0.000 C 
ATOM     26  C   UNL     1       7.324   4.595  17.174  0.00  0.00    +0.000 C 
ENDBRANCH  21  22
ENDBRANCH  20  21
ENDBRANCH  19  20
ENDBRANCH  16  19
ENDBRANCH   1  13
BRANCH   6  27
ATOM     27  S   UNL     1       0.101  14.910  18.977  0.00  0.00    +0.000 S 
BRANCH  27  28
ATOM     28  C   UNL     1       1.692  15.688  19.172  0.00  0.00    +0.000 A 
ATOM     29  C   UNL     1       2.116  16.260  20.375  0.00  0.00    +0.000 A 
ATOM     30  C   UNL     1       3.412  16.784  20.492  0.00  0.00    +0.000 A 
ATOM     31  C   UNL     1       4.298  16.738  19.408  0.00  0.00    +0.000 A 
ATOM     32  C   UNL     1       5.698  17.268  19.519  0.00  0.00    +0.000 C 
ATOM     33  C   UNL     1       3.872  16.159  18.209  0.00  0.00    +0.000 A 
ATOM     34  C   UNL     1       2.582  15.636  18.095  0.00  0.00    +0.000 A 
ENDBRANCH  27  28
ENDBRANCH   6  27
TORSDOF 8
ENDMDL
