MODEL 1
REMARK VINA RESULT:      -7.8      0.000      0.000
REMARK  Name = 
REMARK  7 active torsions:
REMARK  status: ('A' for Active; 'I' for Inactive)
REMARK    1  A    between atoms: C_1  and  O_2
REMARK    2  A    between atoms: O_2  and  C_3
REMARK    3  A    between atoms: C_3  and  C_5
REMARK    4  A    between atoms: C_8  and  N_9
REMARK    5  A    between atoms: N_12  and  C_13
REMARK    6  A    between atoms: C_19  and  O_20
REMARK    7  A    between atoms: O_20  and  C_21
REMARK                            x       y       z     vdW  Elec       q    Type
REMARK                         _______ _______ _______ _____ _____    ______ ____
ROOT
ATOM      1  N   UNL     1       4.253   4.363  19.726  0.00  0.00    +0.000 N 
ATOM      2  C   UNL     1       4.550   4.789  18.452  0.00  0.00    +0.000 C 
ATOM      3  O   UNL     1       3.843   5.571  17.825  0.00  0.00    +0.000 OA
ATOM      4  N   UNL     1       5.687   4.171  17.967  0.00  0.00    +0.000 N 
ATOM      5  H   UNL     1       5.063   4.189  20.320  0.00  0.00    +0.000 HD
ATOM      6  H   UNL     1       5.813   3.255  18.361  0.00  0.00    +0.000 HD
ENDROOT
BRANCH   4   7
ATOM      7  C   UNL     1       6.156   4.406  16.655  0.00  0.00    +0.000 A 
ATOM      8  C   UNL     1       5.588   3.637  15.616  0.00  0.00    +0.000 A 
ATOM      9  C   UNL     1       5.987   3.797  14.291  0.00  0.00    +0.000 A 
ATOM     10  C   UNL     1       6.982   4.714  13.992  0.00  0.00    +0.000 A 
ATOM     11  F   UNL     1       7.392   4.863  12.726  0.00  0.00    +0.000 F 
ATOM     12  C   UNL     1       7.557   5.482  14.999  0.00  0.00    +0.000 A 
ATOM     13  C   UNL     1       7.135   5.365  16.333  0.00  0.00    +0.000 A 
BRANCH  13  14
ATOM     14  O   UNL     1       7.870   6.174  17.149  0.00  0.00    +0.000 OA
BRANCH  14  15
ATOM     15  C   UNL     1       7.349   7.392  17.642  0.00  0.00    +0.000 C 
ATOM     16  F   UNL     1       8.139   8.431  17.283  0.00  0.00    +0.000 F 
ATOM     17  F   UNL     1       6.126   7.607  17.106  0.00  0.00    +0.000 F 
ENDBRANCH  14  15
ENDBRANCH  13  14
ENDBRANCH   4   7
BRANCH   1  21
ATOM     18  C   UNL     1       1.088   3.807  19.389  0.00  0.00    +0.000 C 
ATOM     19  C   UNL     1       1.145   3.325  20.833  0.00  0.00    +0.000 C 
ATOM     20  C   UNL     1       2.502   3.777  21.378  0.00  0.00    +0.000 C 
ATOM     21  C   UNL     1       3.047   4.824  20.397  0.00  0.00    +0.000 C 
ATOM     22  C   UNL     1       1.916   5.085  19.398  0.00  0.00    +0.000 C 
BRANCH  18  23
ATOM     23  C   UNL     1       1.654   2.783  18.418  0.00  0.00    +0.000 C 
ATOM     24  O   UNL     1       1.635   2.898  17.200  0.00  0.00    +0.000 OA
BRANCH  23  26
ATOM     25  C   UNL     1       3.426   1.271  18.623  0.00  0.00    +0.000 C 
ATOM     26  O   UNL     1       2.155   1.717  19.097  0.00  0.00    +0.000 OA
ENDBRANCH  23  26
ENDBRANCH  18  23
ENDBRANCH   1  21
TORSDOF 6
ENDMDL
MODEL 2
REMARK VINA RESULT:      -7.6      1.209      1.819
REMARK  Name = 
REMARK  7 active torsions:
REMARK  status: ('A' for Active; 'I' for Inactive)
REMARK    1  A    between atoms: C_1  and  O_2
REMARK    2  A    between atoms: O_2  and  C_3
REMARK    3  A    between atoms: C_3  and  C_5
REMARK    4  A    between atoms: C_8  and  N_9
REMARK    5  A    between atoms: N_12  and  C_13
REMARK    6  A    between atoms: C_19  and  O_20
REMARK    7  A    between atoms: O_20  and  C_21
REMARK                            x       y       z     vdW  Elec       q    Type
REMARK                         _______ _______ _______ _____ _____    ______ ____
ROOT
ATOM      1  N   UNL     1       3.141   4.144  18.077  0.00  0.00    +0.000 N 
ATOM      2  C   UNL     1       3.957   4.771  17.165  0.00  0.00    +0.000 C 
ATOM      3  O   UNL     1       3.820   5.946  16.840  0.00  0.00    +0.000 OA
ATOM      4  N   UNL     1       4.881   3.894  16.629  0.00  0.00    +0.000 N 
ATOM      5  H   UNL     1       3.600   3.435  18.648  0.00  0.00    +0.000 HD
ATOM      6  H   UNL     1       4.532   2.951  16.607  0.00  0.00    +0.000 HD
ENDROOT
BRANCH   4   7
ATOM      7  C   UNL     1       5.790   4.296  15.625  0.00  0.00    +0.000 A 
ATOM      8  C   UNL     1       5.507   3.905  14.299  0.00  0.00    +0.000 A 
ATOM      9  C   UNL     1       6.345   4.253  13.242  0.00  0.00    +0.000 A 
ATOM     10  C   UNL     1       7.496   4.979  13.505  0.00  0.00    +0.000 A 
ATOM     11  F   UNL     1       8.323   5.302  12.503  0.00  0.00    +0.000 F 
ATOM     12  C   UNL     1       7.797   5.375  14.805  0.00  0.00    +0.000 A 
ATOM     13  C   UNL     1       6.939   5.070  15.874  0.00  0.00    +0.000 A 
BRANCH  13  14
ATOM     14  O   UNL     1       7.458   5.512  17.055  0.00  0.00    +0.000 OA
BRANCH  14  15
ATOM     15  C   UNL     1       7.561   6.891  17.346  0.00  0.00    +0.000 C 
ATOM     16  F   UNL     1       6.334   7.456  17.433  0.00  0.00    +0.000 F 
ATOM     17  F   UNL     1       8.169   7.053  18.543  0.00  0.00    +0.000 F 
ENDBRANCH  14  15
ENDBRANCH  13  14
ENDBRANCH   4   7
BRANCH   1  21
ATOM     18  C   UNL     1       1.342   3.731  20.729  0.00  0.00    +0.000 C 
ATOM     19  C   UNL     1       1.857   5.104  21.143  0.00  0.00    +0.000 C 
ATOM     20  C   UNL     1       2.510   5.704  19.896  0.00  0.00    +0.000 C 
ATOM     21  C   UNL     1       2.040   4.863  18.701  0.00  0.00    +0.000 C 
ATOM     22  C   UNL     1       0.987   3.902  19.258  0.00  0.00    +0.000 C 
BRANCH  18  23
ATOM     23  C   UNL     1       2.383   2.641  20.928  0.00  0.00    +0.000 C 
ATOM     24  O   UNL     1       2.963   2.419  21.983  0.00  0.00    +0.000 OA
BRANCH  23  26
ATOM     25  C   UNL     1       3.955   1.603  19.542  0.00  0.00    +0.000 C 
ATOM     26  O   UNL     1       2.593   1.973  19.763  0.00  0.00    +0.000 OA
ENDBRANCH  23  26
ENDBRANCH  18  23
ENDBRANCH   1  21
TORSDOF 6
ENDMDL
MODEL 3
REMARK VINA RESULT:      -7.6      5.205      6.856
REMARK  Name = 
REMARK  7 active torsions:
REMARK  status: ('A' for Active; 'I' for Inactive)
REMARK    1  A    between atoms: C_1  and  O_2
REMARK    2  A    between atoms: O_2  and  C_3
REMARK    3  A    between atoms: C_3  and  C_5
REMARK    4  A    between atoms: C_8  and  N_9
REMARK    5  A    between atoms: N_12  and  C_13
REMARK    6  A    between atoms: C_19  and  O_20
REMARK    7  A    between atoms: O_20  and  C_21
REMARK                            x       y       z     vdW  Elec       q    Type
REMARK                         _______ _______ _______ _____ _____    ______ ____
ROOT
ATOM      1  N   UNL     1       1.360   9.054  19.348  0.00  0.00    +0.000 N 
ATOM      2  C   UNL     1       2.034   8.278  18.434  0.00  0.00    +0.000 C 
ATOM      3  O   UNL     1       2.105   8.557  17.241  0.00  0.00    +0.000 OA
ATOM      4  N   UNL     1       2.542   7.135  19.021  0.00  0.00    +0.000 N 
ATOM      5  H   UNL     1       1.767   9.068  20.283  0.00  0.00    +0.000 HD
ATOM      6  H   UNL     1       1.982   6.834  19.801  0.00  0.00    +0.000 HD
ENDROOT
BRANCH   4   7
ATOM      7  C   UNL     1       3.224   6.154  18.268  0.00  0.00    +0.000 A 
ATOM      8  C   UNL     1       4.533   6.460  17.838  0.00  0.00    +0.000 A 
ATOM      9  C   UNL     1       5.284   5.556  17.089  0.00  0.00    +0.000 A 
ATOM     10  C   UNL     1       4.721   4.339  16.739  0.00  0.00    +0.000 A 
ATOM     11  F   UNL     1       5.421   3.469  16.001  0.00  0.00    +0.000 F 
ATOM     12  C   UNL     1       3.432   4.015  17.151  0.00  0.00    +0.000 A 
ATOM     13  C   UNL     1       2.679   4.897  17.943  0.00  0.00    +0.000 A 
BRANCH  13  14
ATOM     14  O   UNL     1       1.434   4.395  18.182  0.00  0.00    +0.000 OA
BRANCH  14  15
ATOM     15  C   UNL     1       1.209   3.427  19.186  0.00  0.00    +0.000 C 
ATOM     16  F   UNL     1       0.535   3.964  20.230  0.00  0.00    +0.000 F 
ATOM     17  F   UNL     1       0.450   2.426  18.684  0.00  0.00    +0.000 F 
ENDBRANCH  14  15
ENDBRANCH  13  14
ENDBRANCH   4   7
BRANCH   1  21
ATOM     18  C   UNL     1      -0.401  11.326  20.824  0.00  0.00    +0.000 C 
ATOM     19  C   UNL     1       0.648  12.302  20.305  0.00  0.00    +0.000 C 
ATOM     20  C   UNL     1       1.470  11.529  19.272  0.00  0.00    +0.000 C 
ATOM     21  C   UNL     1       0.672  10.265  18.925  0.00  0.00    +0.000 C 
ATOM     22  C   UNL     1      -0.677  10.418  19.632  0.00  0.00    +0.000 C 
BRANCH  18  23
ATOM     23  C   UNL     1       0.092  10.535  22.025  0.00  0.00    +0.000 C 
ATOM     24  O   UNL     1       1.236  10.120  22.161  0.00  0.00    +0.000 OA
BRANCH  23  26
ATOM     25  C   UNL     1      -1.745  11.482  23.117  0.00  0.00    +0.000 C 
ATOM     26  O   UNL     1      -0.924  10.333  22.905  0.00  0.00    +0.000 OA
ENDBRANCH  23  26
ENDBRANCH  18  23
ENDBRANCH   1  21
TORSDOF 6
ENDMDL
MODEL 4
REMARK VINA RESULT:      -7.4      1.685      3.617
REMARK  Name = 
REMARK  7 active torsions:
REMARK  status: ('A' for Active; 'I' for Inactive)
REMARK    1  A    between atoms: C_1  and  O_2
REMARK    2  A    between atoms: O_2  and  C_3
REMARK    3  A    between atoms: C_3  and  C_5
REMARK    4  A    between atoms: C_8  and  N_9
REMARK    5  A    between atoms: N_12  and  C_13
REMARK    6  A    between atoms: C_19  and  O_20
REMARK    7  A    between atoms: O_20  and  C_21
REMARK                            x       y       z     vdW  Elec       q    Type
REMARK                         _______ _______ _______ _____ _____    ______ ____
ROOT
ATOM      1  N   UNL     1       4.090   2.644  17.815  0.00  0.00    +0.000 N 
ATOM      2  C   UNL     1       4.549   3.941  17.843  0.00  0.00    +0.000 C 
ATOM      3  O   UNL     1       3.811   4.914  17.736  0.00  0.00    +0.000 OA
ATOM      4  N   UNL     1       5.927   3.986  17.933  0.00  0.00    +0.000 N 
ATOM      5  H   UNL     1       4.611   1.991  18.401  0.00  0.00    +0.000 HD
ATOM      6  H   UNL     1       6.357   3.183  17.506  0.00  0.00    +0.000 HD
ENDROOT
BRANCH   4   7
ATOM      7  C   UNL     1       6.632   5.210  17.919  0.00  0.00    +0.000 A 
ATOM      8  C   UNL     1       7.375   5.544  19.072  0.00  0.00    +0.000 A 
ATOM      9  C   UNL     1       8.102   6.730  19.151  0.00  0.00    +0.000 A 
ATOM     10  C   UNL     1       8.073   7.611  18.082  0.00  0.00    +0.000 A 
ATOM     11  F   UNL     1       8.748   8.766  18.153  0.00  0.00    +0.000 F 
ATOM     12  C   UNL     1       7.347   7.305  16.936  0.00  0.00    +0.000 A 
ATOM     13  C   UNL     1       6.645   6.093  16.823  0.00  0.00    +0.000 A 
BRANCH  13  14
ATOM     14  O   UNL     1       5.969   6.031  15.640  0.00  0.00    +0.000 OA
BRANCH  14  15
ATOM     15  C   UNL     1       6.266   5.045  14.672  0.00  0.00    +0.000 C 
ATOM     16  F   UNL     1       7.417   4.400  14.980  0.00  0.00    +0.000 F 
ATOM     17  F   UNL     1       5.277   4.123  14.653  0.00  0.00    +0.000 F 
ENDBRANCH  14  15
ENDBRANCH  13  14
ENDBRANCH   4   7
BRANCH   1  21
ATOM     18  C   UNL     1       1.544   2.365  19.784  0.00  0.00    +0.000 C 
ATOM     19  C   UNL     1       0.943   3.502  18.967  0.00  0.00    +0.000 C 
ATOM     20  C   UNL     1       1.823   3.640  17.723  0.00  0.00    +0.000 C 
ATOM     21  C   UNL     1       2.673   2.365  17.637  0.00  0.00    +0.000 C 
ATOM     22  C   UNL     1       2.143   1.438  18.735  0.00  0.00    +0.000 C 
BRANCH  18  23
ATOM     23  C   UNL     1       2.599   2.854  20.764  0.00  0.00    +0.000 C 
ATOM     24  O   UNL     1       3.729   2.393  20.854  0.00  0.00    +0.000 OA
BRANCH  23  26
ATOM     25  C   UNL     1       2.381   5.165  21.050  0.00  0.00    +0.000 C 
ATOM     26  O   UNL     1       2.095   3.853  21.537  0.00  0.00    +0.000 OA
ENDBRANCH  23  26
ENDBRANCH  18  23
ENDBRANCH   1  21
TORSDOF 6
ENDMDL
MODEL 5
REMARK VINA RESULT:      -7.4      3.589      6.943
REMARK  Name = 
REMARK  7 active torsions:
REMARK  status: ('A' for Active; 'I' for Inactive)
REMARK    1  A    between atoms: C_1  and  O_2
REMARK    2  A    between atoms: O_2  and  C_3
REMARK    3  A    between atoms: C_3  and  C_5
REMARK    4  A    between atoms: C_8  and  N_9
REMARK    5  A    between atoms: N_12  and  C_13
REMARK    6  A    between atoms: C_19  and  O_20
REMARK    7  A    between atoms: O_20  and  C_21
REMARK                            x       y       z     vdW  Elec       q    Type
REMARK                         _______ _______ _______ _____ _____    ______ ____
ROOT
ATOM      1  N   UNL     1       5.002   3.351  16.196  0.00  0.00    +0.000 N 
ATOM      2  C   UNL     1       4.101   3.552  17.217  0.00  0.00    +0.000 C 
ATOM      3  O   UNL     1       3.441   4.579  17.335  0.00  0.00    +0.000 OA
ATOM      4  N   UNL     1       4.100   2.492  18.103  0.00  0.00    +0.000 N 
ATOM      5  H   UNL     1       5.081   2.386  15.877  0.00  0.00    +0.000 HD
ATOM      6  H   UNL     1       4.997   2.038  18.145  0.00  0.00    +0.000 HD
ENDROOT
BRANCH   4   7
ATOM      7  C   UNL     1       3.297   2.497  19.266  0.00  0.00    +0.000 A 
ATOM      8  C   UNL     1       1.930   2.814  19.109  0.00  0.00    +0.000 A 
ATOM      9  C   UNL     1       1.061   2.845  20.196  0.00  0.00    +0.000 A 
ATOM     10  C   UNL     1       1.556   2.583  21.464  0.00  0.00    +0.000 A 
ATOM     11  F   UNL     1       0.737   2.632  22.522  0.00  0.00    +0.000 F 
ATOM     12  C   UNL     1       2.900   2.270  21.644  0.00  0.00    +0.000 A 
ATOM     13  C   UNL     1       3.780   2.191  20.552  0.00  0.00    +0.000 A 
BRANCH  13  14
ATOM     14  O   UNL     1       5.050   1.921  20.969  0.00  0.00    +0.000 OA
BRANCH  14  15
ATOM     15  C   UNL     1       5.413   0.640  21.443  0.00  0.00    +0.000 C 
ATOM     16  F   UNL     1       5.872  -0.135  20.432  0.00  0.00    +0.000 F 
ATOM     17  F   UNL     1       6.413   0.763  22.347  0.00  0.00    +0.000 F 
ENDBRANCH  14  15
ENDBRANCH  13  14
ENDBRANCH   4   7
BRANCH   1  21
ATOM     18  C   UNL     1       6.939   5.925  15.952  0.00  0.00    +0.000 C 
ATOM     19  C   UNL     1       7.476   5.248  14.697  0.00  0.00    +0.000 C 
ATOM     20  C   UNL     1       6.496   4.118  14.374  0.00  0.00    +0.000 C 
ATOM     21  C   UNL     1       5.227   4.383  15.196  0.00  0.00    +0.000 C 
ATOM     22  C   UNL     1       5.430   5.756  15.843  0.00  0.00    +0.000 C 
BRANCH  18  23
ATOM     23  C   UNL     1       7.480   5.291  17.224  0.00  0.00    +0.000 C 
ATOM     24  O   UNL     1       8.089   4.230  17.266  0.00  0.00    +0.000 OA
BRANCH  23  26
ATOM     25  C   UNL     1       6.422   5.368  19.308  0.00  0.00    +0.000 C 
ATOM     26  O   UNL     1       7.166   6.058  18.302  0.00  0.00    +0.000 OA
ENDBRANCH  23  26
ENDBRANCH  18  23
ENDBRANCH   1  21
TORSDOF 6
ENDMDL
MODEL 6
REMARK VINA RESULT:      -7.4      4.536      6.362
REMARK  Name = 
REMARK  7 active torsions:
REMARK  status: ('A' for Active; 'I' for Inactive)
REMARK    1  A    between atoms: C_1  and  O_2
REMARK    2  A    between atoms: O_2  and  C_3
REMARK    3  A    between atoms: C_3  and  C_5
REMARK    4  A    between atoms: C_8  and  N_9
REMARK    5  A    between atoms: N_12  and  C_13
REMARK    6  A    between atoms: C_19  and  O_20
REMARK    7  A    between atoms: O_20  and  C_21
REMARK                            x       y       z     vdW  Elec       q    Type
REMARK                         _______ _______ _______ _____ _____    ______ ____
ROOT
ATOM      1  N   UNL     1       1.742   8.576  19.343  0.00  0.00    +0.000 N 
ATOM      2  C   UNL     1       2.280   7.373  18.948  0.00  0.00    +0.000 C 
ATOM      3  O   UNL     1       2.361   7.029  17.774  0.00  0.00    +0.000 OA
ATOM      4  N   UNL     1       2.640   6.601  20.036  0.00  0.00    +0.000 N 
ATOM      5  H   UNL     1       2.169   8.986  20.174  0.00  0.00    +0.000 HD
ATOM      6  H   UNL     1       2.062   6.791  20.838  0.00  0.00    +0.000 HD
ENDROOT
BRANCH   4   7
ATOM      7  C   UNL     1       3.162   5.298  19.881  0.00  0.00    +0.000 A 
ATOM      8  C   UNL     1       2.342   4.219  20.276  0.00  0.00    +0.000 A 
ATOM      9  C   UNL     1       2.771   2.898  20.161  0.00  0.00    +0.000 A 
ATOM     10  C   UNL     1       4.041   2.642  19.671  0.00  0.00    +0.000 A 
ATOM     11  F   UNL     1       4.476   1.379  19.576  0.00  0.00    +0.000 F 
ATOM     12  C   UNL     1       4.868   3.689  19.276  0.00  0.00    +0.000 A 
ATOM     13  C   UNL     1       4.434   5.022  19.344  0.00  0.00    +0.000 A 
BRANCH  13  14
ATOM     14  O   UNL     1       5.424   5.877  18.956  0.00  0.00    +0.000 OA
BRANCH  14  15
ATOM     15  C   UNL     1       6.765   5.447  18.840  0.00  0.00    +0.000 C 
ATOM     16  F   UNL     1       7.407   6.133  17.865  0.00  0.00    +0.000 F 
ATOM     17  F   UNL     1       7.415   5.688  20.001  0.00  0.00    +0.000 F 
ENDBRANCH  14  15
ENDBRANCH  13  14
ENDBRANCH   4   7
BRANCH   1  21
ATOM     18  C   UNL     1       0.104  11.358  19.465  0.00  0.00    +0.000 C 
ATOM     19  C   UNL     1       1.286  11.945  18.703  0.00  0.00    +0.000 C 
ATOM     20  C   UNL     1       2.108  10.751  18.214  0.00  0.00    +0.000 C 
ATOM     21  C   UNL     1       1.217   9.510  18.358  0.00  0.00    +0.000 C 
ATOM     22  C   UNL     1      -0.163  10.034  18.763  0.00  0.00    +0.000 C 
BRANCH  18  23
ATOM     23  C   UNL     1       0.414  11.155  20.940  0.00  0.00    +0.000 C 
ATOM     24  O   UNL     1       1.137  11.884  21.605  0.00  0.00    +0.000 OA
BRANCH  23  26
ATOM     25  C   UNL     1      -0.313   9.973  22.823  0.00  0.00    +0.000 C 
ATOM     26  O   UNL     1      -0.204  10.034  21.400  0.00  0.00    +0.000 OA
ENDBRANCH  23  26
ENDBRANCH  18  23
ENDBRANCH   1  21
TORSDOF 6
ENDMDL
MODEL 7
REMARK VINA RESULT:      -7.4      5.820      7.878
REMARK  Name = 
REMARK  7 active torsions:
REMARK  status: ('A' for Active; 'I' for Inactive)
REMARK    1  A    between atoms: C_1  and  O_2
REMARK    2  A    between atoms: O_2  and  C_3
REMARK    3  A    between atoms: C_3  and  C_5
REMARK    4  A    between atoms: C_8  and  N_9
REMARK    5  A    between atoms: N_12  and  C_13
REMARK    6  A    between atoms: C_19  and  O_20
REMARK    7  A    between atoms: O_20  and  C_21
REMARK                            x       y       z     vdW  Elec       q    Type
REMARK                         _______ _______ _______ _____ _____    ______ ____
ROOT
ATOM      1  N   UNL     1       2.185   7.597  19.167  0.00  0.00    +0.000 N 
ATOM      2  C   UNL     1       1.776   8.770  18.576  0.00  0.00    +0.000 C 
ATOM      3  O   UNL     1       2.028   9.057  17.411  0.00  0.00    +0.000 OA
ATOM      4  N   UNL     1       1.122   9.587  19.479  0.00  0.00    +0.000 N 
ATOM      5  H   UNL     1       1.542   7.219  19.863  0.00  0.00    +0.000 HD
ATOM      6  H   UNL     1       1.451   9.445  20.419  0.00  0.00    +0.000 HD
ENDROOT
BRANCH   4   7
ATOM      7  C   UNL     1       0.660  10.872  19.118  0.00  0.00    +0.000 A 
ATOM      8  C   UNL     1       1.605  11.921  19.105  0.00  0.00    +0.000 A 
ATOM      9  C   UNL     1       1.245  13.222  18.762  0.00  0.00    +0.000 A 
ATOM     10  C   UNL     1      -0.078  13.495  18.452  0.00  0.00    +0.000 A 
ATOM     11  F   UNL     1      -0.444  14.745  18.142  0.00  0.00    +0.000 F 
ATOM     12  C   UNL     1      -1.028  12.478  18.458  0.00  0.00    +0.000 A 
ATOM     13  C   UNL     1      -0.671  11.154  18.758  0.00  0.00    +0.000 A 
BRANCH  13  14
ATOM     14  O   UNL     1      -1.767  10.342  18.754  0.00  0.00    +0.000 OA
BRANCH  14  15
ATOM     15  C   UNL     1      -2.468  10.055  17.561  0.00  0.00    +0.000 C 
ATOM     16  F   UNL     1      -1.645   9.496  16.642  0.00  0.00    +0.000 F 
ATOM     17  F   UNL     1      -3.451   9.164  17.821  0.00  0.00    +0.000 F 
ENDBRANCH  14  15
ENDBRANCH  13  14
ENDBRANCH   4   7
BRANCH   1  21
ATOM     18  C   UNL     1       3.092   4.531  19.632  0.00  0.00    +0.000 C 
ATOM     19  C   UNL     1       2.357   4.245  18.328  0.00  0.00    +0.000 C 
ATOM     20  C   UNL     1       2.078   5.608  17.692  0.00  0.00    +0.000 C 
ATOM     21  C   UNL     1       2.969   6.626  18.417  0.00  0.00    +0.000 C 
ATOM     22  C   UNL     1       3.873   5.805  19.339  0.00  0.00    +0.000 C 
BRANCH  18  23
ATOM     23  C   UNL     1       2.139   4.718  20.801  0.00  0.00    +0.000 C 
ATOM     24  O   UNL     1       1.325   5.627  20.895  0.00  0.00    +0.000 OA
BRANCH  23  26
ATOM     25  C   UNL     1       1.460   2.632  21.613  0.00  0.00    +0.000 C 
ATOM     26  O   UNL     1       2.342   3.749  21.733  0.00  0.00    +0.000 OA
ENDBRANCH  23  26
ENDBRANCH  18  23
ENDBRANCH   1  21
TORSDOF 6
ENDMDL
MODEL 8
REMARK VINA RESULT:      -7.4      1.887      2.593
REMARK  Name = 
REMARK  7 active torsions:
REMARK  status: ('A' for Active; 'I' for Inactive)
REMARK    1  A    between atoms: C_1  and  O_2
REMARK    2  A    between atoms: O_2  and  C_3
REMARK    3  A    between atoms: C_3  and  C_5
REMARK    4  A    between atoms: C_8  and  N_9
REMARK    5  A    between atoms: N_12  and  C_13
REMARK    6  A    between atoms: C_19  and  O_20
REMARK    7  A    between atoms: O_20  and  C_21
REMARK                            x       y       z     vdW  Elec       q    Type
REMARK                         _______ _______ _______ _____ _____    ______ ____
ROOT
ATOM      1  N   UNL     1       2.738   3.302  18.058  0.00  0.00    +0.000 N 
ATOM      2  C   UNL     1       3.960   3.373  17.430  0.00  0.00    +0.000 C 
ATOM      3  O   UNL     1       4.931   2.710  17.777  0.00  0.00    +0.000 OA
ATOM      4  N   UNL     1       3.956   4.324  16.427  0.00  0.00    +0.000 N 
ATOM      5  H   UNL     1       1.932   3.432  17.447  0.00  0.00    +0.000 HD
ATOM      6  H   UNL     1       3.312   5.073  16.624  0.00  0.00    +0.000 HD
ENDROOT
BRANCH   4   7
ATOM      7  C   UNL     1       5.117   4.619  15.679  0.00  0.00    +0.000 A 
ATOM      8  C   UNL     1       5.240   4.017  14.408  0.00  0.00    +0.000 A 
ATOM      9  C   UNL     1       6.350   4.248  13.598  0.00  0.00    +0.000 A 
ATOM     10  C   UNL     1       7.366   5.067  14.063  0.00  0.00    +0.000 A 
ATOM     11  F   UNL     1       8.449   5.280  13.306  0.00  0.00    +0.000 F 
ATOM     12  C   UNL     1       7.268   5.671  15.313  0.00  0.00    +0.000 A 
ATOM     13  C   UNL     1       6.135   5.484  16.123  0.00  0.00    +0.000 A 
BRANCH  13  14
ATOM     14  O   UNL     1       6.280   6.127  17.317  0.00  0.00    +0.000 OA
BRANCH  14  15
ATOM     15  C   UNL     1       7.121   5.618  18.331  0.00  0.00    +0.000 C 
ATOM     16  F   UNL     1       8.019   6.552  18.724  0.00  0.00    +0.000 F 
ATOM     17  F   UNL     1       6.375   5.292  19.411  0.00  0.00    +0.000 F 
ENDBRANCH  14  15
ENDBRANCH  13  14
ENDBRANCH   4   7
BRANCH   1  21
ATOM     18  C   UNL     1       2.247   3.731  21.223  0.00  0.00    +0.000 C 
ATOM     19  C   UNL     1       0.955   2.955  21.002  0.00  0.00    +0.000 C 
ATOM     20  C   UNL     1       1.069   2.329  19.610  0.00  0.00    +0.000 C 
ATOM     21  C   UNL     1       2.546   2.423  19.202  0.00  0.00    +0.000 C 
ATOM     22  C   UNL     1       3.286   2.942  20.437  0.00  0.00    +0.000 C 
BRANCH  18  23
ATOM     23  C   UNL     1       2.148   5.166  20.730  0.00  0.00    +0.000 C 
ATOM     24  O   UNL     1       1.179   5.893  20.899  0.00  0.00    +0.000 OA
BRANCH  23  26
ATOM     25  C   UNL     1       3.101   6.596  19.143  0.00  0.00    +0.000 C 
ATOM     26  O   UNL     1       3.277   5.510  20.054  0.00  0.00    +0.000 OA
ENDBRANCH  23  26
ENDBRANCH  18  23
ENDBRANCH   1  21
TORSDOF 6
ENDMDL
MODEL 9
REMARK VINA RESULT:      -7.3      4.385      8.017
REMARK  Name = 
REMARK  7 active torsions:
REMARK  status: ('A' for Active; 'I' for Inactive)
REMARK    1  A    between atoms: C_1  and  O_2
REMARK    2  A    between atoms: O_2  and  C_3
REMARK    3  A    between atoms: C_3  and  C_5
REMARK    4  A    between atoms: C_8  and  N_9
REMARK    5  A    between atoms: N_12  and  C_13
REMARK    6  A    between atoms: C_19  and  O_20
REMARK    7  A    between atoms: O_20  and  C_21
REMARK                            x       y       z     vdW  Elec       q    Type
REMARK                         _______ _______ _______ _____ _____    ______ ____
ROOT
ATOM      1  N   UNL     1       8.399   9.737  17.860  0.00  0.00    +0.000 N 
ATOM      2  C   UNL     1       7.951   8.443  17.994  0.00  0.00    +0.000 C 
ATOM      3  O   UNL     1       8.484   7.624  18.736  0.00  0.00    +0.000 OA
ATOM      4  N   UNL     1       6.892   8.185  17.145  0.00  0.00    +0.000 N 
ATOM      5  H   UNL     1       7.669  10.428  17.689  0.00  0.00    +0.000 HD
ATOM      6  H   UNL     1       6.937   8.745  16.310  0.00  0.00    +0.000 HD
ENDROOT
BRANCH   4   7
ATOM      7  C   UNL     1       6.302   6.905  17.062  0.00  0.00    +0.000 A 
ATOM      8  C   UNL     1       7.133   5.831  16.678  0.00  0.00    +0.000 A 
ATOM      9  C   UNL     1       6.641   4.532  16.568  0.00  0.00    +0.000 A 
ATOM     10  C   UNL     1       5.299   4.296  16.819  0.00  0.00    +0.000 A 
ATOM     11  F   UNL     1       4.806   3.057  16.695  0.00  0.00    +0.000 F 
ATOM     12  C   UNL     1       4.459   5.339  17.199  0.00  0.00    +0.000 A 
ATOM     13  C   UNL     1       4.950   6.645  17.357  0.00  0.00    +0.000 A 
BRANCH  13  14
ATOM     14  O   UNL     1       3.944   7.506  17.682  0.00  0.00    +0.000 OA
BRANCH  14  15
ATOM     15  C   UNL     1       2.695   7.039  18.151  0.00  0.00    +0.000 C 
ATOM     16  F   UNL     1       2.658   7.042  19.505  0.00  0.00    +0.000 F 
ATOM     17  F   UNL     1       1.715   7.863  17.715  0.00  0.00    +0.000 F 
ENDBRANCH  14  15
ENDBRANCH  13  14
ENDBRANCH   4   7
BRANCH   1  21
ATOM     18  C   UNL     1       9.694  12.618  18.539  0.00  0.00    +0.000 C 
ATOM     19  C   UNL     1       9.506  12.221  19.998  0.00  0.00    +0.000 C 
ATOM     20  C   UNL     1       9.187  10.725  19.991  0.00  0.00    +0.000 C 
ATOM     21  C   UNL     1       9.564  10.197  18.600  0.00  0.00    +0.000 C 
ATOM     22  C   UNL     1      10.257  11.361  17.888  0.00  0.00    +0.000 C 
BRANCH  18  23
ATOM     23  C   UNL     1       8.390  13.048  17.886  0.00  0.00    +0.000 C 
ATOM     24  O   UNL     1       7.804  12.411  17.021  0.00  0.00    +0.000 OA
BRANCH  23  26
ATOM     25  C   UNL     1       6.771  14.734  17.816  0.00  0.00    +0.000 C 
ATOM     26  O   UNL     1       7.990  14.249  18.381  0.00  0.00    +0.000 OA
ENDBRANCH  23  26
ENDBRANCH  18  23
ENDBRANCH   1  21
TORSDOF 6
ENDMDL
