MODEL 1
REMARK VINA RESULT:      -7.4      0.000      0.000
REMARK  Name = 
REMARK  13 active torsions:
REMARK  status: ('A' for Active; 'I' for Inactive)
REMARK    1  A    between atoms: C_1  and  C_2
REMARK    2  A    between atoms: C_2  and  O_3
REMARK    3  A    between atoms: O_3  and  C_4
REMARK    4  A    between atoms: C_7  and  O_8
REMARK    5  A    between atoms: O_8  and  C_9
REMARK    6  A    between atoms: C_9  and  C_10
REMARK    7  A    between atoms: C_10  and  O_12
REMARK    8  A    between atoms: O_12  and  C_13
REMARK    9  A    between atoms: C_13  and  C_14
REMARK   10  A    between atoms: C_17  and  C_18
REMARK   11  A    between atoms: C_18  and  C_19
REMARK   12  A    between atoms: N_21  and  C_22
REMARK   13  A    between atoms: C_27  and  C_28
REMARK                            x       y       z     vdW  Elec       q    Type
REMARK                         _______ _______ _______ _____ _____    ______ ____
ROOT
ATOM      1  C   UNL     1       5.290   4.050  18.529  0.00  0.00    +0.000 A 
ATOM      2  C   UNL     1       4.504   3.370  17.616  0.00  0.00    +0.000 A 
ATOM      3  S   UNL     1       2.907   3.205  18.209  0.00  0.00    +0.000 S 
ATOM      4  C   UNL     1       3.354   4.050  19.643  0.00  0.00    +0.000 A 
ATOM      5  N   UNL     1       4.607   4.458  19.678  0.00  0.00    +0.000 NA
ENDROOT
BRANCH   1   6
ATOM      6  C   UNL     1       6.738   4.407  18.362  0.00  0.00    +0.000 C 
BRANCH   6   7
ATOM      7  O   UNL     1       6.883   5.829  18.329  0.00  0.00    +0.000 OA
BRANCH   7   8
ATOM      8  C   UNL     1       7.011   6.303  17.055  0.00  0.00    +0.000 C 
ATOM      9  O   UNL     1       6.719   7.433  16.695  0.00  0.00    +0.000 OA
BRANCH   8  10
ATOM     10  C   UNL     1       7.424   5.173  16.126  0.00  0.00    +0.000 C 
BRANCH  10  11
ATOM     11  O   UNL     1       7.668   5.606  14.798  0.00  0.00    +0.000 OA
BRANCH  11  15
ATOM     12  C   UNL     1       5.588   3.330  11.976  0.00  0.00    +0.000 A 
ATOM     13  C   UNL     1       5.038   3.645  13.220  0.00  0.00    +0.000 A 
ATOM     14  C   UNL     1       5.756   4.410  14.144  0.00  0.00    +0.000 A 
ATOM     15  C   UNL     1       7.042   4.851  13.840  0.00  0.00    +0.000 A 
ATOM     16  C   UNL     1       7.590   4.549  12.591  0.00  0.00    +0.000 A 
ATOM     17  C   UNL     1       6.874   3.771  11.671  0.00  0.00    +0.000 A 
BRANCH  12  18
ATOM     18  O   UNL     1       4.788   2.584  11.159  0.00  0.00    +0.000 OA
BRANCH  18  20
ATOM     19  C   UNL     1       3.203   3.811   9.875  0.00  0.00    +0.000 C 
ATOM     20  C   UNL     1       3.407   2.946  11.106  0.00  0.00    +0.000 C 
ENDBRANCH  18  20
ENDBRANCH  12  18
ENDBRANCH  11  15
ENDBRANCH  10  11
ENDBRANCH   8  10
ENDBRANCH   7   8
ENDBRANCH   6   7
ENDBRANCH   1   6
BRANCH   4  21
ATOM     21  C   UNL     1       2.389   4.178  20.779  0.00  0.00    +0.000 C 
BRANCH  21  22
ATOM     22  C   UNL     1       1.527   5.414  20.629  0.00  0.00    +0.000 C 
ATOM     23  O   UNL     1       0.297   5.340  20.605  0.00  0.00    +0.000 OA
ATOM     24  N   UNL     1       2.256   6.592  20.519  0.00  0.00    +0.000 N 
ATOM     25  H   UNL     1       3.205   6.494  20.181  0.00  0.00    +0.000 HD
BRANCH  24  26
ATOM     26  C   UNL     1       1.664   7.873  20.393  0.00  0.00    +0.000 A 
ATOM     27  C   UNL     1       1.072   8.508  21.487  0.00  0.00    +0.000 A 
ATOM     28  C   UNL     1       0.451   9.751  21.335  0.00  0.00    +0.000 A 
ATOM     29  C   UNL     1       0.393  10.354  20.082  0.00  0.00    +0.000 A 
ATOM     30  C   UNL     1       1.007   9.744  18.992  0.00  0.00    +0.000 A 
ATOM     31  C   UNL     1       1.677   8.519  19.144  0.00  0.00    +0.000 A 
ATOM     32  C   UNL     1       2.340   7.897  17.948  0.00  0.00    +0.000 C 
ENDBRANCH  24  26
ENDBRANCH  21  22
ENDBRANCH   4  21
TORSDOF 11
ENDMDL
MODEL 2
REMARK VINA RESULT:      -7.0      2.587      5.310
REMARK  Name = 
REMARK  13 active torsions:
REMARK  status: ('A' for Active; 'I' for Inactive)
REMARK    1  A    between atoms: C_1  and  C_2
REMARK    2  A    between atoms: C_2  and  O_3
REMARK    3  A    between atoms: O_3  and  C_4
REMARK    4  A    between atoms: C_7  and  O_8
REMARK    5  A    between atoms: O_8  and  C_9
REMARK    6  A    between atoms: C_9  and  C_10
REMARK    7  A    between atoms: C_10  and  O_12
REMARK    8  A    between atoms: O_12  and  C_13
REMARK    9  A    between atoms: C_13  and  C_14
REMARK   10  A    between atoms: C_17  and  C_18
REMARK   11  A    between atoms: C_18  and  C_19
REMARK   12  A    between atoms: N_21  and  C_22
REMARK   13  A    between atoms: C_27  and  C_28
REMARK                            x       y       z     vdW  Elec       q    Type
REMARK                         _______ _______ _______ _____ _____    ______ ____
ROOT
ATOM      1  C   UNL     1       2.168   6.737  19.736  0.00  0.00    +0.000 A 
ATOM      2  C   UNL     1       2.976   6.415  18.661  0.00  0.00    +0.000 A 
ATOM      3  S   UNL     1       3.091   7.739  17.583  0.00  0.00    +0.000 S 
ATOM      4  C   UNL     1       2.062   8.663  18.610  0.00  0.00    +0.000 A 
ATOM      5  N   UNL     1       1.671   8.043  19.707  0.00  0.00    +0.000 NA
ENDROOT
BRANCH   1   6
ATOM      6  C   UNL     1       1.841   5.847  20.900  0.00  0.00    +0.000 C 
BRANCH   6   7
ATOM      7  O   UNL     1       1.404   4.571  20.424  0.00  0.00    +0.000 OA
BRANCH   7   8
ATOM      8  C   UNL     1       2.042   3.541  21.054  0.00  0.00    +0.000 C 
ATOM      9  O   UNL     1       2.080   3.376  22.264  0.00  0.00    +0.000 OA
BRANCH   8  10
ATOM     10  C   UNL     1       2.822   2.723  20.039  0.00  0.00    +0.000 C 
BRANCH  10  11
ATOM     11  O   UNL     1       4.212   3.003  20.049  0.00  0.00    +0.000 OA
BRANCH  11  15
ATOM     12  C   UNL     1       5.488   4.512  16.366  0.00  0.00    +0.000 A 
ATOM     13  C   UNL     1       4.368   3.685  16.476  0.00  0.00    +0.000 A 
ATOM     14  C   UNL     1       3.964   3.196  17.721  0.00  0.00    +0.000 A 
ATOM     15  C   UNL     1       4.687   3.514  18.869  0.00  0.00    +0.000 A 
ATOM     16  C   UNL     1       5.800   4.352  18.764  0.00  0.00    +0.000 A 
ATOM     17  C   UNL     1       6.213   4.830  17.512  0.00  0.00    +0.000 A 
BRANCH  12  18
ATOM     18  O   UNL     1       5.778   4.930  15.099  0.00  0.00    +0.000 OA
BRANCH  18  20
ATOM     19  C   UNL     1       5.661   3.804  13.003  0.00  0.00    +0.000 C 
ATOM     20  C   UNL     1       6.483   4.009  14.264  0.00  0.00    +0.000 C 
ENDBRANCH  18  20
ENDBRANCH  12  18
ENDBRANCH  11  15
ENDBRANCH  10  11
ENDBRANCH   8  10
ENDBRANCH   7   8
ENDBRANCH   6   7
ENDBRANCH   1   6
BRANCH   4  21
ATOM     21  C   UNL     1       1.584  10.016  18.187  0.00  0.00    +0.000 C 
BRANCH  21  22
ATOM     22  C   UNL     1       1.052  10.803  19.366  0.00  0.00    +0.000 C 
ATOM     23  O   UNL     1       1.686  11.743  19.850  0.00  0.00    +0.000 OA
ATOM     24  N   UNL     1      -0.182  10.358  19.822  0.00  0.00    +0.000 N 
ATOM     25  H   UNL     1      -0.410   9.395  19.609  0.00  0.00    +0.000 HD
BRANCH  24  26
ATOM     26  C   UNL     1      -0.884  10.954  20.898  0.00  0.00    +0.000 A 
ATOM     27  C   UNL     1      -0.671  10.546  22.216  0.00  0.00    +0.000 A 
ATOM     28  C   UNL     1      -1.405  11.112  23.263  0.00  0.00    +0.000 A 
ATOM     29  C   UNL     1      -2.378  12.070  22.994  0.00  0.00    +0.000 A 
ATOM     30  C   UNL     1      -2.576  12.507  21.688  0.00  0.00    +0.000 A 
ATOM     31  C   UNL     1      -1.809  11.981  20.635  0.00  0.00    +0.000 A 
ATOM     32  C   UNL     1      -2.041  12.486  19.240  0.00  0.00    +0.000 C 
ENDBRANCH  24  26
ENDBRANCH  21  22
ENDBRANCH   4  21
TORSDOF 11
ENDMDL
MODEL 3
REMARK VINA RESULT:      -7.0      3.728      6.788
REMARK  Name = 
REMARK  13 active torsions:
REMARK  status: ('A' for Active; 'I' for Inactive)
REMARK    1  A    between atoms: C_1  and  C_2
REMARK    2  A    between atoms: C_2  and  O_3
REMARK    3  A    between atoms: O_3  and  C_4
REMARK    4  A    between atoms: C_7  and  O_8
REMARK    5  A    between atoms: O_8  and  C_9
REMARK    6  A    between atoms: C_9  and  C_10
REMARK    7  A    between atoms: C_10  and  O_12
REMARK    8  A    between atoms: O_12  and  C_13
REMARK    9  A    between atoms: C_13  and  C_14
REMARK   10  A    between atoms: C_17  and  C_18
REMARK   11  A    between atoms: C_18  and  C_19
REMARK   12  A    between atoms: N_21  and  C_22
REMARK   13  A    between atoms: C_27  and  C_28
REMARK                            x       y       z     vdW  Elec       q    Type
REMARK                         _______ _______ _______ _____ _____    ______ ____
ROOT
ATOM      1  C   UNL     1       1.073   8.275  21.164  0.00  0.00    +0.000 A 
ATOM      2  C   UNL     1       0.285   8.391  22.295  0.00  0.00    +0.000 A 
ATOM      3  S   UNL     1      -0.380   9.964  22.401  0.00  0.00    +0.000 S 
ATOM      4  C   UNL     1       0.417  10.398  20.936  0.00  0.00    +0.000 A 
ATOM      5  N   UNL     1       1.117   9.430  20.378  0.00  0.00    +0.000 NA
ENDROOT
BRANCH   1   6
ATOM      6  C   UNL     1       1.808   7.046  20.715  0.00  0.00    +0.000 C 
BRANCH   6   7
ATOM      7  O   UNL     1       0.905   5.938  20.658  0.00  0.00    +0.000 OA
BRANCH   7   8
ATOM      8  C   UNL     1       1.557   4.740  20.710  0.00  0.00    +0.000 C 
ATOM      9  O   UNL     1       2.446   4.459  21.500  0.00  0.00    +0.000 OA
BRANCH   8  10
ATOM     10  C   UNL     1       1.120   3.867  19.545  0.00  0.00    +0.000 C 
BRANCH  10  11
ATOM     11  O   UNL     1       1.310   4.488  18.284  0.00  0.00    +0.000 OA
BRANCH  11  15
ATOM     12  C   UNL     1       5.302   4.850  17.100  0.00  0.00    +0.000 A 
ATOM     13  C   UNL     1       4.488   5.967  17.300  0.00  0.00    +0.000 A 
ATOM     14  C   UNL     1       3.156   5.815  17.698  0.00  0.00    +0.000 A 
ATOM     15  C   UNL     1       2.619   4.543  17.880  0.00  0.00    +0.000 A 
ATOM     16  C   UNL     1       3.435   3.424  17.694  0.00  0.00    +0.000 A 
ATOM     17  C   UNL     1       4.766   3.577  17.282  0.00  0.00    +0.000 A 
BRANCH  12  18
ATOM     18  O   UNL     1       6.584   5.128  16.718  0.00  0.00    +0.000 OA
BRANCH  18  20
ATOM     19  C   UNL     1       7.667   5.598  18.786  0.00  0.00    +0.000 C 
ATOM     20  C   UNL     1       7.625   4.672  17.583  0.00  0.00    +0.000 C 
ENDBRANCH  18  20
ENDBRANCH  12  18
ENDBRANCH  11  15
ENDBRANCH  10  11
ENDBRANCH   8  10
ENDBRANCH   7   8
ENDBRANCH   6   7
ENDBRANCH   1   6
BRANCH   4  21
ATOM     21  C   UNL     1       0.380  11.809  20.442  0.00  0.00    +0.000 C 
BRANCH  21  22
ATOM     22  C   UNL     1      -0.480  11.934  19.202  0.00  0.00    +0.000 C 
ATOM     23  O   UNL     1      -0.363  12.891  18.433  0.00  0.00    +0.000 OA
ATOM     24  N   UNL     1      -1.384  10.891  19.043  0.00  0.00    +0.000 N 
ATOM     25  H   UNL     1      -1.641  10.398  19.889  0.00  0.00    +0.000 HD
BRANCH  24  26
ATOM     26  C   UNL     1      -2.274  10.784  17.947  0.00  0.00    +0.000 A 
ATOM     27  C   UNL     1      -1.931  10.059  16.804  0.00  0.00    +0.000 A 
ATOM     28  C   UNL     1      -2.802  10.002  15.711  0.00  0.00    +0.000 A 
ATOM     29  C   UNL     1      -4.010  10.692  15.745  0.00  0.00    +0.000 A 
ATOM     30  C   UNL     1      -4.375  11.391  16.892  0.00  0.00    +0.000 A 
ATOM     31  C   UNL     1      -3.530  11.414  18.013  0.00  0.00    +0.000 A 
ATOM     32  C   UNL     1      -3.964  12.167  19.238  0.00  0.00    +0.000 C 
ENDBRANCH  24  26
ENDBRANCH  21  22
ENDBRANCH   4  21
TORSDOF 11
ENDMDL
MODEL 4
REMARK VINA RESULT:      -6.9      5.096      8.242
REMARK  Name = 
REMARK  13 active torsions:
REMARK  status: ('A' for Active; 'I' for Inactive)
REMARK    1  A    between atoms: C_1  and  C_2
REMARK    2  A    between atoms: C_2  and  O_3
REMARK    3  A    between atoms: O_3  and  C_4
REMARK    4  A    between atoms: C_7  and  O_8
REMARK    5  A    between atoms: O_8  and  C_9
REMARK    6  A    between atoms: C_9  and  C_10
REMARK    7  A    between atoms: C_10  and  O_12
REMARK    8  A    between atoms: O_12  and  C_13
REMARK    9  A    between atoms: C_13  and  C_14
REMARK   10  A    between atoms: C_17  and  C_18
REMARK   11  A    between atoms: C_18  and  C_19
REMARK   12  A    between atoms: N_21  and  C_22
REMARK   13  A    between atoms: C_27  and  C_28
REMARK                            x       y       z     vdW  Elec       q    Type
REMARK                         _______ _______ _______ _____ _____    ______ ____
ROOT
ATOM      1  C   UNL     1       7.867   8.002  17.907  0.00  0.00    +0.000 A 
ATOM      2  C   UNL     1       8.250   6.934  18.698  0.00  0.00    +0.000 A 
ATOM      3  S   UNL     1       7.454   5.505  18.196  0.00  0.00    +0.000 S 
ATOM      4  C   UNL     1       6.651   6.389  16.954  0.00  0.00    +0.000 A 
ATOM      5  N   UNL     1       6.968   7.667  16.890  0.00  0.00    +0.000 NA
ENDROOT
BRANCH   1   6
ATOM      6  C   UNL     1       8.361   9.415  18.022  0.00  0.00    +0.000 C 
BRANCH   6   7
ATOM      7  O   UNL     1       8.978   9.607  19.298  0.00  0.00    +0.000 OA
BRANCH   7   8
ATOM      8  C   UNL     1       9.766  10.722  19.325  0.00  0.00    +0.000 C 
ATOM      9  O   UNL     1      10.207  11.244  20.338  0.00  0.00    +0.000 OA
BRANCH   8  10
ATOM     10  C   UNL     1       9.886  11.299  17.924  0.00  0.00    +0.000 C 
BRANCH  10  11
ATOM     11  O   UNL     1      10.075  12.705  17.917  0.00  0.00    +0.000 OA
BRANCH  11  15
ATOM     12  C   UNL     1       6.633  15.059  18.199  0.00  0.00    +0.000 A 
ATOM     13  C   UNL     1       7.829  15.423  18.821  0.00  0.00    +0.000 A 
ATOM     14  C   UNL     1       8.965  14.617  18.709  0.00  0.00    +0.000 A 
ATOM     15  C   UNL     1       8.912  13.426  17.988  0.00  0.00    +0.000 A 
ATOM     16  C   UNL     1       7.720  13.065  17.353  0.00  0.00    +0.000 A 
ATOM     17  C   UNL     1       6.578  13.867  17.479  0.00  0.00    +0.000 A 
BRANCH  12  18
ATOM     18  O   UNL     1       5.597  15.930  18.378  0.00  0.00    +0.000 OA
BRANCH  18  20
ATOM     19  C   UNL     1       3.421  16.468  17.574  0.00  0.00    +0.000 C 
ATOM     20  C   UNL     1       4.279  15.400  18.231  0.00  0.00    +0.000 C 
ENDBRANCH  18  20
ENDBRANCH  12  18
ENDBRANCH  11  15
ENDBRANCH  10  11
ENDBRANCH   8  10
ENDBRANCH   7   8
ENDBRANCH   6   7
ENDBRANCH   1   6
BRANCH   4  21
ATOM     21  C   UNL     1       5.598   5.735  16.118  0.00  0.00    +0.000 C 
BRANCH  21  22
ATOM     22  C   UNL     1       4.614   4.967  16.977  0.00  0.00    +0.000 C 
ATOM     23  O   UNL     1       4.078   3.934  16.571  0.00  0.00    +0.000 OA
ATOM     24  N   UNL     1       4.393   5.543  18.221  0.00  0.00    +0.000 N 
ATOM     25  H   UNL     1       4.579   6.536  18.287  0.00  0.00    +0.000 HD
BRANCH  24  26
ATOM     26  C   UNL     1       3.531   4.991  19.200  0.00  0.00    +0.000 A 
ATOM     27  C   UNL     1       3.686   3.675  19.641  0.00  0.00    +0.000 A 
ATOM     28  C   UNL     1       2.798   3.129  20.573  0.00  0.00    +0.000 A 
ATOM     29  C   UNL     1       1.733   3.887  21.049  0.00  0.00    +0.000 A 
ATOM     30  C   UNL     1       1.589   5.210  20.641  0.00  0.00    +0.000 A 
ATOM     31  C   UNL     1       2.504   5.784  19.743  0.00  0.00    +0.000 A 
ATOM     32  C   UNL     1       2.324   7.218  19.335  0.00  0.00    +0.000 C 
ENDBRANCH  24  26
ENDBRANCH  21  22
ENDBRANCH   4  21
TORSDOF 11
ENDMDL
MODEL 5
REMARK VINA RESULT:      -6.8      0.656      1.380
REMARK  Name = 
REMARK  13 active torsions:
REMARK  status: ('A' for Active; 'I' for Inactive)
REMARK    1  A    between atoms: C_1  and  C_2
REMARK    2  A    between atoms: C_2  and  O_3
REMARK    3  A    between atoms: O_3  and  C_4
REMARK    4  A    between atoms: C_7  and  O_8
REMARK    5  A    between atoms: O_8  and  C_9
REMARK    6  A    between atoms: C_9  and  C_10
REMARK    7  A    between atoms: C_10  and  O_12
REMARK    8  A    between atoms: O_12  and  C_13
REMARK    9  A    between atoms: C_13  and  C_14
REMARK   10  A    between atoms: C_17  and  C_18
REMARK   11  A    between atoms: C_18  and  C_19
REMARK   12  A    between atoms: N_21  and  C_22
REMARK   13  A    between atoms: C_27  and  C_28
REMARK                            x       y       z     vdW  Elec       q    Type
REMARK                         _______ _______ _______ _____ _____    ______ ____
ROOT
ATOM      1  C   UNL     1       4.824   3.849  18.774  0.00  0.00    +0.000 A 
ATOM      2  C   UNL     1       4.065   2.708  18.590  0.00  0.00    +0.000 A 
ATOM      3  S   UNL     1       2.652   2.769  19.553  0.00  0.00    +0.000 S 
ATOM      4  C   UNL     1       3.131   4.310  20.156  0.00  0.00    +0.000 A 
ATOM      5  N   UNL     1       4.260   4.774  19.657  0.00  0.00    +0.000 NA
ENDROOT
BRANCH   1   6
ATOM      6  C   UNL     1       6.121   4.173  18.091  0.00  0.00    +0.000 C 
BRANCH   6   7
ATOM      7  O   UNL     1       6.428   5.558  18.273  0.00  0.00    +0.000 OA
BRANCH   7   8
ATOM      8  C   UNL     1       6.890   6.137  17.126  0.00  0.00    +0.000 C 
ATOM      9  O   UNL     1       6.715   7.304  16.810  0.00  0.00    +0.000 OA
BRANCH   8  10
ATOM     10  C   UNL     1       7.519   5.078  16.234  0.00  0.00    +0.000 C 
BRANCH  10  11
ATOM     11  O   UNL     1       7.761   5.536  14.914  0.00  0.00    +0.000 OA
BRANCH  11  15
ATOM     12  C   UNL     1       5.597   3.366  12.072  0.00  0.00    +0.000 A 
ATOM     13  C   UNL     1       5.121   3.561  13.371  0.00  0.00    +0.000 A 
ATOM     14  C   UNL     1       5.866   4.292  14.300  0.00  0.00    +0.000 A 
ATOM     15  C   UNL     1       7.106   4.821  13.946  0.00  0.00    +0.000 A 
ATOM     16  C   UNL     1       7.578   4.639  12.643  0.00  0.00    +0.000 A 
ATOM     17  C   UNL     1       6.836   3.894  11.717  0.00  0.00    +0.000 A 
BRANCH  12  18
ATOM     18  O   UNL     1       4.777   2.640  11.257  0.00  0.00    +0.000 OA
BRANCH  18  20
ATOM     19  C   UNL     1       3.264   3.761   9.800  0.00  0.00    +0.000 C 
ATOM     20  C   UNL     1       3.423   3.081  11.149  0.00  0.00    +0.000 C 
ENDBRANCH  18  20
ENDBRANCH  12  18
ENDBRANCH  11  15
ENDBRANCH  10  11
ENDBRANCH   8  10
ENDBRANCH   7   8
ENDBRANCH   6   7
ENDBRANCH   1   6
BRANCH   4  21
ATOM     21  C   UNL     1       2.352   4.974  21.247  0.00  0.00    +0.000 C 
BRANCH  21  22
ATOM     22  C   UNL     1       1.465   6.071  20.697  0.00  0.00    +0.000 C 
ATOM     23  O   UNL     1       0.294   5.853  20.378  0.00  0.00    +0.000 OA
ATOM     24  N   UNL     1       2.101   7.302  20.593  0.00  0.00    +0.000 N 
ATOM     25  H   UNL     1       3.110   7.272  20.521  0.00  0.00    +0.000 HD
BRANCH  24  26
ATOM     26  C   UNL     1       1.465   8.478  20.126  0.00  0.00    +0.000 A 
ATOM     27  C   UNL     1       1.333   8.737  18.760  0.00  0.00    +0.000 A 
ATOM     28  C   UNL     1       0.744   9.924  18.315  0.00  0.00    +0.000 A 
ATOM     29  C   UNL     1       0.310  10.874  19.235  0.00  0.00    +0.000 A 
ATOM     30  C   UNL     1       0.408  10.612  20.598  0.00  0.00    +0.000 A 
ATOM     31  C   UNL     1       0.953   9.401  21.055  0.00  0.00    +0.000 A 
ATOM     32  C   UNL     1       1.030   9.148  22.534  0.00  0.00    +0.000 C 
ENDBRANCH  24  26
ENDBRANCH  21  22
ENDBRANCH   4  21
TORSDOF 11
ENDMDL
MODEL 6
REMARK VINA RESULT:      -6.8      3.766      6.094
REMARK  Name = 
REMARK  13 active torsions:
REMARK  status: ('A' for Active; 'I' for Inactive)
REMARK    1  A    between atoms: C_1  and  C_2
REMARK    2  A    between atoms: C_2  and  O_3
REMARK    3  A    between atoms: O_3  and  C_4
REMARK    4  A    between atoms: C_7  and  O_8
REMARK    5  A    between atoms: O_8  and  C_9
REMARK    6  A    between atoms: C_9  and  C_10
REMARK    7  A    between atoms: C_10  and  O_12
REMARK    8  A    between atoms: O_12  and  C_13
REMARK    9  A    between atoms: C_13  and  C_14
REMARK   10  A    between atoms: C_17  and  C_18
REMARK   11  A    between atoms: C_18  and  C_19
REMARK   12  A    between atoms: N_21  and  C_22
REMARK   13  A    between atoms: C_27  and  C_28
REMARK                            x       y       z     vdW  Elec       q    Type
REMARK                         _______ _______ _______ _____ _____    ______ ____
ROOT
ATOM      1  C   UNL     1       1.132   8.413  20.722  0.00  0.00    +0.000 A 
ATOM      2  C   UNL     1       0.674   9.086  21.839  0.00  0.00    +0.000 A 
ATOM      3  S   UNL     1       0.333  10.718  21.456  0.00  0.00    +0.000 S 
ATOM      4  C   UNL     1       0.812  10.434  19.825  0.00  0.00    +0.000 A 
ATOM      5  N   UNL     1       1.180   9.195  19.563  0.00  0.00    +0.000 NA
ENDROOT
BRANCH   1   6
ATOM      6  C   UNL     1       1.515   6.963  20.652  0.00  0.00    +0.000 C 
BRANCH   6   7
ATOM      7  O   UNL     1       2.719   6.819  19.893  0.00  0.00    +0.000 OA
BRANCH   7   8
ATOM      8  C   UNL     1       2.610   5.852  18.936  0.00  0.00    +0.000 C 
ATOM      9  O   UNL     1       1.964   5.956  17.905  0.00  0.00    +0.000 OA
BRANCH   8  10
ATOM     10  C   UNL     1       3.285   4.577  19.416  0.00  0.00    +0.000 C 
BRANCH  10  11
ATOM     11  O   UNL     1       4.689   4.710  19.555  0.00  0.00    +0.000 OA
BRANCH  11  15
ATOM     12  C   UNL     1       6.894   4.999  16.015  0.00  0.00    +0.000 A 
ATOM     13  C   UNL     1       7.171   5.801  17.125  0.00  0.00    +0.000 A 
ATOM     14  C   UNL     1       6.418   5.681  18.296  0.00  0.00    +0.000 A 
ATOM     15  C   UNL     1       5.365   4.771  18.364  0.00  0.00    +0.000 A 
ATOM     16  C   UNL     1       5.094   3.958  17.260  0.00  0.00    +0.000 A 
ATOM     17  C   UNL     1       5.841   4.089  16.081  0.00  0.00    +0.000 A 
BRANCH  12  18
ATOM     18  O   UNL     1       7.702   5.206  14.934  0.00  0.00    +0.000 OA
BRANCH  18  20
ATOM     19  C   UNL     1       7.930   5.590  12.595  0.00  0.00    +0.000 C 
ATOM     20  C   UNL     1       7.191   4.802  13.663  0.00  0.00    +0.000 C 
ENDBRANCH  18  20
ENDBRANCH  12  18
ENDBRANCH  11  15
ENDBRANCH  10  11
ENDBRANCH   8  10
ENDBRANCH   7   8
ENDBRANCH   6   7
ENDBRANCH   1   6
BRANCH   4  21
ATOM     21  C   UNL     1       0.897  11.566  18.851  0.00  0.00    +0.000 C 
BRANCH  21  22
ATOM     22  C   UNL     1      -0.476  12.116  18.529  0.00  0.00    +0.000 C 
ATOM     23  O   UNL     1      -0.645  13.309  18.267  0.00  0.00    +0.000 OA
ATOM     24  N   UNL     1      -1.483  11.160  18.566  0.00  0.00    +0.000 N 
ATOM     25  H   UNL     1      -1.297  10.345  19.137  0.00  0.00    +0.000 HD
BRANCH  24  26
ATOM     26  C   UNL     1      -2.842  11.438  18.277  0.00  0.00    +0.000 A 
ATOM     27  C   UNL     1      -3.666  12.066  19.213  0.00  0.00    +0.000 A 
ATOM     28  C   UNL     1      -5.017  12.291  18.931  0.00  0.00    +0.000 A 
ATOM     29  C   UNL     1      -5.558  11.863  17.723  0.00  0.00    +0.000 A 
ATOM     30  C   UNL     1      -4.738  11.264  16.771  0.00  0.00    +0.000 A 
ATOM     31  C   UNL     1      -3.369  11.078  17.024  0.00  0.00    +0.000 A 
ATOM     32  C   UNL     1      -2.512  10.441  15.968  0.00  0.00    +0.000 C 
ENDBRANCH  24  26
ENDBRANCH  21  22
ENDBRANCH   4  21
TORSDOF 11
ENDMDL
MODEL 7
REMARK VINA RESULT:      -6.8      3.637      6.720
REMARK  Name = 
REMARK  13 active torsions:
REMARK  status: ('A' for Active; 'I' for Inactive)
REMARK    1  A    between atoms: C_1  and  C_2
REMARK    2  A    between atoms: C_2  and  O_3
REMARK    3  A    between atoms: O_3  and  C_4
REMARK    4  A    between atoms: C_7  and  O_8
REMARK    5  A    between atoms: O_8  and  C_9
REMARK    6  A    between atoms: C_9  and  C_10
REMARK    7  A    between atoms: C_10  and  O_12
REMARK    8  A    between atoms: O_12  and  C_13
REMARK    9  A    between atoms: C_13  and  C_14
REMARK   10  A    between atoms: C_17  and  C_18
REMARK   11  A    between atoms: C_18  and  C_19
REMARK   12  A    between atoms: N_21  and  C_22
REMARK   13  A    between atoms: C_27  and  C_28
REMARK                            x       y       z     vdW  Elec       q    Type
REMARK                         _______ _______ _______ _____ _____    ______ ____
ROOT
ATOM      1  C   UNL     1       1.315   8.309  20.580  0.00  0.00    +0.000 A 
ATOM      2  C   UNL     1       0.818   8.455  21.862  0.00  0.00    +0.000 A 
ATOM      3  S   UNL     1       0.341  10.075  22.136  0.00  0.00    +0.000 S 
ATOM      4  C   UNL     1       0.821  10.486  20.533  0.00  0.00    +0.000 A 
ATOM      5  N   UNL     1       1.285   9.480  19.818  0.00  0.00    +0.000 NA
ENDROOT
BRANCH   1   6
ATOM      6  C   UNL     1       1.815   7.036  19.961  0.00  0.00    +0.000 C 
BRANCH   6   7
ATOM      7  O   UNL     1       1.751   5.976  20.919  0.00  0.00    +0.000 OA
BRANCH   7   8
ATOM      8  C   UNL     1       1.452   4.776  20.339  0.00  0.00    +0.000 C 
ATOM      9  O   UNL     1       1.104   3.774  20.944  0.00  0.00    +0.000 OA
BRANCH   8  10
ATOM     10  C   UNL     1       1.765   4.833  18.853  0.00  0.00    +0.000 C 
BRANCH  10  11
ATOM     11  O   UNL     1       2.682   3.833  18.440  0.00  0.00    +0.000 OA
BRANCH  11  15
ATOM     12  C   UNL     1       6.564   5.254  17.821  0.00  0.00    +0.000 A 
ATOM     13  C   UNL     1       6.000   5.179  19.097  0.00  0.00    +0.000 A 
ATOM     14  C   UNL     1       4.700   4.698  19.274  0.00  0.00    +0.000 A 
ATOM     15  C   UNL     1       3.941   4.305  18.173  0.00  0.00    +0.000 A 
ATOM     16  C   UNL     1       4.507   4.366  16.897  0.00  0.00    +0.000 A 
ATOM     17  C   UNL     1       5.806   4.862  16.720  0.00  0.00    +0.000 A 
BRANCH  12  18
ATOM     18  O   UNL     1       7.841   5.735  17.779  0.00  0.00    +0.000 OA
BRANCH  18  20
ATOM     19  C   UNL     1       7.606   8.092  17.532  0.00  0.00    +0.000 C 
ATOM     20  C   UNL     1       8.084   6.975  18.444  0.00  0.00    +0.000 C 
ENDBRANCH  18  20
ENDBRANCH  12  18
ENDBRANCH  11  15
ENDBRANCH  10  11
ENDBRANCH   8  10
ENDBRANCH   7   8
ENDBRANCH   6   7
ENDBRANCH   1   6
BRANCH   4  21
ATOM     21  C   UNL     1       0.802  11.911  20.078  0.00  0.00    +0.000 C 
BRANCH  21  22
ATOM     22  C   UNL     1      -0.434  12.206  19.253  0.00  0.00    +0.000 C 
ATOM     23  O   UNL     1      -0.487  13.184  18.504  0.00  0.00    +0.000 OA
ATOM     24  N   UNL     1      -1.459  11.287  19.436  0.00  0.00    +0.000 N 
ATOM     25  H   UNL     1      -1.446  10.780  20.312  0.00  0.00    +0.000 HD
BRANCH  24  26
ATOM     26  C   UNL     1      -2.699  11.348  18.754  0.00  0.00    +0.000 A 
ATOM     27  C   UNL     1      -3.766  12.094  19.258  0.00  0.00    +0.000 A 
ATOM     28  C   UNL     1      -4.999  12.106  18.598  0.00  0.00    +0.000 A 
ATOM     29  C   UNL     1      -5.180  11.349  17.445  0.00  0.00    +0.000 A 
ATOM     30  C   UNL     1      -4.114  10.626  16.918  0.00  0.00    +0.000 A 
ATOM     31  C   UNL     1      -2.858  10.647  17.545  0.00  0.00    +0.000 A 
ATOM     32  C   UNL     1      -1.727   9.866  16.939  0.00  0.00    +0.000 C 
ENDBRANCH  24  26
ENDBRANCH  21  22
ENDBRANCH   4  21
TORSDOF 11
ENDMDL
MODEL 8
REMARK VINA RESULT:      -6.7      3.232      9.053
REMARK  Name = 
REMARK  13 active torsions:
REMARK  status: ('A' for Active; 'I' for Inactive)
REMARK    1  A    between atoms: C_1  and  C_2
REMARK    2  A    between atoms: C_2  and  O_3
REMARK    3  A    between atoms: O_3  and  C_4
REMARK    4  A    between atoms: C_7  and  O_8
REMARK    5  A    between atoms: O_8  and  C_9
REMARK    6  A    between atoms: C_9  and  C_10
REMARK    7  A    between atoms: C_10  and  O_12
REMARK    8  A    between atoms: O_12  and  C_13
REMARK    9  A    between atoms: C_13  and  C_14
REMARK   10  A    between atoms: C_17  and  C_18
REMARK   11  A    between atoms: C_18  and  C_19
REMARK   12  A    between atoms: N_21  and  C_22
REMARK   13  A    between atoms: C_27  and  C_28
REMARK                            x       y       z     vdW  Elec       q    Type
REMARK                         _______ _______ _______ _____ _____    ______ ____
ROOT
ATOM      1  C   UNL     1       1.894   6.155  20.264  0.00  0.00    +0.000 A 
ATOM      2  C   UNL     1       0.849   5.290  20.532  0.00  0.00    +0.000 A 
ATOM      3  S   UNL     1       1.401   3.670  20.540  0.00  0.00    +0.000 S 
ATOM      4  C   UNL     1       2.998   4.214  20.190  0.00  0.00    +0.000 A 
ATOM      5  N   UNL     1       3.130   5.523  20.097  0.00  0.00    +0.000 NA
ENDROOT
BRANCH   1   6
ATOM      6  C   UNL     1       1.813   7.652  20.192  0.00  0.00    +0.000 C 
BRANCH   6   7
ATOM      7  O   UNL     1       1.477   8.179  21.479  0.00  0.00    +0.000 OA
BRANCH   7   8
ATOM      8  C   UNL     1       0.232   8.737  21.496  0.00  0.00    +0.000 C 
ATOM      9  O   UNL     1      -0.802   8.138  21.752  0.00  0.00    +0.000 OA
BRANCH   8  10
ATOM     10  C   UNL     1       0.306  10.172  21.001  0.00  0.00    +0.000 C 
BRANCH  10  11
ATOM     11  O   UNL     1       0.324  10.272  19.587  0.00  0.00    +0.000 OA
BRANCH  11  15
ATOM     12  C   UNL     1      -3.296  11.368  17.807  0.00  0.00    +0.000 A 
ATOM     13  C   UNL     1      -2.466  10.392  17.251  0.00  0.00    +0.000 A 
ATOM     14  C   UNL     1      -1.261  10.045  17.869  0.00  0.00    +0.000 A 
ATOM     15  C   UNL     1      -0.864  10.685  19.041  0.00  0.00    +0.000 A 
ATOM     16  C   UNL     1      -1.699  11.652  19.608  0.00  0.00    +0.000 A 
ATOM     17  C   UNL     1      -2.900  12.008  18.979  0.00  0.00    +0.000 A 
BRANCH  12  18
ATOM     18  O   UNL     1      -4.446  11.614  17.114  0.00  0.00    +0.000 OA
BRANCH  18  20
ATOM     19  C   UNL     1      -6.351  10.847  18.320  0.00  0.00    +0.000 C 
ATOM     20  C   UNL     1      -5.568  12.069  17.871  0.00  0.00    +0.000 C 
ENDBRANCH  18  20
ENDBRANCH  12  18
ENDBRANCH  11  15
ENDBRANCH  10  11
ENDBRANCH   8  10
ENDBRANCH   7   8
ENDBRANCH   6   7
ENDBRANCH   1   6
BRANCH   4  21
ATOM     21  C   UNL     1       4.089   3.231  19.907  0.00  0.00    +0.000 C 
BRANCH  21  22
ATOM     22  C   UNL     1       5.013   3.736  18.818  0.00  0.00    +0.000 C 
ATOM     23  O   UNL     1       6.199   3.984  19.045  0.00  0.00    +0.000 OA
ATOM     24  N   UNL     1       4.391   3.885  17.585  0.00  0.00    +0.000 N 
ATOM     25  H   UNL     1       3.388   4.014  17.610  0.00  0.00    +0.000 HD
BRANCH  24  26
ATOM     26  C   UNL     1       5.061   4.322  16.415  0.00  0.00    +0.000 A 
ATOM     27  C   UNL     1       5.662   3.412  15.543  0.00  0.00    +0.000 A 
ATOM     28  C   UNL     1       6.360   3.862  14.418  0.00  0.00    +0.000 A 
ATOM     29  C   UNL     1       6.484   5.226  14.173  0.00  0.00    +0.000 A 
ATOM     30  C   UNL     1       5.861   6.139  15.019  0.00  0.00    +0.000 A 
ATOM     31  C   UNL     1       5.116   5.696  16.124  0.00  0.00    +0.000 A 
ATOM     32  C   UNL     1       4.447   6.711  17.007  0.00  0.00    +0.000 C 
ENDBRANCH  24  26
ENDBRANCH  21  22
ENDBRANCH   4  21
TORSDOF 11
ENDMDL
MODEL 9
REMARK VINA RESULT:      -6.6      5.841      8.126
REMARK  Name = 
REMARK  13 active torsions:
REMARK  status: ('A' for Active; 'I' for Inactive)
REMARK    1  A    between atoms: C_1  and  C_2
REMARK    2  A    between atoms: C_2  and  O_3
REMARK    3  A    between atoms: O_3  and  C_4
REMARK    4  A    between atoms: C_7  and  O_8
REMARK    5  A    between atoms: O_8  and  C_9
REMARK    6  A    between atoms: C_9  and  C_10
REMARK    7  A    between atoms: C_10  and  O_12
REMARK    8  A    between atoms: O_12  and  C_13
REMARK    9  A    between atoms: C_13  and  C_14
REMARK   10  A    between atoms: C_17  and  C_18
REMARK   11  A    between atoms: C_18  and  C_19
REMARK   12  A    between atoms: N_21  and  C_22
REMARK   13  A    between atoms: C_27  and  C_28
REMARK                            x       y       z     vdW  Elec       q    Type
REMARK                         _______ _______ _______ _____ _____    ______ ____
ROOT
ATOM      1  C   UNL     1       8.490  10.113  18.268  0.00  0.00    +0.000 A 
ATOM      2  C   UNL     1       9.327   9.899  19.348  0.00  0.00    +0.000 A 
ATOM      3  S   UNL     1      10.322  11.266  19.611  0.00  0.00    +0.000 S 
ATOM      4  C   UNL     1       9.579  12.063  18.276  0.00  0.00    +0.000 A 
ATOM      5  N   UNL     1       8.627  11.373  17.679  0.00  0.00    +0.000 NA
ENDROOT
BRANCH   1   6
ATOM      6  C   UNL     1       7.459   9.157  17.740  0.00  0.00    +0.000 C 
BRANCH   6   7
ATOM      7  O   UNL     1       8.107   8.019  17.166  0.00  0.00    +0.000 OA
BRANCH   7   8
ATOM      8  C   UNL     1       7.640   6.846  17.684  0.00  0.00    +0.000 C 
ATOM      9  O   UNL     1       7.825   6.462  18.829  0.00  0.00    +0.000 OA
BRANCH   8  10
ATOM     10  C   UNL     1       6.989   6.023  16.584  0.00  0.00    +0.000 C 
BRANCH  10  11
ATOM     11  O   UNL     1       5.705   6.501  16.219  0.00  0.00    +0.000 OA
BRANCH  11  15
ATOM     12  C   UNL     1       2.638   4.439  18.172  0.00  0.00    +0.000 A 
ATOM     13  C   UNL     1       3.532   3.794  17.315  0.00  0.00    +0.000 A 
ATOM     14  C   UNL     1       4.549   4.508  16.676  0.00  0.00    +0.000 A 
ATOM     15  C   UNL     1       4.671   5.882  16.873  0.00  0.00    +0.000 A 
ATOM     16  C   UNL     1       3.787   6.529  17.741  0.00  0.00    +0.000 A 
ATOM     17  C   UNL     1       2.759   5.813  18.369  0.00  0.00    +0.000 A 
BRANCH  12  18
ATOM     18  O   UNL     1       1.694   3.633  18.740  0.00  0.00    +0.000 OA
BRANCH  18  20
ATOM     19  C   UNL     1       1.398   3.114  21.045  0.00  0.00    +0.000 C 
ATOM     20  C   UNL     1       1.082   4.107  19.940  0.00  0.00    +0.000 C 
ENDBRANCH  18  20
ENDBRANCH  12  18
ENDBRANCH  11  15
ENDBRANCH  10  11
ENDBRANCH   8  10
ENDBRANCH   7   8
ENDBRANCH   6   7
ENDBRANCH   1   6
BRANCH   4  21
ATOM     21  C   UNL     1      10.092  13.385  17.801  0.00  0.00    +0.000 C 
BRANCH  21  22
ATOM     22  C   UNL     1       9.062  14.477  18.000  0.00  0.00    +0.000 C 
ATOM     23  O   UNL     1       9.270  15.633  17.626  0.00  0.00    +0.000 OA
ATOM     24  N   UNL     1       7.905  14.043  18.634  0.00  0.00    +0.000 N 
ATOM     25  H   UNL     1       8.000  13.214  19.208  0.00  0.00    +0.000 HD
BRANCH  24  26
ATOM     26  C   UNL     1       6.796  14.881  18.907  0.00  0.00    +0.000 A 
ATOM     27  C   UNL     1       5.749  15.017  17.992  0.00  0.00    +0.000 A 
ATOM     28  C   UNL     1       4.685  15.885  18.255  0.00  0.00    +0.000 A 
ATOM     29  C   UNL     1       4.676  16.644  19.422  0.00  0.00    +0.000 A 
ATOM     30  C   UNL     1       5.698  16.492  20.354  0.00  0.00    +0.000 A 
ATOM     31  C   UNL     1       6.746  15.586  20.122  0.00  0.00    +0.000 A 
ATOM     32  C   UNL     1       7.825  15.439  21.157  0.00  0.00    +0.000 C 
ENDBRANCH  24  26
ENDBRANCH  21  22
ENDBRANCH   4  21
TORSDOF 11
ENDMDL
