MODEL 1
REMARK VINA RESULT:      -8.5      0.000      0.000
REMARK  Name = 
REMARK  6 active torsions:
REMARK  status: ('A' for Active; 'I' for Inactive)
REMARK    1  A    between atoms: C_1  and  O_2
REMARK    2  A    between atoms: O_2  and  C_3
REMARK    3  A    between atoms: C_7  and  N_8
REMARK    4  A    between atoms: C_12  and  C_14
REMARK    5  A    between atoms: C_17  and  C_18
REMARK    6  A    between atoms: C_19  and  N_20
REMARK                            x       y       z     vdW  Elec       q    Type
REMARK                         _______ _______ _______ _____ _____    ______ ____
ROOT
ATOM      1  N   UNL     1       1.581   8.428  19.568  0.00  0.00    +0.000 N 
ATOM      2  C   UNL     1       1.509   9.315  18.393  0.00  0.00    +0.000 C 
ATOM      3  C   UNL     1       0.127  10.011  18.340  0.00  0.00    +0.000 C 
ATOM      4  N   UNL     1      -0.235  10.622  19.629  0.00  0.00    +0.000 N 
ATOM      5  C   UNL     1      -0.698  11.936  19.641  0.00  0.00    +0.000 C 
ATOM      6  O   UNL     1      -0.871  12.579  18.606  0.00  0.00    +0.000 OA
ATOM      7  C   UNL     1      -0.174   9.665  20.750  0.00  0.00    +0.000 C 
ATOM      8  C   UNL     1       1.241   9.068  20.850  0.00  0.00    +0.000 C 
ENDROOT
BRANCH   5   9
ATOM      9  C   UNL     1      -1.023  12.625  20.920  0.00  0.00    +0.000 A 
ATOM     10  C   UNL     1      -0.089  13.513  21.455  0.00  0.00    +0.000 A 
ATOM     11  C   UNL     1      -0.378  14.215  22.628  0.00  0.00    +0.000 A 
ATOM     12  C   UNL     1      -1.614  14.061  23.283  0.00  0.00    +0.000 A 
ATOM     13  C   UNL     1      -1.845  14.861  24.539  0.00  0.00    +0.000 C 
ATOM     14  C   UNL     1      -2.539  13.128  22.765  0.00  0.00    +0.000 A 
ATOM     15  C   UNL     1      -2.201  12.375  21.626  0.00  0.00    +0.000 A 
BRANCH  14  16
ATOM     16  N   UNL     1      -3.825  12.927  23.347  0.00  0.00    +0.000 N 
ATOM     17  N   UNL     1      -4.058  11.959  24.278  0.00  0.00    +0.000 NA
ATOM     18  N   UNL     1      -5.327  12.026  24.660  0.00  0.00    +0.000 NA
ATOM     19  C   UNL     1      -5.923  13.029  23.957  0.00  0.00    +0.000 A 
ATOM     20  C   UNL     1      -7.245  13.484  23.919  0.00  0.00    +0.000 A 
ATOM     21  C   UNL     1      -7.535  14.524  23.033  0.00  0.00    +0.000 A 
ATOM     22  C   UNL     1      -6.514  15.072  22.266  0.00  0.00    +0.000 A 
ATOM     23  N   UNL     1      -5.219  14.675  22.285  0.00  0.00    +0.000 NA
ATOM     24  C   UNL     1      -4.990  13.652  23.139  0.00  0.00    +0.000 A 
ENDBRANCH  14  16
ENDBRANCH   5   9
BRANCH   1  29
ATOM     25  C   UNL     1       2.393   4.945  20.545  0.00  0.00    +0.000 A 
ATOM     26  C   UNL     1       3.153   4.530  19.455  0.00  0.00    +0.000 A 
ATOM     27  C   UNL     1       3.387   5.402  18.393  0.00  0.00    +0.000 A 
ATOM     28  C   UNL     1       2.870   6.701  18.427  0.00  0.00    +0.000 A 
ATOM     29  C   UNL     1       2.114   7.157  19.514  0.00  0.00    +0.000 A 
ATOM     30  C   UNL     1       1.885   6.246  20.561  0.00  0.00    +0.000 A 
BRANCH  25  32
ATOM     31  C   UNL     1       1.359   2.908  21.193  0.00  0.00    +0.000 C 
ATOM     32  O   UNL     1       2.205   4.005  21.523  0.00  0.00    +0.000 OA
ENDBRANCH  25  32
ENDBRANCH   1  29
TORSDOF 4
ENDMDL
MODEL 2
REMARK VINA RESULT:      -8.4      1.118      1.819
REMARK  Name = 
REMARK  6 active torsions:
REMARK  status: ('A' for Active; 'I' for Inactive)
REMARK    1  A    between atoms: C_1  and  O_2
REMARK    2  A    between atoms: O_2  and  C_3
REMARK    3  A    between atoms: C_7  and  N_8
REMARK    4  A    between atoms: C_12  and  C_14
REMARK    5  A    between atoms: C_17  and  C_18
REMARK    6  A    between atoms: C_19  and  N_20
REMARK                            x       y       z     vdW  Elec       q    Type
REMARK                         _______ _______ _______ _____ _____    ______ ____
ROOT
ATOM      1  N   UNL     1       1.616   8.568  19.294  0.00  0.00    +0.000 N 
ATOM      2  C   UNL     1       1.409   9.453  18.134  0.00  0.00    +0.000 C 
ATOM      3  C   UNL     1      -0.013  10.063  18.179  0.00  0.00    +0.000 C 
ATOM      4  N   UNL     1      -0.323  10.647  19.494  0.00  0.00    +0.000 N 
ATOM      5  C   UNL     1      -0.863  11.930  19.547  0.00  0.00    +0.000 C 
ATOM      6  O   UNL     1      -1.145  12.564  18.530  0.00  0.00    +0.000 OA
ATOM      7  C   UNL     1      -0.128   9.692  20.601  0.00  0.00    +0.000 C 
ATOM      8  C   UNL     1       1.325   9.182  20.602  0.00  0.00    +0.000 C 
ENDROOT
BRANCH   5   9
ATOM      9  C   UNL     1      -1.142  12.594  20.850  0.00  0.00    +0.000 A 
ATOM     10  C   UNL     1      -0.170  13.437  21.390  0.00  0.00    +0.000 A 
ATOM     11  C   UNL     1      -0.415  14.115  22.586  0.00  0.00    +0.000 A 
ATOM     12  C   UNL     1      -1.642  13.983  23.261  0.00  0.00    +0.000 A 
ATOM     13  C   UNL     1      -1.824  14.756  24.542  0.00  0.00    +0.000 C 
ATOM     14  C   UNL     1      -2.606  13.093  22.737  0.00  0.00    +0.000 A 
ATOM     15  C   UNL     1      -2.314  12.361  21.571  0.00  0.00    +0.000 A 
BRANCH  14  16
ATOM     16  N   UNL     1      -3.886  12.917  23.339  0.00  0.00    +0.000 N 
ATOM     17  N   UNL     1      -4.128  11.943  24.260  0.00  0.00    +0.000 NA
ATOM     18  N   UNL     1      -5.389  12.036  24.665  0.00  0.00    +0.000 NA
ATOM     19  C   UNL     1      -5.970  13.065  23.987  0.00  0.00    +0.000 A 
ATOM     20  C   UNL     1      -7.280  13.554  23.979  0.00  0.00    +0.000 A 
ATOM     21  C   UNL     1      -7.559  14.614  23.113  0.00  0.00    +0.000 A 
ATOM     22  C   UNL     1      -6.538  15.146  22.335  0.00  0.00    +0.000 A 
ATOM     23  N   UNL     1      -5.253  14.716  22.326  0.00  0.00    +0.000 NA
ATOM     24  C   UNL     1      -5.036  13.675  23.162  0.00  0.00    +0.000 A 
ENDBRANCH  14  16
ENDBRANCH   5   9
BRANCH   1  29
ATOM     25  C   UNL     1       3.675   5.793  17.955  0.00  0.00    +0.000 A 
ATOM     26  C   UNL     1       3.510   4.831  18.947  0.00  0.00    +0.000 A 
ATOM     27  C   UNL     1       2.723   5.107  20.063  0.00  0.00    +0.000 A 
ATOM     28  C   UNL     1       2.087   6.348  20.182  0.00  0.00    +0.000 A 
ATOM     29  C   UNL     1       2.220   7.332  19.196  0.00  0.00    +0.000 A 
ATOM     30  C   UNL     1       3.033   7.026  18.091  0.00  0.00    +0.000 A 
BRANCH  25  32
ATOM     31  C   UNL     1       5.029   6.487  16.131  0.00  0.00    +0.000 C 
ATOM     32  O   UNL     1       4.485   5.428  16.911  0.00  0.00    +0.000 OA
ENDBRANCH  25  32
ENDBRANCH   1  29
TORSDOF 4
ENDMDL
MODEL 3
REMARK VINA RESULT:      -8.3      3.067     10.952
REMARK  Name = 
REMARK  6 active torsions:
REMARK  status: ('A' for Active; 'I' for Inactive)
REMARK    1  A    between atoms: C_1  and  O_2
REMARK    2  A    between atoms: O_2  and  C_3
REMARK    3  A    between atoms: C_7  and  N_8
REMARK    4  A    between atoms: C_12  and  C_14
REMARK    5  A    between atoms: C_17  and  C_18
REMARK    6  A    between atoms: C_19  and  N_20
REMARK                            x       y       z     vdW  Elec       q    Type
REMARK                         _______ _______ _______ _____ _____    ______ ____
ROOT
ATOM      1  N   UNL     1      -0.797  11.128  21.425  0.00  0.00    +0.000 N 
ATOM      2  C   UNL     1      -0.861  11.283  19.961  0.00  0.00    +0.000 C 
ATOM      3  C   UNL     1       0.523  10.987  19.335  0.00  0.00    +0.000 C 
ATOM      4  N   UNL     1       1.091   9.719  19.821  0.00  0.00    +0.000 N 
ATOM      5  C   UNL     1       1.599   8.813  18.893  0.00  0.00    +0.000 C 
ATOM      6  O   UNL     1       1.644   9.065  17.689  0.00  0.00    +0.000 OA
ATOM      7  C   UNL     1       1.156   9.651  21.293  0.00  0.00    +0.000 C 
ATOM      8  C   UNL     1      -0.251   9.840  21.888  0.00  0.00    +0.000 C 
ENDROOT
BRANCH   5   9
ATOM      9  C   UNL     1       2.130   7.490  19.321  0.00  0.00    +0.000 A 
ATOM     10  C   UNL     1       1.331   6.680  20.128  0.00  0.00    +0.000 A 
ATOM     11  C   UNL     1       1.776   5.411  20.509  0.00  0.00    +0.000 A 
ATOM     12  C   UNL     1       3.021   4.915  20.079  0.00  0.00    +0.000 A 
ATOM     13  C   UNL     1       3.419   3.535  20.533  0.00  0.00    +0.000 C 
ATOM     14  C   UNL     1       3.848   5.756  19.300  0.00  0.00    +0.000 A 
ATOM     15  C   UNL     1       3.415   7.058  18.988  0.00  0.00    +0.000 A 
BRANCH  14  16
ATOM     16  N   UNL     1       5.111   5.327  18.798  0.00  0.00    +0.000 N 
ATOM     17  N   UNL     1       6.177   5.095  19.614  0.00  0.00    +0.000 NA
ATOM     18  N   UNL     1       7.201   4.681  18.878  0.00  0.00    +0.000 NA
ATOM     19  C   UNL     1       6.800   4.665  17.577  0.00  0.00    +0.000 A 
ATOM     20  C   UNL     1       7.487   4.375  16.393  0.00  0.00    +0.000 A 
ATOM     21  C   UNL     1       6.777   4.504  15.197  0.00  0.00    +0.000 A 
ATOM     22  C   UNL     1       5.438   4.877  15.235  0.00  0.00    +0.000 A 
ATOM     23  N   UNL     1       4.731   5.148  16.358  0.00  0.00    +0.000 NA
ATOM     24  C   UNL     1       5.465   5.032  17.488  0.00  0.00    +0.000 A 
ENDBRANCH  14  16
ENDBRANCH   5   9
BRANCH   1  29
ATOM     25  C   UNL     1      -3.205  12.566  23.848  0.00  0.00    +0.000 A 
ATOM     26  C   UNL     1      -2.609  13.793  24.124  0.00  0.00    +0.000 A 
ATOM     27  C   UNL     1      -1.405  14.138  23.513  0.00  0.00    +0.000 A 
ATOM     28  C   UNL     1      -0.799  13.257  22.611  0.00  0.00    +0.000 A 
ATOM     29  C   UNL     1      -1.379  12.021  22.300  0.00  0.00    +0.000 A 
ATOM     30  C   UNL     1      -2.585  11.699  22.946  0.00  0.00    +0.000 A 
BRANCH  25  32
ATOM     31  C   UNL     1      -5.534  12.989  24.039  0.00  0.00    +0.000 C 
ATOM     32  O   UNL     1      -4.374  12.316  24.517  0.00  0.00    +0.000 OA
ENDBRANCH  25  32
ENDBRANCH   1  29
TORSDOF 4
ENDMDL
MODEL 4
REMARK VINA RESULT:      -8.0      2.990     11.006
REMARK  Name = 
REMARK  6 active torsions:
REMARK  status: ('A' for Active; 'I' for Inactive)
REMARK    1  A    between atoms: C_1  and  O_2
REMARK    2  A    between atoms: O_2  and  C_3
REMARK    3  A    between atoms: C_7  and  N_8
REMARK    4  A    between atoms: C_12  and  C_14
REMARK    5  A    between atoms: C_17  and  C_18
REMARK    6  A    between atoms: C_19  and  N_20
REMARK                            x       y       z     vdW  Elec       q    Type
REMARK                         _______ _______ _______ _____ _____    ______ ____
ROOT
ATOM      1  N   UNL     1      -0.869  11.283  21.157  0.00  0.00    +0.000 N 
ATOM      2  C   UNL     1      -0.870  11.422  19.690  0.00  0.00    +0.000 C 
ATOM      3  C   UNL     1       0.538  11.111  19.128  0.00  0.00    +0.000 C 
ATOM      4  N   UNL     1       1.076   9.845  19.651  0.00  0.00    +0.000 N 
ATOM      5  C   UNL     1       1.617   8.925  18.756  0.00  0.00    +0.000 C 
ATOM      6  O   UNL     1       1.716   9.163  17.552  0.00  0.00    +0.000 OA
ATOM      7  C   UNL     1       1.078   9.793  21.125  0.00  0.00    +0.000 C 
ATOM      8  C   UNL     1      -0.352   9.997  21.657  0.00  0.00    +0.000 C 
ENDROOT
BRANCH   5   9
ATOM      9  C   UNL     1       2.122   7.604  19.221  0.00  0.00    +0.000 A 
ATOM     10  C   UNL     1       1.303   6.829  20.043  0.00  0.00    +0.000 A 
ATOM     11  C   UNL     1       1.721   5.563  20.459  0.00  0.00    +0.000 A 
ATOM     12  C   UNL     1       2.959   5.033  20.050  0.00  0.00    +0.000 A 
ATOM     13  C   UNL     1       3.329   3.658  20.542  0.00  0.00    +0.000 C 
ATOM     14  C   UNL     1       3.806   5.838  19.256  0.00  0.00    +0.000 A 
ATOM     15  C   UNL     1       3.400   7.139  18.907  0.00  0.00    +0.000 A 
BRANCH  14  16
ATOM     16  N   UNL     1       5.064   5.373  18.773  0.00  0.00    +0.000 N 
ATOM     17  N   UNL     1       6.118   5.134  19.603  0.00  0.00    +0.000 NA
ATOM     18  N   UNL     1       7.139   4.684  18.884  0.00  0.00    +0.000 NA
ATOM     19  C   UNL     1       6.749   4.653  17.580  0.00  0.00    +0.000 A 
ATOM     20  C   UNL     1       7.440   4.327  16.408  0.00  0.00    +0.000 A 
ATOM     21  C   UNL     1       6.743   4.449  15.203  0.00  0.00    +0.000 A 
ATOM     22  C   UNL     1       5.413   4.851  15.222  0.00  0.00    +0.000 A 
ATOM     23  N   UNL     1       4.702   5.158  16.333  0.00  0.00    +0.000 NA
ATOM     24  C   UNL     1       5.423   5.047  17.472  0.00  0.00    +0.000 A 
ENDBRANCH  14  16
ENDBRANCH   5   9
BRANCH   1  29
ATOM     25  C   UNL     1      -1.293  14.066  23.569  0.00  0.00    +0.000 A 
ATOM     26  C   UNL     1      -2.677  14.091  23.709  0.00  0.00    +0.000 A 
ATOM     27  C   UNL     1      -3.469  13.192  22.998  0.00  0.00    +0.000 A 
ATOM     28  C   UNL     1      -2.873  12.253  22.150  0.00  0.00    +0.000 A 
ATOM     29  C   UNL     1      -1.483  12.190  21.996  0.00  0.00    +0.000 A 
ATOM     30  C   UNL     1      -0.715  13.121  22.717  0.00  0.00    +0.000 A 
BRANCH  25  32
ATOM     31  C   UNL     1      -1.228  15.446  25.500  0.00  0.00    +0.000 C 
ATOM     32  O   UNL     1      -0.610  15.005  24.295  0.00  0.00    +0.000 OA
ENDBRANCH  25  32
ENDBRANCH   1  29
TORSDOF 4
ENDMDL
MODEL 5
REMARK VINA RESULT:      -7.9      3.262      5.040
REMARK  Name = 
REMARK  6 active torsions:
REMARK  status: ('A' for Active; 'I' for Inactive)
REMARK    1  A    between atoms: C_1  and  O_2
REMARK    2  A    between atoms: O_2  and  C_3
REMARK    3  A    between atoms: C_7  and  N_8
REMARK    4  A    between atoms: C_12  and  C_14
REMARK    5  A    between atoms: C_17  and  C_18
REMARK    6  A    between atoms: C_19  and  N_20
REMARK                            x       y       z     vdW  Elec       q    Type
REMARK                         _______ _______ _______ _____ _____    ______ ____
ROOT
ATOM      1  N   UNL     1       2.778   6.197  18.240  0.00  0.00    +0.000 N 
ATOM      2  C   UNL     1       2.075   5.699  19.436  0.00  0.00    +0.000 C 
ATOM      3  C   UNL     1       2.113   6.766  20.556  0.00  0.00    +0.000 C 
ATOM      4  N   UNL     1       1.694   8.092  20.071  0.00  0.00    +0.000 N 
ATOM      5  C   UNL     1       0.752   8.808  20.807  0.00  0.00    +0.000 C 
ATOM      6  O   UNL     1       0.307   8.396  21.877  0.00  0.00    +0.000 OA
ATOM      7  C   UNL     1       2.466   8.538  18.896  0.00  0.00    +0.000 C 
ATOM      8  C   UNL     1       2.324   7.513  17.757  0.00  0.00    +0.000 C 
ENDROOT
BRANCH   5   9
ATOM      9  C   UNL     1       0.248  10.127  20.334  0.00  0.00    +0.000 A 
ATOM     10  C   UNL     1       0.948  11.277  20.698  0.00  0.00    +0.000 A 
ATOM     11  C   UNL     1       0.534  12.528  20.234  0.00  0.00    +0.000 A 
ATOM     12  C   UNL     1      -0.579  12.657  19.381  0.00  0.00    +0.000 A 
ATOM     13  C   UNL     1      -0.953  14.043  18.924  0.00  0.00    +0.000 C 
ATOM     14  C   UNL     1      -1.313  11.496  19.053  0.00  0.00    +0.000 A 
ATOM     15  C   UNL     1      -0.925  10.254  19.589  0.00  0.00    +0.000 A 
BRANCH  14  16
ATOM     16  N   UNL     1      -2.436  11.529  18.175  0.00  0.00    +0.000 N 
ATOM     17  N   UNL     1      -2.347  11.160  16.867  0.00  0.00    +0.000 NA
ATOM     18  N   UNL     1      -3.545  11.263  16.307  0.00  0.00    +0.000 NA
ATOM     19  C   UNL     1      -4.410  11.721  17.253  0.00  0.00    +0.000 A 
ATOM     20  C   UNL     1      -5.764  12.066  17.191  0.00  0.00    +0.000 A 
ATOM     21  C   UNL     1      -6.350  12.559  18.359  0.00  0.00    +0.000 A 
ATOM     22  C   UNL     1      -5.588  12.656  19.517  0.00  0.00    +0.000 A 
ATOM     23  N   UNL     1      -4.281  12.317  19.626  0.00  0.00    +0.000 NA
ATOM     24  C   UNL     1      -3.751  11.867  18.466  0.00  0.00    +0.000 A 
ENDBRANCH  14  16
ENDBRANCH   5   9
BRANCH   1  29
ATOM     25  C   UNL     1       5.530   5.279  15.933  0.00  0.00    +0.000 A 
ATOM     26  C   UNL     1       5.485   3.889  15.999  0.00  0.00    +0.000 A 
ATOM     27  C   UNL     1       4.548   3.259  16.816  0.00  0.00    +0.000 A 
ATOM     28  C   UNL     1       3.642   4.021  17.561  0.00  0.00    +0.000 A 
ATOM     29  C   UNL     1       3.650   5.420  17.506  0.00  0.00    +0.000 A 
ATOM     30  C   UNL     1       4.618   6.024  16.684  0.00  0.00    +0.000 A 
BRANCH  25  32
ATOM     31  C   UNL     1       7.090   4.900  14.183  0.00  0.00    +0.000 C 
ATOM     32  O   UNL     1       6.502   5.797  15.118  0.00  0.00    +0.000 OA
ENDBRANCH  25  32
ENDBRANCH   1  29
TORSDOF 4
ENDMDL
MODEL 6
REMARK VINA RESULT:      -7.7      2.848     10.849
REMARK  Name = 
REMARK  6 active torsions:
REMARK  status: ('A' for Active; 'I' for Inactive)
REMARK    1  A    between atoms: C_1  and  O_2
REMARK    2  A    between atoms: O_2  and  C_3
REMARK    3  A    between atoms: C_7  and  N_8
REMARK    4  A    between atoms: C_12  and  C_14
REMARK    5  A    between atoms: C_17  and  C_18
REMARK    6  A    between atoms: C_19  and  N_20
REMARK                            x       y       z     vdW  Elec       q    Type
REMARK                         _______ _______ _______ _____ _____    ______ ____
ROOT
ATOM      1  N   UNL     1      -1.026  11.902  21.115  0.00  0.00    +0.000 N 
ATOM      2  C   UNL     1      -0.909  12.114  19.661  0.00  0.00    +0.000 C 
ATOM      3  C   UNL     1       0.516  11.743  19.185  0.00  0.00    +0.000 C 
ATOM      4  N   UNL     1       0.938  10.421  19.676  0.00  0.00    +0.000 N 
ATOM      5  C   UNL     1       1.489   9.515  18.773  0.00  0.00    +0.000 C 
ATOM      6  O   UNL     1       1.691   9.806  17.594  0.00  0.00    +0.000 OA
ATOM      7  C   UNL     1       0.826  10.296  21.141  0.00  0.00    +0.000 C 
ATOM      8  C   UNL     1      -0.625  10.562  21.580  0.00  0.00    +0.000 C 
ENDROOT
BRANCH   5   9
ATOM      9  C   UNL     1       1.878   8.143  19.200  0.00  0.00    +0.000 A 
ATOM     10  C   UNL     1       1.506   7.711  20.473  0.00  0.00    +0.000 A 
ATOM     11  C   UNL     1       1.811   6.413  20.891  0.00  0.00    +0.000 A 
ATOM     12  C   UNL     1       2.477   5.511  20.041  0.00  0.00    +0.000 A 
ATOM     13  C   UNL     1       2.761   4.129  20.571  0.00  0.00    +0.000 C 
ATOM     14  C   UNL     1       2.893   5.966  18.770  0.00  0.00    +0.000 A 
ATOM     15  C   UNL     1       2.644   7.299  18.394  0.00  0.00    +0.000 A 
BRANCH  14  16
ATOM     16  N   UNL     1       3.549   5.114  17.834  0.00  0.00    +0.000 N 
ATOM     17  N   UNL     1       2.942   4.017  17.300  0.00  0.00    +0.000 NA
ATOM     18  N   UNL     1       3.774   3.438  16.444  0.00  0.00    +0.000 NA
ATOM     19  C   UNL     1       4.933   4.152  16.440  0.00  0.00    +0.000 A 
ATOM     20  C   UNL     1       6.150   3.953  15.779  0.00  0.00    +0.000 A 
ATOM     21  C   UNL     1       7.173   4.868  16.039  0.00  0.00    +0.000 A 
ATOM     22  C   UNL     1       6.935   5.931  16.901  0.00  0.00    +0.000 A 
ATOM     23  N   UNL     1       5.769   6.171  17.547  0.00  0.00    +0.000 NA
ATOM     24  C   UNL     1       4.816   5.249  17.283  0.00  0.00    +0.000 A 
ENDBRANCH  14  16
ENDBRANCH   5   9
BRANCH   1  29
ATOM     25  C   UNL     1      -1.502  14.352  23.856  0.00  0.00    +0.000 A 
ATOM     26  C   UNL     1      -2.846  14.677  23.696  0.00  0.00    +0.000 A 
ATOM     27  C   UNL     1      -3.590  14.090  22.675  0.00  0.00    +0.000 A 
ATOM     28  C   UNL     1      -2.991  13.163  21.815  0.00  0.00    +0.000 A 
ATOM     29  C   UNL     1      -1.645  12.803  21.956  0.00  0.00    +0.000 A 
ATOM     30  C   UNL     1      -0.920  13.425  22.987  0.00  0.00    +0.000 A 
BRANCH  25  32
ATOM     31  C   UNL     1      -1.677  15.741  25.774  0.00  0.00    +0.000 C 
ATOM     32  O   UNL     1      -0.857  15.001  24.875  0.00  0.00    +0.000 OA
ENDBRANCH  25  32
ENDBRANCH   1  29
TORSDOF 4
ENDMDL
MODEL 7
REMARK VINA RESULT:      -7.7      0.708      1.562
REMARK  Name = 
REMARK  6 active torsions:
REMARK  status: ('A' for Active; 'I' for Inactive)
REMARK    1  A    between atoms: C_1  and  O_2
REMARK    2  A    between atoms: O_2  and  C_3
REMARK    3  A    between atoms: C_7  and  N_8
REMARK    4  A    between atoms: C_12  and  C_14
REMARK    5  A    between atoms: C_17  and  C_18
REMARK    6  A    between atoms: C_19  and  N_20
REMARK                            x       y       z     vdW  Elec       q    Type
REMARK                         _______ _______ _______ _____ _____    ______ ____
ROOT
ATOM      1  N   UNL     1       1.581   8.476  19.530  0.00  0.00    +0.000 N 
ATOM      2  C   UNL     1       1.560   9.343  18.338  0.00  0.00    +0.000 C 
ATOM      3  C   UNL     1       0.161   9.986  18.176  0.00  0.00    +0.000 C 
ATOM      4  N   UNL     1      -0.313  10.602  19.426  0.00  0.00    +0.000 N 
ATOM      5  C   UNL     1      -0.822  11.898  19.383  0.00  0.00    +0.000 C 
ATOM      6  O   UNL     1      -0.945  12.519  18.327  0.00  0.00    +0.000 OA
ATOM      7  C   UNL     1      -0.297   9.665  20.565  0.00  0.00    +0.000 C 
ATOM      8  C   UNL     1       1.128   9.122  20.775  0.00  0.00    +0.000 C 
ENDROOT
BRANCH   5   9
ATOM      9  C   UNL     1      -1.262  12.593  20.624  0.00  0.00    +0.000 A 
ATOM     10  C   UNL     1      -0.324  12.810  21.634  0.00  0.00    +0.000 A 
ATOM     11  C   UNL     1      -0.686  13.502  22.792  0.00  0.00    +0.000 A 
ATOM     12  C   UNL     1      -1.988  14.010  22.961  0.00  0.00    +0.000 A 
ATOM     13  C   UNL     1      -2.291  14.748  24.239  0.00  0.00    +0.000 C 
ATOM     14  C   UNL     1      -2.948  13.749  21.958  0.00  0.00    +0.000 A 
ATOM     15  C   UNL     1      -2.585  12.986  20.832  0.00  0.00    +0.000 A 
BRANCH  14  16
ATOM     16  N   UNL     1      -4.281  14.247  22.032  0.00  0.00    +0.000 N 
ATOM     17  N   UNL     1      -4.682  15.354  21.346  0.00  0.00    +0.000 NA
ATOM     18  N   UNL     1      -5.972  15.563  21.581  0.00  0.00    +0.000 NA
ATOM     19  C   UNL     1      -6.401  14.597  22.439  0.00  0.00    +0.000 A 
ATOM     20  C   UNL     1      -7.637  14.381  23.058  0.00  0.00    +0.000 A 
ATOM     21  C   UNL     1      -7.728  13.302  23.940  0.00  0.00    +0.000 A 
ATOM     22  C   UNL     1      -6.620  12.487  24.138  0.00  0.00    +0.000 A 
ATOM     23  N   UNL     1      -5.412  12.649  23.547  0.00  0.00    +0.000 NA
ATOM     24  C   UNL     1      -5.365  13.718  22.720  0.00  0.00    +0.000 A 
ENDBRANCH  14  16
ENDBRANCH   5   9
BRANCH   1  29
ATOM     25  C   UNL     1       2.416   5.027  20.600  0.00  0.00    +0.000 A 
ATOM     26  C   UNL     1       3.296   4.638  19.593  0.00  0.00    +0.000 A 
ATOM     27  C   UNL     1       3.604   5.517  18.556  0.00  0.00    +0.000 A 
ATOM     28  C   UNL     1       3.039   6.797  18.532  0.00  0.00    +0.000 A 
ATOM     29  C   UNL     1       2.162   7.225  19.536  0.00  0.00    +0.000 A 
ATOM     30  C   UNL     1       1.862   6.308  20.558  0.00  0.00    +0.000 A 
BRANCH  25  32
ATOM     31  C   UNL     1       2.522   2.741  21.236  0.00  0.00    +0.000 C 
ATOM     32  O   UNL     1       2.165   4.081  21.558  0.00  0.00    +0.000 OA
ENDBRANCH  25  32
ENDBRANCH   1  29
TORSDOF 4
ENDMDL
MODEL 8
REMARK VINA RESULT:      -7.5      3.523     10.583
REMARK  Name = 
REMARK  6 active torsions:
REMARK  status: ('A' for Active; 'I' for Inactive)
REMARK    1  A    between atoms: C_1  and  O_2
REMARK    2  A    between atoms: O_2  and  C_3
REMARK    3  A    between atoms: C_7  and  N_8
REMARK    4  A    between atoms: C_12  and  C_14
REMARK    5  A    between atoms: C_17  and  C_18
REMARK    6  A    between atoms: C_19  and  N_20
REMARK                            x       y       z     vdW  Elec       q    Type
REMARK                         _______ _______ _______ _____ _____    ______ ____
ROOT
ATOM      1  N   UNL     1      -2.695  11.265  18.145  0.00  0.00    +0.000 N 
ATOM      2  C   UNL     1      -1.624  11.875  17.337  0.00  0.00    +0.000 C 
ATOM      3  C   UNL     1      -0.304  11.908  18.146  0.00  0.00    +0.000 C 
ATOM      4  N   UNL     1       0.010  10.600  18.745  0.00  0.00    +0.000 N 
ATOM      5  C   UNL     1       1.294  10.083  18.590  0.00  0.00    +0.000 C 
ATOM      6  O   UNL     1       2.189  10.711  18.023  0.00  0.00    +0.000 OA
ATOM      7  C   UNL     1      -1.094  10.070  19.567  0.00  0.00    +0.000 C 
ATOM      8  C   UNL     1      -2.368   9.944  18.712  0.00  0.00    +0.000 C 
ENDROOT
BRANCH   5   9
ATOM      9  C   UNL     1       1.653   8.740  19.123  0.00  0.00    +0.000 A 
ATOM     10  C   UNL     1       1.303   8.430  20.437  0.00  0.00    +0.000 A 
ATOM     11  C   UNL     1       1.579   7.163  20.957  0.00  0.00    +0.000 A 
ATOM     12  C   UNL     1       2.194   6.170  20.171  0.00  0.00    +0.000 A 
ATOM     13  C   UNL     1       2.449   4.830  20.810  0.00  0.00    +0.000 C 
ATOM     14  C   UNL     1       2.589   6.502  18.856  0.00  0.00    +0.000 A 
ATOM     15  C   UNL     1       2.370   7.806  18.374  0.00  0.00    +0.000 A 
BRANCH  14  16
ATOM     16  N   UNL     1       3.192   5.553  17.980  0.00  0.00    +0.000 N 
ATOM     17  N   UNL     1       2.532   4.444  17.544  0.00  0.00    +0.000 NA
ATOM     18  N   UNL     1       3.325   3.766  16.724  0.00  0.00    +0.000 NA
ATOM     19  C   UNL     1       4.511   4.429  16.646  0.00  0.00    +0.000 A 
ATOM     20  C   UNL     1       5.706   4.128  15.984  0.00  0.00    +0.000 A 
ATOM     21  C   UNL     1       6.771   5.016  16.157  0.00  0.00    +0.000 A 
ATOM     22  C   UNL     1       6.592   6.153  16.936  0.00  0.00    +0.000 A 
ATOM     23  N   UNL     1       5.448   6.492  17.578  0.00  0.00    +0.000 NA
ATOM     24  C   UNL     1       4.454   5.592  17.401  0.00  0.00    +0.000 A 
ENDBRANCH  14  16
ENDBRANCH   5   9
BRANCH   1  29
ATOM     25  C   UNL     1      -5.749  12.851  19.523  0.00  0.00    +0.000 A 
ATOM     26  C   UNL     1      -6.568  12.878  18.399  0.00  0.00    +0.000 A 
ATOM     27  C   UNL     1      -6.105  12.380  17.183  0.00  0.00    +0.000 A 
ATOM     28  C   UNL     1      -4.818  11.838  17.094  0.00  0.00    +0.000 A 
ATOM     29  C   UNL     1      -3.972  11.781  18.208  0.00  0.00    +0.000 A 
ATOM     30  C   UNL     1      -4.467  12.307  19.415  0.00  0.00    +0.000 A 
BRANCH  25  32
ATOM     31  C   UNL     1      -5.826  12.853  21.897  0.00  0.00    +0.000 C 
ATOM     32  O   UNL     1      -6.293  13.385  20.662  0.00  0.00    +0.000 OA
ENDBRANCH  25  32
ENDBRANCH   1  29
TORSDOF 4
ENDMDL
MODEL 9
REMARK VINA RESULT:      -7.5      2.849     10.694
REMARK  Name = 
REMARK  6 active torsions:
REMARK  status: ('A' for Active; 'I' for Inactive)
REMARK    1  A    between atoms: C_1  and  O_2
REMARK    2  A    between atoms: O_2  and  C_3
REMARK    3  A    between atoms: C_7  and  N_8
REMARK    4  A    between atoms: C_12  and  C_14
REMARK    5  A    between atoms: C_17  and  C_18
REMARK    6  A    between atoms: C_19  and  N_20
REMARK                            x       y       z     vdW  Elec       q    Type
REMARK                         _______ _______ _______ _____ _____    ______ ____
ROOT
ATOM      1  N   UNL     1      -1.190  12.191  20.550  0.00  0.00    +0.000 N 
ATOM      2  C   UNL     1      -0.879  12.378  19.122  0.00  0.00    +0.000 C 
ATOM      3  C   UNL     1       0.592  11.985  18.844  0.00  0.00    +0.000 C 
ATOM      4  N   UNL     1       0.929  10.667  19.406  0.00  0.00    +0.000 N 
ATOM      5  C   UNL     1       1.585   9.741  18.598  0.00  0.00    +0.000 C 
ATOM      6  O   UNL     1       1.945  10.011  17.452  0.00  0.00    +0.000 OA
ATOM      7  C   UNL     1       0.624  10.567  20.846  0.00  0.00    +0.000 C 
ATOM      8  C   UNL     1      -0.870  10.855  21.084  0.00  0.00    +0.000 C 
ENDROOT
BRANCH   5   9
ATOM      9  C   UNL     1       1.897   8.372  19.093  0.00  0.00    +0.000 A 
ATOM     10  C   UNL     1       1.503   8.025  20.385  0.00  0.00    +0.000 A 
ATOM     11  C   UNL     1       1.735   6.735  20.868  0.00  0.00    +0.000 A 
ATOM     12  C   UNL     1       2.351   5.756  20.065  0.00  0.00    +0.000 A 
ATOM     13  C   UNL     1       2.558   4.389  20.663  0.00  0.00    +0.000 C 
ATOM     14  C   UNL     1       2.791   6.124  18.774  0.00  0.00    +0.000 A 
ATOM     15  C   UNL     1       2.615   7.448  18.332  0.00  0.00    +0.000 A 
BRANCH  14  16
ATOM     16  N   UNL     1       3.398   5.192  17.883  0.00  0.00    +0.000 N 
ATOM     17  N   UNL     1       2.739   4.092  17.422  0.00  0.00    +0.000 NA
ATOM     18  N   UNL     1       3.536   3.429  16.592  0.00  0.00    +0.000 NA
ATOM     19  C   UNL     1       4.723   4.093  16.533  0.00  0.00    +0.000 A 
ATOM     20  C   UNL     1       5.921   3.805  15.872  0.00  0.00    +0.000 A 
ATOM     21  C   UNL     1       6.985   4.689  16.066  0.00  0.00    +0.000 A 
ATOM     22  C   UNL     1       6.803   5.810  16.866  0.00  0.00    +0.000 A 
ATOM     23  N   UNL     1       5.656   6.137  17.510  0.00  0.00    +0.000 NA
ATOM     24  C   UNL     1       4.662   5.241  17.311  0.00  0.00    +0.000 A 
ENDBRANCH  14  16
ENDBRANCH   5   9
BRANCH   1  29
ATOM     25  C   UNL     1      -3.092  13.683  23.360  0.00  0.00    +0.000 A 
ATOM     26  C   UNL     1      -3.349  14.958  22.864  0.00  0.00    +0.000 A 
ATOM     27  C   UNL     1      -2.884  15.324  21.602  0.00  0.00    +0.000 A 
ATOM     28  C   UNL     1      -2.168  14.406  20.826  0.00  0.00    +0.000 A 
ATOM     29  C   UNL     1      -1.904  13.111  21.288  0.00  0.00    +0.000 A 
ATOM     30  C   UNL     1      -2.375  12.780  22.571  0.00  0.00    +0.000 A 
BRANCH  25  32
ATOM     31  C   UNL     1      -4.621  12.472  24.715  0.00  0.00    +0.000 C 
ATOM     32  O   UNL     1      -3.574  13.433  24.617  0.00  0.00    +0.000 OA
ENDBRANCH  25  32
ENDBRANCH   1  29
TORSDOF 4
ENDMDL
