MODEL 1
REMARK VINA RESULT:      -7.4      0.000      0.000
REMARK  Name = 
REMARK  3 active torsions:
REMARK  status: ('A' for Active; 'I' for Inactive)
REMARK    1  A    between atoms: C_1  and  C_2
REMARK    2  A    between atoms: C_2  and  C_3
REMARK    3  A    between atoms: C_5  and  C_6
REMARK                            x       y       z     vdW  Elec       q    Type
REMARK                         _______ _______ _______ _____ _____    ______ ____
ROOT
ATOM      1  C   UNL     1       5.243   6.172  17.910  0.00  0.00    +0.000 A 
ATOM      2  N   UNL     1       4.348   5.439  18.529  0.00  0.00    +0.000 NA
ATOM      3  C   UNL     1       3.176   6.064  18.208  0.00  0.00    +0.000 A 
ATOM      4  N   UNL     1       3.312   7.169  17.463  0.00  0.00    +0.000 NA
ATOM      5  O   UNL     1       4.705   7.252  17.272  0.00  0.00    +0.000 OA
ENDROOT
BRANCH   1   7
ATOM      6  C   UNL     1       7.399   7.235  17.378  0.00  0.00    +0.000 C 
ATOM      7  C   UNL     1       6.714   5.961  17.900  0.00  0.00    +0.000 C 
ATOM      8  C   UNL     1       7.204   5.625  19.316  0.00  0.00    +0.000 C 
ATOM      9  C   UNL     1       8.513   4.904  19.081  0.00  0.00    +0.000 C 
ATOM     10  N   UNL     1       8.341   4.156  17.832  0.00  0.00    +0.000 NA
ATOM     11  C   UNL     1       7.167   4.718  17.127  0.00  0.00    +0.000 C 
ATOM     12  H   UNL     1       8.152   3.177  18.052  0.00  0.00    +0.000 HD
ENDBRANCH   1   7
BRANCH   3  13
ATOM     13  C   UNL     1       1.862   5.491  18.654  0.00  0.00    +0.000 C 
ATOM     14  C   UNL     1       1.404   4.385  17.682  0.00  0.00    +0.000 C 
ATOM     15  C   UNL     1       2.140   3.048  17.813  0.00  0.00    +0.000 C 
ATOM     16  C   UNL     1       1.505   2.102  18.823  0.00  0.00    +0.000 C 
ATOM     17  C   UNL     1       1.571   2.553  20.279  0.00  0.00    +0.000 C 
ATOM     18  C   UNL     1       1.003   3.944  20.568  0.00  0.00    +0.000 C 
ATOM     19  C   UNL     1       1.940   5.071  20.136  0.00  0.00    +0.000 C 
ENDBRANCH   3  13
TORSDOF 2
ENDMDL
MODEL 2
REMARK VINA RESULT:      -7.3      1.476      2.061
REMARK  Name = 
REMARK  3 active torsions:
REMARK  status: ('A' for Active; 'I' for Inactive)
REMARK    1  A    between atoms: C_1  and  C_2
REMARK    2  A    between atoms: C_2  and  C_3
REMARK    3  A    between atoms: C_5  and  C_6
REMARK                            x       y       z     vdW  Elec       q    Type
REMARK                         _______ _______ _______ _____ _____    ______ ____
ROOT
ATOM      1  C   UNL     1       5.389   5.172  17.232  0.00  0.00    +0.000 A 
ATOM      2  N   UNL     1       4.366   5.459  18.002  0.00  0.00    +0.000 NA
ATOM      3  C   UNL     1       3.408   4.592  17.562  0.00  0.00    +0.000 A 
ATOM      4  N   UNL     1       3.776   3.820  16.531  0.00  0.00    +0.000 NA
ATOM      5  O   UNL     1       5.107   4.219  16.297  0.00  0.00    +0.000 OA
ENDROOT
BRANCH   1   7
ATOM      6  C   UNL     1       7.547   5.314  16.055  0.00  0.00    +0.000 C 
ATOM      7  C   UNL     1       6.732   5.810  17.261  0.00  0.00    +0.000 C 
ATOM      8  C   UNL     1       6.587   7.338  17.224  0.00  0.00    +0.000 C 
ATOM      9  C   UNL     1       7.888   7.835  17.815  0.00  0.00    +0.000 C 
ATOM     10  N   UNL     1       8.272   6.848  18.828  0.00  0.00    +0.000 NA
ATOM     11  C   UNL     1       7.493   5.616  18.576  0.00  0.00    +0.000 C 
ATOM     12  H   UNL     1       8.028   7.207  19.753  0.00  0.00    +0.000 HD
ENDBRANCH   1   7
BRANCH   3  13
ATOM     13  C   UNL     1       2.072   4.525  18.242  0.00  0.00    +0.000 C 
ATOM     14  C   UNL     1       1.588   3.063  18.330  0.00  0.00    +0.000 C 
ATOM     15  C   UNL     1       2.280   2.205  19.394  0.00  0.00    +0.000 C 
ATOM     16  C   UNL     1       1.605   2.267  20.757  0.00  0.00    +0.000 C 
ATOM     17  C   UNL     1       1.670   3.617  21.463  0.00  0.00    +0.000 C 
ATOM     18  C   UNL     1       1.143   4.809  20.662  0.00  0.00    +0.000 C 
ATOM     19  C   UNL     1       2.121   5.281  19.585  0.00  0.00    +0.000 C 
ENDBRANCH   3  13
TORSDOF 2
ENDMDL
MODEL 3
REMARK VINA RESULT:      -7.1      3.509      5.837
REMARK  Name = 
REMARK  3 active torsions:
REMARK  status: ('A' for Active; 'I' for Inactive)
REMARK    1  A    between atoms: C_1  and  C_2
REMARK    2  A    between atoms: C_2  and  C_3
REMARK    3  A    between atoms: C_5  and  C_6
REMARK                            x       y       z     vdW  Elec       q    Type
REMARK                         _______ _______ _______ _____ _____    ______ ____
ROOT
ATOM      1  C   UNL     1       1.603   8.012  20.397  0.00  0.00    +0.000 A 
ATOM      2  N   UNL     1       1.911   6.805  20.811  0.00  0.00    +0.000 NA
ATOM      3  C   UNL     1       2.532   6.265  19.721  0.00  0.00    +0.000 A 
ATOM      4  N   UNL     1       2.580   7.063  18.646  0.00  0.00    +0.000 NA
ATOM      5  O   UNL     1       1.942   8.236  19.095  0.00  0.00    +0.000 OA
ENDROOT
BRANCH   1   7
ATOM      6  C   UNL     1       0.713  10.305  20.280  0.00  0.00    +0.000 C 
ATOM      7  C   UNL     1       0.904   9.068  21.175  0.00  0.00    +0.000 C 
ATOM      8  C   UNL     1      -0.452   8.544  21.669  0.00  0.00    +0.000 C 
ATOM      9  C   UNL     1      -0.770   9.432  22.852  0.00  0.00    +0.000 C 
ATOM     10  N   UNL     1       0.518   9.745  23.477  0.00  0.00    +0.000 NA
ATOM     11  C   UNL     1       1.583   9.429  22.500  0.00  0.00    +0.000 C 
ATOM     12  H   UNL     1       0.642   9.153  24.300  0.00  0.00    +0.000 HD
ENDBRANCH   1   7
BRANCH   3  13
ATOM     13  C   UNL     1       3.131   4.890  19.791  0.00  0.00    +0.000 C 
ATOM     14  C   UNL     1       2.180   3.930  20.533  0.00  0.00    +0.000 C 
ATOM     15  C   UNL     1       0.960   3.463  19.733  0.00  0.00    +0.000 C 
ATOM     16  C   UNL     1       1.217   2.205  18.915  0.00  0.00    +0.000 C 
ATOM     17  C   UNL     1       2.210   2.358  17.767  0.00  0.00    +0.000 C 
ATOM     18  C   UNL     1       3.582   2.917  18.148  0.00  0.00    +0.000 C 
ATOM     19  C   UNL     1       3.564   4.427  18.385  0.00  0.00    +0.000 C 
ENDBRANCH   3  13
TORSDOF 2
ENDMDL
MODEL 4
REMARK VINA RESULT:      -7.0      2.149      3.166
REMARK  Name = 
REMARK  3 active torsions:
REMARK  status: ('A' for Active; 'I' for Inactive)
REMARK    1  A    between atoms: C_1  and  C_2
REMARK    2  A    between atoms: C_2  and  C_3
REMARK    3  A    between atoms: C_5  and  C_6
REMARK                            x       y       z     vdW  Elec       q    Type
REMARK                         _______ _______ _______ _____ _____    ______ ____
ROOT
ATOM      1  C   UNL     1       5.866   4.745  17.953  0.00  0.00    +0.000 A 
ATOM      2  N   UNL     1       4.925   3.831  17.967  0.00  0.00    +0.000 NA
ATOM      3  C   UNL     1       4.816   3.535  19.296  0.00  0.00    +0.000 A 
ATOM      4  N   UNL     1       5.674   4.188  20.092  0.00  0.00    +0.000 NA
ATOM      5  O   UNL     1       6.392   4.994  19.187  0.00  0.00    +0.000 OA
ENDROOT
BRANCH   1   7
ATOM      6  C   UNL     1       7.352   6.567  17.223  0.00  0.00    +0.000 C 
ATOM      7  C   UNL     1       6.408   5.445  16.759  0.00  0.00    +0.000 C 
ATOM      8  C   UNL     1       7.155   4.448  15.861  0.00  0.00    +0.000 C 
ATOM      9  C   UNL     1       7.143   5.110  14.501  0.00  0.00    +0.000 C 
ATOM     10  N   UNL     1       5.873   5.838  14.421  0.00  0.00    +0.000 NA
ATOM     11  C   UNL     1       5.339   5.968  15.795  0.00  0.00    +0.000 C 
ATOM     12  H   UNL     1       5.212   5.295  13.863  0.00  0.00    +0.000 HD
ENDBRANCH   1   7
BRANCH   3  13
ATOM     13  C   UNL     1       3.771   2.571  19.778  0.00  0.00    +0.000 C 
ATOM     14  C   UNL     1       2.994   3.173  20.965  0.00  0.00    +0.000 C 
ATOM     15  C   UNL     1       1.968   4.251  20.601  0.00  0.00    +0.000 C 
ATOM     16  C   UNL     1       0.588   3.692  20.281  0.00  0.00    +0.000 C 
ATOM     17  C   UNL     1       0.500   2.843  19.017  0.00  0.00    +0.000 C 
ATOM     18  C   UNL     1       1.474   1.666  18.940  0.00  0.00    +0.000 C 
ATOM     19  C   UNL     1       2.900   2.097  18.597  0.00  0.00    +0.000 C 
ENDBRANCH   3  13
TORSDOF 2
ENDMDL
MODEL 5
REMARK VINA RESULT:      -7.0      1.479      2.285
REMARK  Name = 
REMARK  3 active torsions:
REMARK  status: ('A' for Active; 'I' for Inactive)
REMARK    1  A    between atoms: C_1  and  C_2
REMARK    2  A    between atoms: C_2  and  C_3
REMARK    3  A    between atoms: C_5  and  C_6
REMARK                            x       y       z     vdW  Elec       q    Type
REMARK                         _______ _______ _______ _____ _____    ______ ____
ROOT
ATOM      1  C   UNL     1       5.407   5.697  17.637  0.00  0.00    +0.000 A 
ATOM      2  N   UNL     1       5.079   4.464  17.946  0.00  0.00    +0.000 NA
ATOM      3  C   UNL     1       3.714   4.503  17.917  0.00  0.00    +0.000 A 
ATOM      4  N   UNL     1       3.189   5.706  17.652  0.00  0.00    +0.000 NA
ATOM      5  O   UNL     1       4.328   6.516  17.476  0.00  0.00    +0.000 OA
ENDROOT
BRANCH   1   7
ATOM      6  C   UNL     1       7.476   5.594  16.306  0.00  0.00    +0.000 C 
ATOM      7  C   UNL     1       6.783   6.247  17.514  0.00  0.00    +0.000 C 
ATOM      8  C   UNL     1       6.725   7.772  17.345  0.00  0.00    +0.000 C 
ATOM      9  C   UNL     1       8.092   8.235  17.796  0.00  0.00    +0.000 C 
ATOM     10  N   UNL     1       8.493   7.319  18.867  0.00  0.00    +0.000 NA
ATOM     11  C   UNL     1       7.628   6.121  18.786  0.00  0.00    +0.000 C 
ATOM     12  H   UNL     1       8.341   7.773  19.769  0.00  0.00    +0.000 HD
ENDBRANCH   1   7
BRANCH   3  13
ATOM     13  C   UNL     1       2.913   3.253  18.137  0.00  0.00    +0.000 C 
ATOM     14  C   UNL     1       3.500   2.441  19.309  0.00  0.00    +0.000 C 
ATOM     15  C   UNL     1       3.201   2.992  20.706  0.00  0.00    +0.000 C 
ATOM     16  C   UNL     1       1.900   2.469  21.299  0.00  0.00    +0.000 C 
ATOM     17  C   UNL     1       0.627   2.918  20.590  0.00  0.00    +0.000 C 
ATOM     18  C   UNL     1       0.568   2.628  19.089  0.00  0.00    +0.000 C 
ATOM     19  C   UNL     1       1.415   3.595  18.262  0.00  0.00    +0.000 C 
ENDBRANCH   3  13
TORSDOF 2
ENDMDL
MODEL 6
REMARK VINA RESULT:      -7.0      2.371      3.339
REMARK  Name = 
REMARK  3 active torsions:
REMARK  status: ('A' for Active; 'I' for Inactive)
REMARK    1  A    between atoms: C_1  and  C_2
REMARK    2  A    between atoms: C_2  and  C_3
REMARK    3  A    between atoms: C_5  and  C_6
REMARK                            x       y       z     vdW  Elec       q    Type
REMARK                         _______ _______ _______ _____ _____    ______ ____
ROOT
ATOM      1  C   UNL     1       5.575   4.506  17.003  0.00  0.00    +0.000 A 
ATOM      2  N   UNL     1       4.616   3.695  17.383  0.00  0.00    +0.000 NA
ATOM      3  C   UNL     1       4.830   3.589  18.727  0.00  0.00    +0.000 A 
ATOM      4  N   UNL     1       5.897   4.257  19.184  0.00  0.00    +0.000 NA
ATOM      5  O   UNL     1       6.410   4.865  18.021  0.00  0.00    +0.000 OA
ENDROOT
BRANCH   1   7
ATOM      6  C   UNL     1       5.254   6.402  15.466  0.00  0.00    +0.000 C 
ATOM      7  C   UNL     1       5.838   4.988  15.622  0.00  0.00    +0.000 C 
ATOM      8  C   UNL     1       7.349   4.994  15.347  0.00  0.00    +0.000 C 
ATOM      9  C   UNL     1       7.439   4.937  13.839  0.00  0.00    +0.000 C 
ATOM     10  N   UNL     1       6.303   4.123  13.399  0.00  0.00    +0.000 NA
ATOM     11  C   UNL     1       5.341   4.047  14.520  0.00  0.00    +0.000 C 
ATOM     12  H   UNL     1       6.631   3.180  13.184  0.00  0.00    +0.000 HD
ENDBRANCH   1   7
BRANCH   3  13
ATOM     13  C   UNL     1       3.886   2.799  19.587  0.00  0.00    +0.000 C 
ATOM     14  C   UNL     1       3.311   3.690  20.707  0.00  0.00    +0.000 C 
ATOM     15  C   UNL     1       2.231   4.683  20.268  0.00  0.00    +0.000 C 
ATOM     16  C   UNL     1       0.822   4.108  20.318  0.00  0.00    +0.000 C 
ATOM     17  C   UNL     1       0.532   2.989  19.324  0.00  0.00    +0.000 C 
ATOM     18  C   UNL     1       1.489   1.796  19.372  0.00  0.00    +0.000 C 
ATOM     19  C   UNL     1       2.836   2.088  18.710  0.00  0.00    +0.000 C 
ENDBRANCH   3  13
TORSDOF 2
ENDMDL
MODEL 7
REMARK VINA RESULT:      -6.8      1.591      2.244
REMARK  Name = 
REMARK  3 active torsions:
REMARK  status: ('A' for Active; 'I' for Inactive)
REMARK    1  A    between atoms: C_1  and  C_2
REMARK    2  A    between atoms: C_2  and  C_3
REMARK    3  A    between atoms: C_5  and  C_6
REMARK                            x       y       z     vdW  Elec       q    Type
REMARK                         _______ _______ _______ _____ _____    ______ ____
ROOT
ATOM      1  C   UNL     1       5.067   5.538  16.857  0.00  0.00    +0.000 A 
ATOM      2  N   UNL     1       4.092   4.807  17.342  0.00  0.00    +0.000 NA
ATOM      3  C   UNL     1       3.273   5.740  17.911  0.00  0.00    +0.000 A 
ATOM      4  N   UNL     1       3.720   7.001  17.839  0.00  0.00    +0.000 NA
ATOM      5  O   UNL     1       4.936   6.866  17.141  0.00  0.00    +0.000 OA
ENDROOT
BRANCH   1   7
ATOM      6  C   UNL     1       7.221   4.371  17.107  0.00  0.00    +0.000 C 
ATOM      7  C   UNL     1       6.261   5.051  16.117  0.00  0.00    +0.000 C 
ATOM      8  C   UNL     1       5.832   4.067  15.019  0.00  0.00    +0.000 C 
ATOM      9  C   UNL     1       6.979   4.105  14.034  0.00  0.00    +0.000 C 
ATOM     10  N   UNL     1       7.487   5.479  14.062  0.00  0.00    +0.000 NA
ATOM     11  C   UNL     1       6.971   6.127  15.289  0.00  0.00    +0.000 C 
ATOM     12  H   UNL     1       7.129   5.984  13.250  0.00  0.00    +0.000 HD
ENDBRANCH   1   7
BRANCH   3  13
ATOM     13  C   UNL     1       1.966   5.332  18.524  0.00  0.00    +0.000 C 
ATOM     14  C   UNL     1       1.359   4.144  17.749  0.00  0.00    +0.000 C 
ATOM     15  C   UNL     1       2.015   2.785  18.009  0.00  0.00    +0.000 C 
ATOM     16  C   UNL     1       1.404   2.031  19.183  0.00  0.00    +0.000 C 
ATOM     17  C   UNL     1       1.617   2.664  20.554  0.00  0.00    +0.000 C 
ATOM     18  C   UNL     1       1.165   4.120  20.689  0.00  0.00    +0.000 C 
ATOM     19  C   UNL     1       2.136   5.106  20.040  0.00  0.00    +0.000 C 
ENDBRANCH   3  13
TORSDOF 2
ENDMDL
MODEL 8
REMARK VINA RESULT:      -6.7      3.819      6.186
REMARK  Name = 
REMARK  3 active torsions:
REMARK  status: ('A' for Active; 'I' for Inactive)
REMARK    1  A    between atoms: C_1  and  C_2
REMARK    2  A    between atoms: C_2  and  C_3
REMARK    3  A    between atoms: C_5  and  C_6
REMARK                            x       y       z     vdW  Elec       q    Type
REMARK                         _______ _______ _______ _____ _____    ______ ____
ROOT
ATOM      1  C   UNL     1       1.488   9.245  18.695  0.00  0.00    +0.000 A 
ATOM      2  N   UNL     1       1.731   8.169  19.407  0.00  0.00    +0.000 NA
ATOM      3  C   UNL     1       2.584   7.467  18.605  0.00  0.00    +0.000 A 
ATOM      4  N   UNL     1       2.841   8.035  17.419  0.00  0.00    +0.000 NA
ATOM      5  O   UNL     1       2.093   9.227  17.472  0.00  0.00    +0.000 OA
ENDROOT
BRANCH   1   7
ATOM      6  C   UNL     1       0.268  10.274  20.570  0.00  0.00    +0.000 C 
ATOM      7  C   UNL     1       0.612  10.384  19.075  0.00  0.00    +0.000 C 
ATOM      8  C   UNL     1       1.323  11.713  18.780  0.00  0.00    +0.000 C 
ATOM      9  C   UNL     1       0.190  12.707  18.660  0.00  0.00    +0.000 C 
ATOM     10  N   UNL     1      -0.930  11.970  18.068  0.00  0.00    +0.000 NA
ATOM     11  C   UNL     1      -0.647  10.525  18.214  0.00  0.00    +0.000 C 
ATOM     12  H   UNL     1      -0.988  12.194  17.073  0.00  0.00    +0.000 HD
ENDBRANCH   1   7
BRANCH   3  13
ATOM     13  C   UNL     1       3.189   6.178  19.082  0.00  0.00    +0.000 C 
ATOM     14  C   UNL     1       2.120   5.067  19.118  0.00  0.00    +0.000 C 
ATOM     15  C   UNL     1       1.726   4.489  17.755  0.00  0.00    +0.000 C 
ATOM     16  C   UNL     1       2.596   3.318  17.319  0.00  0.00    +0.000 C 
ATOM     17  C   UNL     1       4.053   3.656  17.022  0.00  0.00    +0.000 C 
ATOM     18  C   UNL     1       4.811   4.365  18.145  0.00  0.00    +0.000 C 
ATOM     19  C   UNL     1       4.452   5.847  18.262  0.00  0.00    +0.000 C 
ENDBRANCH   3  13
TORSDOF 2
ENDMDL
MODEL 9
REMARK VINA RESULT:      -6.7      1.919      2.526
REMARK  Name = 
REMARK  3 active torsions:
REMARK  status: ('A' for Active; 'I' for Inactive)
REMARK    1  A    between atoms: C_1  and  C_2
REMARK    2  A    between atoms: C_2  and  C_3
REMARK    3  A    between atoms: C_5  and  C_6
REMARK                            x       y       z     vdW  Elec       q    Type
REMARK                         _______ _______ _______ _____ _____    ______ ____
ROOT
ATOM      1  C   UNL     1       5.694   5.169  17.929  0.00  0.00    +0.000 A 
ATOM      2  N   UNL     1       4.408   5.266  18.169  0.00  0.00    +0.000 NA
ATOM      3  C   UNL     1       4.290   4.692  19.402  0.00  0.00    +0.000 A 
ATOM      4  N   UNL     1       5.430   4.207  19.911  0.00  0.00    +0.000 NA
ATOM      5  O   UNL     1       6.377   4.516  18.914  0.00  0.00    +0.000 OA
ENDROOT
BRANCH   1   7
ATOM      6  C   UNL     1       7.348   6.795  17.102  0.00  0.00    +0.000 C 
ATOM      7  C   UNL     1       6.411   5.639  16.715  0.00  0.00    +0.000 C 
ATOM      8  C   UNL     1       7.209   4.481  16.097  0.00  0.00    +0.000 C 
ATOM      9  C   UNL     1       7.393   4.902  14.656  0.00  0.00    +0.000 C 
ATOM     10  N   UNL     1       6.181   5.643  14.295  0.00  0.00    +0.000 NA
ATOM     11  C   UNL     1       5.493   6.022  15.550  0.00  0.00    +0.000 C 
ATOM     12  H   UNL     1       5.565   5.033  13.755  0.00  0.00    +0.000 HD
ENDBRANCH   1   7
BRANCH   3  13
ATOM     13  C   UNL     1       2.964   4.665  20.105  0.00  0.00    +0.000 C 
ATOM     14  C   UNL     1       1.821   4.913  19.099  0.00  0.00    +0.000 C 
ATOM     15  C   UNL     1       1.472   3.727  18.194  0.00  0.00    +0.000 C 
ATOM     16  C   UNL     1       0.431   2.792  18.793  0.00  0.00    +0.000 C 
ATOM     17  C   UNL     1       0.875   2.022  20.033  0.00  0.00    +0.000 C 
ATOM     18  C   UNL     1       1.408   2.874  21.186  0.00  0.00    +0.000 C 
ATOM     19  C   UNL     1       2.831   3.378  20.944  0.00  0.00    +0.000 C 
ENDBRANCH   3  13
TORSDOF 2
ENDMDL
