MODEL 1
REMARK VINA RESULT:      -7.4      0.000      0.000
REMARK  Name = 
REMARK  7 active torsions:
REMARK  status: ('A' for Active; 'I' for Inactive)
REMARK    1  A    between atoms: C_1  and  C_2
REMARK    2  A    between atoms: C_6  and  N_7
REMARK    3  A    between atoms: N_10  and  C_11
REMARK    4  A    between atoms: C_11  and  N_12
REMARK    5  A    between atoms: C_16  and  C_17
REMARK    6  A    between atoms: C_17  and  C_18
REMARK    7  A    between atoms: C_17  and  C_19
REMARK                            x       y       z     vdW  Elec       q    Type
REMARK                         _______ _______ _______ _____ _____    ______ ____
ROOT
ATOM      1  N   UNL     1       1.104   9.026  19.340  0.00  0.00    +0.000 N 
ATOM      2  C   UNL     1       1.019   8.278  20.478  0.00  0.00    +0.000 C 
ATOM      3  O   UNL     1       0.135   8.311  21.317  0.00  0.00    +0.000 OA
ATOM      4  C   UNL     1       2.206   7.364  20.547  0.00  0.00    +0.000 C 
ATOM      5  C   UNL     1       2.767   7.375  19.127  0.00  0.00    +0.000 C 
ATOM      6  C   UNL     1       2.093   8.584  18.503  0.00  0.00    +0.000 C 
ATOM      7  O   UNL     1       2.330   8.977  17.369  0.00  0.00    +0.000 OA
ENDROOT
BRANCH   5   8
ATOM      8  C   UNL     1       2.450   6.107  18.274  0.00  0.00    +0.000 C 
ATOM      9  C   UNL     1       1.802   4.989  19.123  0.00  0.00    +0.000 C 
BRANCH   8  10
ATOM     10  C   UNL     1       3.607   5.543  17.439  0.00  0.00    +0.000 A 
ATOM     11  C   UNL     1       3.791   4.175  17.189  0.00  0.00    +0.000 A 
ATOM     12  C   UNL     1       4.865   3.716  16.415  0.00  0.00    +0.000 A 
ATOM     13  C   UNL     1       5.784   4.614  15.883  0.00  0.00    +0.000 A 
ATOM     14  C   UNL     1       5.640   5.971  16.134  0.00  0.00    +0.000 A 
ATOM     15  C   UNL     1       4.571   6.428  16.913  0.00  0.00    +0.000 A 
ENDBRANCH   8  10
ENDBRANCH   5   8
BRANCH   1  16
ATOM     16  C   UNL     1       0.004   9.846  18.886  0.00  0.00    +0.000 C 
BRANCH  16  20
ATOM     17  N   UNL     1      -1.606  12.426  20.912  0.00  0.00    +0.000 N 
ATOM     18  C   UNL     1      -2.111  12.008  19.599  0.00  0.00    +0.000 C 
ATOM     19  C   UNL     1      -0.944  12.036  18.567  0.00  0.00    +0.000 C 
ATOM     20  N   UNL     1       0.285  11.282  18.956  0.00  0.00    +0.000 NA
ATOM     21  C   UNL     1       0.682  11.742  20.309  0.00  0.00    +0.000 C 
ATOM     22  C   UNL     1      -0.428  11.677  21.384  0.00  0.00    +0.000 C 
BRANCH  17  28
ATOM     23  C   UNL     1      -4.579  12.375  24.903  0.00  0.00    +0.000 C 
ATOM     24  C   UNL     1      -3.911  13.112  23.779  0.00  0.00    +0.000 A 
ATOM     25  C   UNL     1      -4.130  14.480  23.600  0.00  0.00    +0.000 A 
ATOM     26  C   UNL     1      -3.505  15.151  22.558  0.00  0.00    +0.000 A 
ATOM     27  C   UNL     1      -2.656  14.455  21.691  0.00  0.00    +0.000 A 
ATOM     28  C   UNL     1      -2.410  13.078  21.833  0.00  0.00    +0.000 A 
ATOM     29  C   UNL     1      -3.061  12.426  22.889  0.00  0.00    +0.000 A 
ENDBRANCH  17  28
ENDBRANCH  16  20
ENDBRANCH   1  16
TORSDOF 5
ENDMDL
MODEL 2
REMARK VINA RESULT:      -7.4      3.393      9.651
REMARK  Name = 
REMARK  7 active torsions:
REMARK  status: ('A' for Active; 'I' for Inactive)
REMARK    1  A    between atoms: C_1  and  C_2
REMARK    2  A    between atoms: C_6  and  N_7
REMARK    3  A    between atoms: N_10  and  C_11
REMARK    4  A    between atoms: C_11  and  N_12
REMARK    5  A    between atoms: C_16  and  C_17
REMARK    6  A    between atoms: C_17  and  C_18
REMARK    7  A    between atoms: C_17  and  C_19
REMARK                            x       y       z     vdW  Elec       q    Type
REMARK                         _______ _______ _______ _____ _____    ______ ____
ROOT
ATOM      1  N   UNL     1      -0.150  12.796  20.481  0.00  0.00    +0.000 N 
ATOM      2  C   UNL     1      -0.479  13.301  21.706  0.00  0.00    +0.000 C 
ATOM      3  O   UNL     1      -0.318  12.767  22.790  0.00  0.00    +0.000 OA
ATOM      4  C   UNL     1      -1.077  14.664  21.524  0.00  0.00    +0.000 C 
ATOM      5  C   UNL     1      -0.680  15.057  20.103  0.00  0.00    +0.000 C 
ATOM      6  C   UNL     1      -0.246  13.737  19.491  0.00  0.00    +0.000 C 
ATOM      7  O   UNL     1       0.093  13.615  18.322  0.00  0.00    +0.000 OA
ENDROOT
BRANCH   5   8
ATOM      8  C   UNL     1       0.488  16.087  19.996  0.00  0.00    +0.000 C 
ATOM      9  C   UNL     1       0.610  16.953  21.271  0.00  0.00    +0.000 C 
BRANCH   8  10
ATOM     10  C   UNL     1       0.502  16.972  18.743  0.00  0.00    +0.000 A 
ATOM     11  C   UNL     1       1.655  17.235  17.989  0.00  0.00    +0.000 A 
ATOM     12  C   UNL     1       1.608  18.050  16.851  0.00  0.00    +0.000 A 
ATOM     13  C   UNL     1       0.409  18.628  16.447  0.00  0.00    +0.000 A 
ATOM     14  C   UNL     1      -0.742  18.403  17.187  0.00  0.00    +0.000 A 
ATOM     15  C   UNL     1      -0.694  17.596  18.328  0.00  0.00    +0.000 A 
ENDBRANCH   8  10
ENDBRANCH   5   8
BRANCH   1  16
ATOM     16  C   UNL     1       0.637  11.593  20.342  0.00  0.00    +0.000 C 
BRANCH  16  20
ATOM     17  N   UNL     1       1.779   8.353  19.095  0.00  0.00    +0.000 N 
ATOM     18  C   UNL     1       1.587   9.522  18.229  0.00  0.00    +0.000 C 
ATOM     19  C   UNL     1       0.176  10.128  18.488  0.00  0.00    +0.000 C 
ATOM     20  N   UNL     1      -0.148  10.434  19.914  0.00  0.00    +0.000 NA
ATOM     21  C   UNL     1       0.124   9.209  20.706  0.00  0.00    +0.000 C 
ATOM     22  C   UNL     1       1.535   8.603  20.527  0.00  0.00    +0.000 C 
BRANCH  17  28
ATOM     23  C   UNL     1       5.172   6.298  16.089  0.00  0.00    +0.000 C 
ATOM     24  C   UNL     1       4.223   6.204  17.249  0.00  0.00    +0.000 A 
ATOM     25  C   UNL     1       4.079   5.005  17.950  0.00  0.00    +0.000 A 
ATOM     26  C   UNL     1       3.201   4.931  19.022  0.00  0.00    +0.000 A 
ATOM     27  C   UNL     1       2.463   6.058  19.398  0.00  0.00    +0.000 A 
ATOM     28  C   UNL     1       2.575   7.284  18.719  0.00  0.00    +0.000 A 
ATOM     29  C   UNL     1       3.464   7.326  17.635  0.00  0.00    +0.000 A 
ENDBRANCH  17  28
ENDBRANCH  16  20
ENDBRANCH   1  16
TORSDOF 5
ENDMDL
MODEL 3
REMARK VINA RESULT:      -7.4      0.684      1.139
REMARK  Name = 
REMARK  7 active torsions:
REMARK  status: ('A' for Active; 'I' for Inactive)
REMARK    1  A    between atoms: C_1  and  C_2
REMARK    2  A    between atoms: C_6  and  N_7
REMARK    3  A    between atoms: N_10  and  C_11
REMARK    4  A    between atoms: C_11  and  N_12
REMARK    5  A    between atoms: C_16  and  C_17
REMARK    6  A    between atoms: C_17  and  C_18
REMARK    7  A    between atoms: C_17  and  C_19
REMARK                            x       y       z     vdW  Elec       q    Type
REMARK                         _______ _______ _______ _____ _____    ______ ____
ROOT
ATOM      1  N   UNL     1       1.088   9.076  19.399  0.00  0.00    +0.000 N 
ATOM      2  C   UNL     1       0.980   8.275  20.499  0.00  0.00    +0.000 C 
ATOM      3  O   UNL     1       0.079   8.270  21.321  0.00  0.00    +0.000 OA
ATOM      4  C   UNL     1       2.165   7.358  20.548  0.00  0.00    +0.000 C 
ATOM      5  C   UNL     1       2.753   7.434  19.142  0.00  0.00    +0.000 C 
ATOM      6  C   UNL     1       2.092   8.672  18.562  0.00  0.00    +0.000 C 
ATOM      7  O   UNL     1       2.352   9.118  17.452  0.00  0.00    +0.000 OA
ENDROOT
BRANCH   5   8
ATOM      8  C   UNL     1       2.453   6.208  18.224  0.00  0.00    +0.000 C 
ATOM      9  C   UNL     1       1.757   5.065  18.999  0.00  0.00    +0.000 C 
BRANCH   8  10
ATOM     10  C   UNL     1       3.633   5.663  17.410  0.00  0.00    +0.000 A 
ATOM     11  C   UNL     1       4.598   6.477  16.797  0.00  0.00    +0.000 A 
ATOM     12  C   UNL     1       5.658   5.923  16.067  0.00  0.00    +0.000 A 
ATOM     13  C   UNL     1       5.771   4.544  15.926  0.00  0.00    +0.000 A 
ATOM     14  C   UNL     1       4.819   3.716  16.502  0.00  0.00    +0.000 A 
ATOM     15  C   UNL     1       3.756   4.270  17.225  0.00  0.00    +0.000 A 
ENDBRANCH   8  10
ENDBRANCH   5   8
BRANCH   1  16
ATOM     16  C   UNL     1      -0.002   9.918  18.963  0.00  0.00    +0.000 C 
BRANCH  16  20
ATOM     17  N   UNL     1      -1.324  12.338  21.362  0.00  0.00    +0.000 N 
ATOM     18  C   UNL     1      -2.002  12.004  20.104  0.00  0.00    +0.000 C 
ATOM     19  C   UNL     1      -0.988  12.114  18.928  0.00  0.00    +0.000 C 
ATOM     20  N   UNL     1       0.284  11.349  19.092  0.00  0.00    +0.000 NA
ATOM     21  C   UNL     1       0.861  11.720  20.407  0.00  0.00    +0.000 C 
ATOM     22  C   UNL     1      -0.091  11.571  21.616  0.00  0.00    +0.000 C 
BRANCH  17  28
ATOM     23  C   UNL     1      -5.412  12.904  24.142  0.00  0.00    +0.000 C 
ATOM     24  C   UNL     1      -3.992  13.265  23.816  0.00  0.00    +0.000 A 
ATOM     25  C   UNL     1      -3.322  14.244  24.553  0.00  0.00    +0.000 A 
ATOM     26  C   UNL     1      -2.008  14.566  24.244  0.00  0.00    +0.000 A 
ATOM     27  C   UNL     1      -1.357  13.908  23.195  0.00  0.00    +0.000 A 
ATOM     28  C   UNL     1      -1.994  12.918  22.426  0.00  0.00    +0.000 A 
ATOM     29  C   UNL     1      -3.323  12.619  22.757  0.00  0.00    +0.000 A 
ENDBRANCH  17  28
ENDBRANCH  16  20
ENDBRANCH   1  16
TORSDOF 5
ENDMDL
MODEL 4
REMARK VINA RESULT:      -7.4      0.941      1.564
REMARK  Name = 
REMARK  7 active torsions:
REMARK  status: ('A' for Active; 'I' for Inactive)
REMARK    1  A    between atoms: C_1  and  C_2
REMARK    2  A    between atoms: C_6  and  N_7
REMARK    3  A    between atoms: N_10  and  C_11
REMARK    4  A    between atoms: C_11  and  N_12
REMARK    5  A    between atoms: C_16  and  C_17
REMARK    6  A    between atoms: C_17  and  C_18
REMARK    7  A    between atoms: C_17  and  C_19
REMARK                            x       y       z     vdW  Elec       q    Type
REMARK                         _______ _______ _______ _____ _____    ______ ____
ROOT
ATOM      1  N   UNL     1       1.097   9.066  19.432  0.00  0.00    +0.000 N 
ATOM      2  C   UNL     1       0.972   8.265  20.530  0.00  0.00    +0.000 C 
ATOM      3  O   UNL     1       0.067   8.272  21.347  0.00  0.00    +0.000 OA
ATOM      4  C   UNL     1       2.142   7.329  20.584  0.00  0.00    +0.000 C 
ATOM      5  C   UNL     1       2.739   7.399  19.180  0.00  0.00    +0.000 C 
ATOM      6  C   UNL     1       2.100   8.648  18.599  0.00  0.00    +0.000 C 
ATOM      7  O   UNL     1       2.372   9.091  17.491  0.00  0.00    +0.000 OA
ENDROOT
BRANCH   5   8
ATOM      8  C   UNL     1       2.424   6.179  18.258  0.00  0.00    +0.000 C 
ATOM      9  C   UNL     1       1.743   5.029  19.037  0.00  0.00    +0.000 C 
BRANCH   8  10
ATOM     10  C   UNL     1       3.590   5.641  17.420  0.00  0.00    +0.000 A 
ATOM     11  C   UNL     1       4.515   6.461  16.758  0.00  0.00    +0.000 A 
ATOM     12  C   UNL     1       5.565   5.915  16.007  0.00  0.00    +0.000 A 
ATOM     13  C   UNL     1       5.706   4.536  15.895  0.00  0.00    +0.000 A 
ATOM     14  C   UNL     1       4.792   3.700  16.521  0.00  0.00    +0.000 A 
ATOM     15  C   UNL     1       3.740   4.247  17.264  0.00  0.00    +0.000 A 
ENDBRANCH   8  10
ENDBRANCH   5   8
BRANCH   1  16
ATOM     16  C   UNL     1       0.023   9.925  18.992  0.00  0.00    +0.000 C 
BRANCH  16  20
ATOM     17  N   UNL     1      -1.211  12.442  21.338  0.00  0.00    +0.000 N 
ATOM     18  C   UNL     1      -1.910  12.094  20.095  0.00  0.00    +0.000 C 
ATOM     19  C   UNL     1      -0.904  12.146  18.907  0.00  0.00    +0.000 C 
ATOM     20  N   UNL     1       0.348  11.350  19.081  0.00  0.00    +0.000 NA
ATOM     21  C   UNL     1       0.948  11.740  20.380  0.00  0.00    +0.000 C 
ATOM     22  C   UNL     1       0.004  11.649  21.601  0.00  0.00    +0.000 C 
BRANCH  17  28
ATOM     23  C   UNL     1      -1.225  15.644  25.147  0.00  0.00    +0.000 C 
ATOM     24  C   UNL     1      -1.914  14.609  24.306  0.00  0.00    +0.000 A 
ATOM     25  C   UNL     1      -3.219  14.208  24.602  0.00  0.00    +0.000 A 
ATOM     26  C   UNL     1      -3.846  13.253  23.815  0.00  0.00    +0.000 A 
ATOM     27  C   UNL     1      -3.169  12.695  22.725  0.00  0.00    +0.000 A 
ATOM     28  C   UNL     1      -1.855  13.067  22.392  0.00  0.00    +0.000 A 
ATOM     29  C   UNL     1      -1.245  14.029  23.210  0.00  0.00    +0.000 A 
ENDBRANCH  17  28
ENDBRANCH  16  20
ENDBRANCH   1  16
TORSDOF 5
ENDMDL
MODEL 5
REMARK VINA RESULT:      -7.3      3.293      9.514
REMARK  Name = 
REMARK  7 active torsions:
REMARK  status: ('A' for Active; 'I' for Inactive)
REMARK    1  A    between atoms: C_1  and  C_2
REMARK    2  A    between atoms: C_6  and  N_7
REMARK    3  A    between atoms: N_10  and  C_11
REMARK    4  A    between atoms: C_11  and  N_12
REMARK    5  A    between atoms: C_16  and  C_17
REMARK    6  A    between atoms: C_17  and  C_18
REMARK    7  A    between atoms: C_17  and  C_19
REMARK                            x       y       z     vdW  Elec       q    Type
REMARK                         _______ _______ _______ _____ _____    ______ ____
ROOT
ATOM      1  N   UNL     1       0.102  12.338  20.351  0.00  0.00    +0.000 N 
ATOM      2  C   UNL     1      -0.242  12.821  21.580  0.00  0.00    +0.000 C 
ATOM      3  O   UNL     1      -0.095  12.268  22.656  0.00  0.00    +0.000 OA
ATOM      4  C   UNL     1      -0.838  14.187  21.414  0.00  0.00    +0.000 C 
ATOM      5  C   UNL     1      -0.423  14.605  20.006  0.00  0.00    +0.000 C 
ATOM      6  C   UNL     1       0.019  13.295  19.377  0.00  0.00    +0.000 C 
ATOM      7  O   UNL     1       0.372  13.194  18.210  0.00  0.00    +0.000 OA
ENDROOT
BRANCH   5   8
ATOM      8  C   UNL     1       0.747  15.636  19.932  0.00  0.00    +0.000 C 
ATOM      9  C   UNL     1       0.915  16.411  21.259  0.00  0.00    +0.000 C 
BRANCH   8  10
ATOM     10  C   UNL     1       0.724  16.606  18.744  0.00  0.00    +0.000 A 
ATOM     11  C   UNL     1      -0.434  17.256  18.293  0.00  0.00    +0.000 A 
ATOM     12  C   UNL     1      -0.396  18.136  17.202  0.00  0.00    +0.000 A 
ATOM     13  C   UNL     1       0.800  18.376  16.534  0.00  0.00    +0.000 A 
ATOM     14  C   UNL     1       1.957  17.729  16.944  0.00  0.00    +0.000 A 
ATOM     15  C   UNL     1       1.916  16.845  18.028  0.00  0.00    +0.000 A 
ENDBRANCH   8  10
ENDBRANCH   5   8
BRANCH   1  16
ATOM     16  C   UNL     1       0.891  11.136  20.201  0.00  0.00    +0.000 C 
BRANCH  16  20
ATOM     17  N   UNL     1       1.946   8.001  18.648  0.00  0.00    +0.000 N 
ATOM     18  C   UNL     1       1.576   9.193  17.876  0.00  0.00    +0.000 C 
ATOM     19  C   UNL     1       0.201   9.724  18.377  0.00  0.00    +0.000 C 
ATOM     20  N   UNL     1       0.093   9.960  19.848  0.00  0.00    +0.000 NA
ATOM     21  C   UNL     1       0.533   8.720  20.533  0.00  0.00    +0.000 C 
ATOM     22  C   UNL     1       1.920   8.185  20.110  0.00  0.00    +0.000 C 
BRANCH  17  28
ATOM     23  C   UNL     1       2.701   3.190  17.623  0.00  0.00    +0.000 C 
ATOM     24  C   UNL     1       3.158   4.619  17.600  0.00  0.00    +0.000 A 
ATOM     25  C   UNL     1       4.407   4.956  17.073  0.00  0.00    +0.000 A 
ATOM     26  C   UNL     1       4.817   6.281  17.054  0.00  0.00    +0.000 A 
ATOM     27  C   UNL     1       3.977   7.278  17.563  0.00  0.00    +0.000 A 
ATOM     28  C   UNL     1       2.714   6.984  18.105  0.00  0.00    +0.000 A 
ATOM     29  C   UNL     1       2.330   5.635  18.117  0.00  0.00    +0.000 A 
ENDBRANCH  17  28
ENDBRANCH  16  20
ENDBRANCH   1  16
TORSDOF 5
ENDMDL
MODEL 6
REMARK VINA RESULT:      -7.3      3.445     10.638
REMARK  Name = 
REMARK  7 active torsions:
REMARK  status: ('A' for Active; 'I' for Inactive)
REMARK    1  A    between atoms: C_1  and  C_2
REMARK    2  A    between atoms: C_6  and  N_7
REMARK    3  A    between atoms: N_10  and  C_11
REMARK    4  A    between atoms: C_11  and  N_12
REMARK    5  A    between atoms: C_16  and  C_17
REMARK    6  A    between atoms: C_17  and  C_18
REMARK    7  A    between atoms: C_17  and  C_19
REMARK                            x       y       z     vdW  Elec       q    Type
REMARK                         _______ _______ _______ _____ _____    ______ ____
ROOT
ATOM      1  N   UNL     1       3.659   5.814  19.273  0.00  0.00    +0.000 N 
ATOM      2  C   UNL     1       2.900   5.233  20.248  0.00  0.00    +0.000 C 
ATOM      3  O   UNL     1       3.261   4.406  21.067  0.00  0.00    +0.000 OA
ATOM      4  C   UNL     1       1.509   5.787  20.173  0.00  0.00    +0.000 C 
ATOM      5  C   UNL     1       1.655   7.045  19.321  0.00  0.00    +0.000 C 
ATOM      6  C   UNL     1       3.018   6.865  18.676  0.00  0.00    +0.000 C 
ATOM      7  O   UNL     1       3.485   7.645  17.857  0.00  0.00    +0.000 OA
ENDROOT
BRANCH   5   8
ATOM      8  C   UNL     1       1.630   8.393  20.108  0.00  0.00    +0.000 C 
ATOM      9  C   UNL     1       1.538   8.165  21.635  0.00  0.00    +0.000 C 
BRANCH   8  10
ATOM     10  C   UNL     1       0.588   9.425  19.657  0.00  0.00    +0.000 A 
ATOM     11  C   UNL     1       0.232   9.635  18.316  0.00  0.00    +0.000 A 
ATOM     12  C   UNL     1      -0.729  10.591  17.961  0.00  0.00    +0.000 A 
ATOM     13  C   UNL     1      -1.348  11.363  18.938  0.00  0.00    +0.000 A 
ATOM     14  C   UNL     1      -0.999  11.191  20.270  0.00  0.00    +0.000 A 
ATOM     15  C   UNL     1      -0.034  10.243  20.623  0.00  0.00    +0.000 A 
ENDBRANCH   8  10
ENDBRANCH   5   8
BRANCH   1  16
ATOM     16  C   UNL     1       5.093   5.643  19.225  0.00  0.00    +0.000 C 
BRANCH  16  20
ATOM     17  N   UNL     1       6.018   4.419  15.908  0.00  0.00    +0.000 N 
ATOM     18  C   UNL     1       4.631   4.471  16.385  0.00  0.00    +0.000 C 
ATOM     19  C   UNL     1       4.543   3.794  17.785  0.00  0.00    +0.000 C 
ATOM     20  N   UNL     1       5.503   4.299  18.812  0.00  0.00    +0.000 NA
ATOM     21  C   UNL     1       6.861   4.251  18.217  0.00  0.00    +0.000 C 
ATOM     22  C   UNL     1       7.012   4.962  16.852  0.00  0.00    +0.000 C 
BRANCH  17  28
ATOM     23  C   UNL     1       5.345   2.470  11.380  0.00  0.00    +0.000 C 
ATOM     24  C   UNL     1       6.065   3.405  12.307  0.00  0.00    +0.000 A 
ATOM     25  C   UNL     1       7.113   4.199  11.839  0.00  0.00    +0.000 A 
ATOM     26  C   UNL     1       7.769   5.062  12.705  0.00  0.00    +0.000 A 
ATOM     27  C   UNL     1       7.377   5.135  14.046  0.00  0.00    +0.000 A 
ATOM     28  C   UNL     1       6.328   4.352  14.560  0.00  0.00    +0.000 A 
ATOM     29  C   UNL     1       5.690   3.484  13.663  0.00  0.00    +0.000 A 
ENDBRANCH  17  28
ENDBRANCH  16  20
ENDBRANCH   1  16
TORSDOF 5
ENDMDL
MODEL 7
REMARK VINA RESULT:      -7.3      0.429      1.525
REMARK  Name = 
REMARK  7 active torsions:
REMARK  status: ('A' for Active; 'I' for Inactive)
REMARK    1  A    between atoms: C_1  and  C_2
REMARK    2  A    between atoms: C_6  and  N_7
REMARK    3  A    between atoms: N_10  and  C_11
REMARK    4  A    between atoms: C_11  and  N_12
REMARK    5  A    between atoms: C_16  and  C_17
REMARK    6  A    between atoms: C_17  and  C_18
REMARK    7  A    between atoms: C_17  and  C_19
REMARK                            x       y       z     vdW  Elec       q    Type
REMARK                         _______ _______ _______ _____ _____    ______ ____
ROOT
ATOM      1  N   UNL     1       1.054   9.103  19.444  0.00  0.00    +0.000 N 
ATOM      2  C   UNL     1       0.948   8.305  20.547  0.00  0.00    +0.000 C 
ATOM      3  O   UNL     1       0.049   8.304  21.371  0.00  0.00    +0.000 OA
ATOM      4  C   UNL     1       2.132   7.387  20.597  0.00  0.00    +0.000 C 
ATOM      5  C   UNL     1       2.718   7.459  19.189  0.00  0.00    +0.000 C 
ATOM      6  C   UNL     1       2.056   8.695  18.606  0.00  0.00    +0.000 C 
ATOM      7  O   UNL     1       2.314   9.137  17.495  0.00  0.00    +0.000 OA
ENDROOT
BRANCH   5   8
ATOM      8  C   UNL     1       2.414   6.230  18.276  0.00  0.00    +0.000 C 
ATOM      9  C   UNL     1       1.743   5.080  19.062  0.00  0.00    +0.000 C 
BRANCH   8  10
ATOM     10  C   UNL     1       3.587   5.696  17.442  0.00  0.00    +0.000 A 
ATOM     11  C   UNL     1       4.510   6.520  16.782  0.00  0.00    +0.000 A 
ATOM     12  C   UNL     1       5.564   5.977  16.036  0.00  0.00    +0.000 A 
ATOM     13  C   UNL     1       5.713   4.599  15.927  0.00  0.00    +0.000 A 
ATOM     14  C   UNL     1       4.801   3.760  16.551  0.00  0.00    +0.000 A 
ATOM     15  C   UNL     1       3.744   4.302  17.290  0.00  0.00    +0.000 A 
ENDBRANCH   8  10
ENDBRANCH   5   8
BRANCH   1  16
ATOM     16  C   UNL     1      -0.036   9.944  19.007  0.00  0.00    +0.000 C 
BRANCH  16  20
ATOM     17  N   UNL     1      -1.837  12.351  21.087  0.00  0.00    +0.000 N 
ATOM     18  C   UNL     1      -2.230  12.029  19.710  0.00  0.00    +0.000 C 
ATOM     19  C   UNL     1      -0.986  12.145  18.780  0.00  0.00    +0.000 C 
ATOM     20  N   UNL     1       0.219  11.372  19.207  0.00  0.00    +0.000 NA
ATOM     21  C   UNL     1       0.501  11.731  20.619  0.00  0.00    +0.000 C 
ATOM     22  C   UNL     1      -0.689  11.576  21.593  0.00  0.00    +0.000 C 
BRANCH  17  28
ATOM     23  C   UNL     1      -4.777  16.106  22.506  0.00  0.00    +0.000 C 
ATOM     24  C   UNL     1      -4.161  14.761  22.757  0.00  0.00    +0.000 A 
ATOM     25  C   UNL     1      -4.424  14.071  23.943  0.00  0.00    +0.000 A 
ATOM     26  C   UNL     1      -3.851  12.826  24.162  0.00  0.00    +0.000 A 
ATOM     27  C   UNL     1      -3.012  12.265  23.193  0.00  0.00    +0.000 A 
ATOM     28  C   UNL     1      -2.719  12.925  21.987  0.00  0.00    +0.000 A 
ATOM     29  C   UNL     1      -3.306  14.184  21.797  0.00  0.00    +0.000 A 
ENDBRANCH  17  28
ENDBRANCH  16  20
ENDBRANCH   1  16
TORSDOF 5
ENDMDL
MODEL 8
REMARK VINA RESULT:      -7.3      1.847      3.168
REMARK  Name = 
REMARK  7 active torsions:
REMARK  status: ('A' for Active; 'I' for Inactive)
REMARK    1  A    between atoms: C_1  and  C_2
REMARK    2  A    between atoms: C_6  and  N_7
REMARK    3  A    between atoms: N_10  and  C_11
REMARK    4  A    between atoms: C_11  and  N_12
REMARK    5  A    between atoms: C_16  and  C_17
REMARK    6  A    between atoms: C_17  and  C_18
REMARK    7  A    between atoms: C_17  and  C_19
REMARK                            x       y       z     vdW  Elec       q    Type
REMARK                         _______ _______ _______ _____ _____    ______ ____
ROOT
ATOM      1  N   UNL     1       1.211  10.547  19.500  0.00  0.00    +0.000 N 
ATOM      2  C   UNL     1       1.923  10.777  18.358  0.00  0.00    +0.000 C 
ATOM      3  O   UNL     1       2.526  11.794  18.060  0.00  0.00    +0.000 OA
ATOM      4  C   UNL     1       1.868   9.551  17.497  0.00  0.00    +0.000 C 
ATOM      5  C   UNL     1       1.395   8.452  18.444  0.00  0.00    +0.000 C 
ATOM      6  C   UNL     1       0.854   9.232  19.630  0.00  0.00    +0.000 C 
ATOM      7  O   UNL     1       0.317   8.705  20.595  0.00  0.00    +0.000 OA
ENDROOT
BRANCH   5   8
ATOM      8  C   UNL     1       2.503   7.468  18.934  0.00  0.00    +0.000 C 
ATOM      9  C   UNL     1       3.764   7.530  18.040  0.00  0.00    +0.000 C 
BRANCH   8  10
ATOM     10  C   UNL     1       2.072   6.012  19.151  0.00  0.00    +0.000 A 
ATOM     11  C   UNL     1       1.914   5.084  18.111  0.00  0.00    +0.000 A 
ATOM     12  C   UNL     1       1.521   3.764  18.369  0.00  0.00    +0.000 A 
ATOM     13  C   UNL     1       1.268   3.346  19.671  0.00  0.00    +0.000 A 
ATOM     14  C   UNL     1       1.395   4.249  20.717  0.00  0.00    +0.000 A 
ATOM     15  C   UNL     1       1.780   5.569  20.458  0.00  0.00    +0.000 A 
ENDBRANCH   8  10
ENDBRANCH   5   8
BRANCH   1  16
ATOM     16  C   UNL     1       1.252  11.460  20.618  0.00  0.00    +0.000 C 
BRANCH  16  20
ATOM     17  N   UNL     1      -2.022  12.547  21.823  0.00  0.00    +0.000 N 
ATOM     18  C   UNL     1      -1.842  11.742  20.609  0.00  0.00    +0.000 C 
ATOM     19  C   UNL     1      -0.763  12.409  19.706  0.00  0.00    +0.000 C 
ATOM     20  N   UNL     1       0.541  12.715  20.368  0.00  0.00    +0.000 NA
ATOM     21  C   UNL     1       0.245  13.484  21.602  0.00  0.00    +0.000 C 
ATOM     22  C   UNL     1      -0.778  12.832  22.560  0.00  0.00    +0.000 C 
BRANCH  17  28
ATOM     23  C   UNL     1      -6.925  13.400  21.865  0.00  0.00    +0.000 C 
ATOM     24  C   UNL     1      -5.652  13.048  22.579  0.00  0.00    +0.000 A 
ATOM     25  C   UNL     1      -5.652  12.825  23.958  0.00  0.00    +0.000 A 
ATOM     26  C   UNL     1      -4.469  12.498  24.606  0.00  0.00    +0.000 A 
ATOM     27  C   UNL     1      -3.281  12.391  23.876  0.00  0.00    +0.000 A 
ATOM     28  C   UNL     1      -3.235  12.609  22.488  0.00  0.00    +0.000 A 
ATOM     29  C   UNL     1      -4.444  12.945  21.862  0.00  0.00    +0.000 A 
ENDBRANCH  17  28
ENDBRANCH  16  20
ENDBRANCH   1  16
TORSDOF 5
ENDMDL
MODEL 9
REMARK VINA RESULT:      -7.2      2.511      3.956
REMARK  Name = 
REMARK  7 active torsions:
REMARK  status: ('A' for Active; 'I' for Inactive)
REMARK    1  A    between atoms: C_1  and  C_2
REMARK    2  A    between atoms: C_6  and  N_7
REMARK    3  A    between atoms: N_10  and  C_11
REMARK    4  A    between atoms: C_11  and  N_12
REMARK    5  A    between atoms: C_16  and  C_17
REMARK    6  A    between atoms: C_17  and  C_18
REMARK    7  A    between atoms: C_17  and  C_19
REMARK                            x       y       z     vdW  Elec       q    Type
REMARK                         _______ _______ _______ _____ _____    ______ ____
ROOT
ATOM      1  N   UNL     1       1.046   9.066  19.688  0.00  0.00    +0.000 N 
ATOM      2  C   UNL     1       0.825   8.216  20.734  0.00  0.00    +0.000 C 
ATOM      3  O   UNL     1      -0.129   8.215  21.492  0.00  0.00    +0.000 OA
ATOM      4  C   UNL     1       1.960   7.240  20.812  0.00  0.00    +0.000 C 
ATOM      5  C   UNL     1       2.647   7.358  19.454  0.00  0.00    +0.000 C 
ATOM      6  C   UNL     1       2.086   8.655  18.899  0.00  0.00    +0.000 C 
ATOM      7  O   UNL     1       2.442   9.143  17.835  0.00  0.00    +0.000 OA
ENDROOT
BRANCH   5   8
ATOM      8  C   UNL     1       2.354   6.197  18.453  0.00  0.00    +0.000 C 
ATOM      9  C   UNL     1       1.713   4.978  19.157  0.00  0.00    +0.000 C 
BRANCH   8  10
ATOM     10  C   UNL     1       3.526   5.749  17.569  0.00  0.00    +0.000 A 
ATOM     11  C   UNL     1       4.428   6.638  16.966  0.00  0.00    +0.000 A 
ATOM     12  C   UNL     1       5.483   6.173  16.169  0.00  0.00    +0.000 A 
ATOM     13  C   UNL     1       5.652   4.810  15.951  0.00  0.00    +0.000 A 
ATOM     14  C   UNL     1       4.761   3.910  16.517  0.00  0.00    +0.000 A 
ATOM     15  C   UNL     1       3.704   4.375  17.306  0.00  0.00    +0.000 A 
ENDBRANCH   8  10
ENDBRANCH   5   8
BRANCH   1  16
ATOM     16  C   UNL     1       0.028   9.982  19.226  0.00  0.00    +0.000 C 
BRANCH  16  20
ATOM     17  N   UNL     1       0.451  13.612  19.199  0.00  0.00    +0.000 N 
ATOM     18  C   UNL     1       1.486  12.688  19.677  0.00  0.00    +0.000 C 
ATOM     19  C   UNL     1       0.858  11.696  20.699  0.00  0.00    +0.000 C 
ATOM     20  N   UNL     1      -0.361  10.970  20.235  0.00  0.00    +0.000 NA
ATOM     21  C   UNL     1      -1.320  11.984  19.730  0.00  0.00    +0.000 C 
ATOM     22  C   UNL     1      -0.758  12.956  18.668  0.00  0.00    +0.000 C 
BRANCH  17  28
ATOM     23  C   UNL     1      -0.978  18.202  17.910  0.00  0.00    +0.000 C 
ATOM     24  C   UNL     1       0.101  17.183  18.136  0.00  0.00    +0.000 A 
ATOM     25  C   UNL     1       1.440  17.506  17.906  0.00  0.00    +0.000 A 
ATOM     26  C   UNL     1       2.429  16.556  18.122  0.00  0.00    +0.000 A 
ATOM     27  C   UNL     1       2.080  15.277  18.570  0.00  0.00    +0.000 A 
ATOM     28  C   UNL     1       0.746  14.909  18.811  0.00  0.00    +0.000 A 
ATOM     29  C   UNL     1      -0.231  15.887  18.578  0.00  0.00    +0.000 A 
ENDBRANCH  17  28
ENDBRANCH  16  20
ENDBRANCH   1  16
TORSDOF 5
ENDMDL
