MODEL 1
REMARK VINA RESULT:      -8.9      0.000      0.000
REMARK  Name = 
REMARK  2 active torsions:
REMARK  status: ('A' for Active; 'I' for Inactive)
REMARK    1  A    between atoms: O_1  and  C_2
REMARK    2  A    between atoms: C_2  and  C_3
REMARK                            x       y       z     vdW  Elec       q    Type
REMARK                         _______ _______ _______ _____ _____    ______ ____
ROOT
ATOM      1  C   UNL     1       3.236   5.896  19.097  0.00  0.00    +0.000 C 
ATOM      2  C   UNL     1       2.402   4.610  19.100  0.00  0.00    +0.000 A 
ATOM      3  C   UNL     1       1.398   4.221  19.980  0.00  0.00    +0.000 A 
ATOM      4  C   UNL     1       0.758   3.001  19.756  0.00  0.00    +0.000 A 
ATOM      5  C   UNL     1       1.131   2.181  18.679  0.00  0.00    +0.000 A 
ATOM      6  C   UNL     1       2.148   2.571  17.802  0.00  0.00    +0.000 A 
ATOM      7  C   UNL     1       2.776   3.788  18.013  0.00  0.00    +0.000 A 
ATOM      8  C   UNL     1       3.823   4.444  17.262  0.00  0.00    +0.000 A 
ATOM      9  C   UNL     1       4.507   4.027  16.131  0.00  0.00    +0.000 A 
ATOM     10  C   UNL     1       5.487   4.868  15.596  0.00  0.00    +0.000 A 
ATOM     11  C   UNL     1       5.777   6.104  16.192  0.00  0.00    +0.000 A 
ATOM     12  C   UNL     1       5.092   6.523  17.337  0.00  0.00    +0.000 A 
ATOM     13  C   UNL     1       4.112   5.691  17.862  0.00  0.00    +0.000 A 
ENDROOT
BRANCH   1  14
ATOM     14  C   UNL     1       2.429   7.194  19.081  0.00  0.00    +0.000 A 
ATOM     15  C   UNL     1       2.215   7.886  17.872  0.00  0.00    +0.000 A 
ATOM     16  C   UNL     1       1.510   9.092  17.843  0.00  0.00    +0.000 A 
ATOM     17  C   UNL     1       0.999   9.628  19.021  0.00  0.00    +0.000 A 
ATOM     18  C   UNL     1       1.168   8.946  20.223  0.00  0.00    +0.000 A 
ATOM     19  C   UNL     1       1.862   7.734  20.250  0.00  0.00    +0.000 A 
ENDBRANCH   1  14
BRANCH   1  20
ATOM     20  O   UNL     1       4.075   5.843  20.254  0.00  0.00    +0.000 OA
ATOM     21  H   UNL     1       4.498   4.970  20.229  0.00  0.00    +0.000 HD
ENDBRANCH   1  20
TORSDOF 2
ENDMDL
MODEL 2
REMARK VINA RESULT:      -8.9      0.055      1.079
REMARK  Name = 
REMARK  2 active torsions:
REMARK  status: ('A' for Active; 'I' for Inactive)
REMARK    1  A    between atoms: O_1  and  C_2
REMARK    2  A    between atoms: C_2  and  C_3
REMARK                            x       y       z     vdW  Elec       q    Type
REMARK                         _______ _______ _______ _____ _____    ______ ____
ROOT
ATOM      1  C   UNL     1       3.230   5.938  19.080  0.00  0.00    +0.000 C 
ATOM      2  C   UNL     1       2.384   4.660  19.089  0.00  0.00    +0.000 A 
ATOM      3  C   UNL     1       1.377   4.285  19.972  0.00  0.00    +0.000 A 
ATOM      4  C   UNL     1       0.727   3.069  19.755  0.00  0.00    +0.000 A 
ATOM      5  C   UNL     1       1.093   2.240  18.683  0.00  0.00    +0.000 A 
ATOM      6  C   UNL     1       2.113   2.615  17.803  0.00  0.00    +0.000 A 
ATOM      7  C   UNL     1       2.751   3.828  18.008  0.00  0.00    +0.000 A 
ATOM      8  C   UNL     1       3.805   4.471  17.253  0.00  0.00    +0.000 A 
ATOM      9  C   UNL     1       4.486   4.041  16.124  0.00  0.00    +0.000 A 
ATOM     10  C   UNL     1       5.472   4.871  15.585  0.00  0.00    +0.000 A 
ATOM     11  C   UNL     1       5.773   6.108  16.174  0.00  0.00    +0.000 A 
ATOM     12  C   UNL     1       5.092   6.540  17.317  0.00  0.00    +0.000 A 
ATOM     13  C   UNL     1       4.105   5.719  17.846  0.00  0.00    +0.000 A 
ENDROOT
BRANCH   1  14
ATOM     14  C   UNL     1       2.434   7.244  19.056  0.00  0.00    +0.000 A 
ATOM     15  C   UNL     1       1.882   7.766  20.242  0.00  0.00    +0.000 A 
ATOM     16  C   UNL     1       1.122   8.938  20.233  0.00  0.00    +0.000 A 
ATOM     17  C   UNL     1       0.906   9.617  19.039  0.00  0.00    +0.000 A 
ATOM     18  C   UNL     1       1.469   9.141  17.858  0.00  0.00    +0.000 A 
ATOM     19  C   UNL     1       2.239   7.975  17.869  0.00  0.00    +0.000 A 
ENDBRANCH   1  14
BRANCH   1  20
ATOM     20  O   UNL     1       4.068   5.885  20.237  0.00  0.00    +0.000 OA
ATOM     21  H   UNL     1       3.889   6.704  20.726  0.00  0.00    +0.000 HD
ENDBRANCH   1  20
TORSDOF 2
ENDMDL
MODEL 3
REMARK VINA RESULT:      -8.2      1.747      4.638
REMARK  Name = 
REMARK  2 active torsions:
REMARK  status: ('A' for Active; 'I' for Inactive)
REMARK    1  A    between atoms: O_1  and  C_2
REMARK    2  A    between atoms: C_2  and  C_3
REMARK                            x       y       z     vdW  Elec       q    Type
REMARK                         _______ _______ _______ _____ _____    ______ ____
ROOT
ATOM      1  C   UNL     1       3.369   4.802  17.992  0.00  0.00    +0.000 C 
ATOM      2  C   UNL     1       3.046   4.045  19.286  0.00  0.00    +0.000 A 
ATOM      3  C   UNL     1       3.285   2.712  19.600  0.00  0.00    +0.000 A 
ATOM      4  C   UNL     1       2.921   2.256  20.868  0.00  0.00    +0.000 A 
ATOM      5  C   UNL     1       2.315   3.120  21.795  0.00  0.00    +0.000 A 
ATOM      6  C   UNL     1       2.068   4.458  21.472  0.00  0.00    +0.000 A 
ATOM      7  C   UNL     1       2.441   4.916  20.218  0.00  0.00    +0.000 A 
ATOM      8  C   UNL     1       2.332   6.234  19.633  0.00  0.00    +0.000 A 
ATOM      9  C   UNL     1       1.804   7.404  20.158  0.00  0.00    +0.000 A 
ATOM     10  C   UNL     1       1.826   8.558  19.370  0.00  0.00    +0.000 A 
ATOM     11  C   UNL     1       2.365   8.534  18.075  0.00  0.00    +0.000 A 
ATOM     12  C   UNL     1       2.892   7.353  17.542  0.00  0.00    +0.000 A 
ATOM     13  C   UNL     1       2.878   6.210  18.329  0.00  0.00    +0.000 A 
ENDROOT
BRANCH   1  14
ATOM     14  C   UNL     1       4.831   4.741  17.550  0.00  0.00    +0.000 A 
ATOM     15  C   UNL     1       5.166   4.333  16.244  0.00  0.00    +0.000 A 
ATOM     16  C   UNL     1       6.498   4.237  15.834  0.00  0.00    +0.000 A 
ATOM     17  C   UNL     1       7.523   4.556  16.719  0.00  0.00    +0.000 A 
ATOM     18  C   UNL     1       7.217   4.996  18.005  0.00  0.00    +0.000 A 
ATOM     19  C   UNL     1       5.884   5.102  18.411  0.00  0.00    +0.000 A 
ENDBRANCH   1  14
BRANCH   1  20
ATOM     20  O   UNL     1       2.517   4.263  16.978  0.00  0.00    +0.000 OA
ATOM     21  H   UNL     1       3.078   4.166  16.191  0.00  0.00    +0.000 HD
ENDBRANCH   1  20
TORSDOF 2
ENDMDL
MODEL 4
REMARK VINA RESULT:      -8.2      0.897      4.920
REMARK  Name = 
REMARK  2 active torsions:
REMARK  status: ('A' for Active; 'I' for Inactive)
REMARK    1  A    between atoms: O_1  and  C_2
REMARK    2  A    between atoms: C_2  and  C_3
REMARK                            x       y       z     vdW  Elec       q    Type
REMARK                         _______ _______ _______ _____ _____    ______ ____
ROOT
ATOM      1  C   UNL     1       3.515   5.462  19.133  0.00  0.00    +0.000 C 
ATOM      2  C   UNL     1       4.332   5.380  17.838  0.00  0.00    +0.000 A 
ATOM      3  C   UNL     1       5.143   4.347  17.382  0.00  0.00    +0.000 A 
ATOM      4  C   UNL     1       5.770   4.496  16.143  0.00  0.00    +0.000 A 
ATOM      5  C   UNL     1       5.597   5.667  15.388  0.00  0.00    +0.000 A 
ATOM      6  C   UNL     1       4.788   6.707  15.854  0.00  0.00    +0.000 A 
ATOM      7  C   UNL     1       4.154   6.556  17.077  0.00  0.00    +0.000 A 
ATOM      8  C   UNL     1       3.254   7.443  17.780  0.00  0.00    +0.000 A 
ATOM      9  C   UNL     1       2.790   8.704  17.436  0.00  0.00    +0.000 A 
ATOM     10  C   UNL     1       1.911   9.352  18.308  0.00  0.00    +0.000 A 
ATOM     11  C   UNL     1       1.510   8.745  19.507  0.00  0.00    +0.000 A 
ATOM     12  C   UNL     1       1.982   7.477  19.859  0.00  0.00    +0.000 A 
ATOM     13  C   UNL     1       2.847   6.829  18.988  0.00  0.00    +0.000 A 
ENDROOT
BRANCH   1  14
ATOM     14  C   UNL     1       2.534   4.310  19.357  0.00  0.00    +0.000 A 
ATOM     15  C   UNL     1       2.351   3.770  20.645  0.00  0.00    +0.000 A 
ATOM     16  C   UNL     1       1.486   2.695  20.863  0.00  0.00    +0.000 A 
ATOM     17  C   UNL     1       0.781   2.143  19.799  0.00  0.00    +0.000 A 
ATOM     18  C   UNL     1       0.919   2.681  18.522  0.00  0.00    +0.000 A 
ATOM     19  C   UNL     1       1.775   3.764  18.306  0.00  0.00    +0.000 A 
ENDBRANCH   1  14
BRANCH   1  20
ATOM     20  O   UNL     1       4.455   5.536  20.207  0.00  0.00    +0.000 OA
ATOM     21  H   UNL     1       5.297   5.224  19.839  0.00  0.00    +0.000 HD
ENDBRANCH   1  20
TORSDOF 2
ENDMDL
MODEL 5
REMARK VINA RESULT:      -8.2      0.905      4.815
REMARK  Name = 
REMARK  2 active torsions:
REMARK  status: ('A' for Active; 'I' for Inactive)
REMARK    1  A    between atoms: O_1  and  C_2
REMARK    2  A    between atoms: C_2  and  C_3
REMARK                            x       y       z     vdW  Elec       q    Type
REMARK                         _______ _______ _______ _____ _____    ______ ____
ROOT
ATOM      1  C   UNL     1       3.559   5.442  19.138  0.00  0.00    +0.000 C 
ATOM      2  C   UNL     1       4.365   5.370  17.836  0.00  0.00    +0.000 A 
ATOM      3  C   UNL     1       5.185   4.348  17.372  0.00  0.00    +0.000 A 
ATOM      4  C   UNL     1       5.798   4.506  16.127  0.00  0.00    +0.000 A 
ATOM      5  C   UNL     1       5.602   5.674  15.373  0.00  0.00    +0.000 A 
ATOM      6  C   UNL     1       4.784   6.704  15.848  0.00  0.00    +0.000 A 
ATOM      7  C   UNL     1       4.164   6.544  17.077  0.00  0.00    +0.000 A 
ATOM      8  C   UNL     1       3.259   7.420  17.789  0.00  0.00    +0.000 A 
ATOM      9  C   UNL     1       2.776   8.674  17.450  0.00  0.00    +0.000 A 
ATOM     10  C   UNL     1       1.897   9.311  18.330  0.00  0.00    +0.000 A 
ATOM     11  C   UNL     1       1.516   8.699  19.533  0.00  0.00    +0.000 A 
ATOM     12  C   UNL     1       2.007   7.437  19.880  0.00  0.00    +0.000 A 
ATOM     13  C   UNL     1       2.872   6.801  19.000  0.00  0.00    +0.000 A 
ENDROOT
BRANCH   1  14
ATOM     14  C   UNL     1       2.596   4.278  19.372  0.00  0.00    +0.000 A 
ATOM     15  C   UNL     1       1.846   3.746  18.305  0.00  0.00    +0.000 A 
ATOM     16  C   UNL     1       0.935   2.707  18.506  0.00  0.00    +0.000 A 
ATOM     17  C   UNL     1       0.762   2.171  19.778  0.00  0.00    +0.000 A 
ATOM     18  C   UNL     1       1.516   2.655  20.843  0.00  0.00    +0.000 A 
ATOM     19  C   UNL     1       2.436   3.688  20.639  0.00  0.00    +0.000 A 
ENDBRANCH   1  14
BRANCH   1  20
ATOM     20  O   UNL     1       4.509   5.528  20.204  0.00  0.00    +0.000 OA
ATOM     21  H   UNL     1       4.969   4.673  20.212  0.00  0.00    +0.000 HD
ENDBRANCH   1  20
TORSDOF 2
ENDMDL
MODEL 6
REMARK VINA RESULT:      -8.2      1.745      4.737
REMARK  Name = 
REMARK  2 active torsions:
REMARK  status: ('A' for Active; 'I' for Inactive)
REMARK    1  A    between atoms: O_1  and  C_2
REMARK    2  A    between atoms: C_2  and  C_3
REMARK                            x       y       z     vdW  Elec       q    Type
REMARK                         _______ _______ _______ _____ _____    ______ ____
ROOT
ATOM      1  C   UNL     1       3.333   4.750  17.985  0.00  0.00    +0.000 C 
ATOM      2  C   UNL     1       3.008   4.015  19.290  0.00  0.00    +0.000 A 
ATOM      3  C   UNL     1       3.225   2.681  19.618  0.00  0.00    +0.000 A 
ATOM      4  C   UNL     1       2.863   2.247  20.895  0.00  0.00    +0.000 A 
ATOM      5  C   UNL     1       2.282   3.132  21.817  0.00  0.00    +0.000 A 
ATOM      6  C   UNL     1       2.057   4.471  21.480  0.00  0.00    +0.000 A 
ATOM      7  C   UNL     1       2.427   4.907  20.218  0.00  0.00    +0.000 A 
ATOM      8  C   UNL     1       2.338   6.221  19.619  0.00  0.00    +0.000 A 
ATOM      9  C   UNL     1       1.836   7.407  20.134  0.00  0.00    +0.000 A 
ATOM     10  C   UNL     1       1.873   8.550  19.332  0.00  0.00    +0.000 A 
ATOM     11  C   UNL     1       2.400   8.501  18.033  0.00  0.00    +0.000 A 
ATOM     12  C   UNL     1       2.900   7.305  17.509  0.00  0.00    +0.000 A 
ATOM     13  C   UNL     1       2.872   6.171  18.311  0.00  0.00    +0.000 A 
ENDROOT
BRANCH   1  14
ATOM     14  C   UNL     1       4.790   4.657  17.532  0.00  0.00    +0.000 A 
ATOM     15  C   UNL     1       5.835   5.001  18.412  0.00  0.00    +0.000 A 
ATOM     16  C   UNL     1       7.170   4.956  18.003  0.00  0.00    +0.000 A 
ATOM     17  C   UNL     1       7.489   4.558  16.709  0.00  0.00    +0.000 A 
ATOM     18  C   UNL     1       6.477   4.180  15.831  0.00  0.00    +0.000 A 
ATOM     19  C   UNL     1       5.142   4.214  16.243  0.00  0.00    +0.000 A 
ENDBRANCH   1  14
BRANCH   1  20
ATOM     20  O   UNL     1       2.462   4.216  16.985  0.00  0.00    +0.000 OA
ATOM     21  H   UNL     1       1.672   4.779  17.000  0.00  0.00    +0.000 HD
ENDBRANCH   1  20
TORSDOF 2
ENDMDL
MODEL 7
REMARK VINA RESULT:      -7.9      1.903      4.629
REMARK  Name = 
REMARK  2 active torsions:
REMARK  status: ('A' for Active; 'I' for Inactive)
REMARK    1  A    between atoms: O_1  and  C_2
REMARK    2  A    between atoms: C_2  and  C_3
REMARK                            x       y       z     vdW  Elec       q    Type
REMARK                         _______ _______ _______ _____ _____    ______ ____
ROOT
ATOM      1  C   UNL     1       3.714   5.446  18.483  0.00  0.00    +0.000 C 
ATOM      2  C   UNL     1       3.416   4.344  19.505  0.00  0.00    +0.000 A 
ATOM      3  C   UNL     1       3.945   3.060  19.586  0.00  0.00    +0.000 A 
ATOM      4  C   UNL     1       3.532   2.240  20.637  0.00  0.00    +0.000 A 
ATOM      5  C   UNL     1       2.595   2.695  21.578  0.00  0.00    +0.000 A 
ATOM      6  C   UNL     1       2.058   3.983  21.488  0.00  0.00    +0.000 A 
ATOM      7  C   UNL     1       2.476   4.805  20.454  0.00  0.00    +0.000 A 
ATOM      8  C   UNL     1       2.114   6.168  20.137  0.00  0.00    +0.000 A 
ATOM      9  C   UNL     1       1.230   7.029  20.770  0.00  0.00    +0.000 A 
ATOM     10  C   UNL     1       1.066   8.316  20.252  0.00  0.00    +0.000 A 
ATOM     11  C   UNL     1       1.774   8.729  19.114  0.00  0.00    +0.000 A 
ATOM     12  C   UNL     1       2.661   7.860  18.470  0.00  0.00    +0.000 A 
ATOM     13  C   UNL     1       2.831   6.585  18.992  0.00  0.00    +0.000 A 
ENDROOT
BRANCH   1  14
ATOM     14  C   UNL     1       5.191   5.818  18.340  0.00  0.00    +0.000 A 
ATOM     15  C   UNL     1       6.132   5.383  19.294  0.00  0.00    +0.000 A 
ATOM     16  C   UNL     1       7.478   5.743  19.199  0.00  0.00    +0.000 A 
ATOM     17  C   UNL     1       7.913   6.539  18.144  0.00  0.00    +0.000 A 
ATOM     18  C   UNL     1       7.009   6.954  17.170  0.00  0.00    +0.000 A 
ATOM     19  C   UNL     1       5.664   6.584  17.258  0.00  0.00    +0.000 A 
ENDBRANCH   1  14
BRANCH   1  20
ATOM     20  O   UNL     1       3.189   4.998  17.231  0.00  0.00    +0.000 OA
ATOM     21  H   UNL     1       2.241   5.207  17.256  0.00  0.00    +0.000 HD
ENDBRANCH   1  20
TORSDOF 2
ENDMDL
MODEL 8
REMARK VINA RESULT:      -7.8      1.866      4.529
REMARK  Name = 
REMARK  2 active torsions:
REMARK  status: ('A' for Active; 'I' for Inactive)
REMARK    1  A    between atoms: O_1  and  C_2
REMARK    2  A    between atoms: C_2  and  C_3
REMARK                            x       y       z     vdW  Elec       q    Type
REMARK                         _______ _______ _______ _____ _____    ______ ____
ROOT
ATOM      1  C   UNL     1       3.635   5.433  18.508  0.00  0.00    +0.000 C 
ATOM      2  C   UNL     1       3.348   4.325  19.527  0.00  0.00    +0.000 A 
ATOM      3  C   UNL     1       3.868   3.036  19.587  0.00  0.00    +0.000 A 
ATOM      4  C   UNL     1       3.469   2.210  20.639  0.00  0.00    +0.000 A 
ATOM      5  C   UNL     1       2.555   2.666  21.603  0.00  0.00    +0.000 A 
ATOM      6  C   UNL     1       2.027   3.958  21.535  0.00  0.00    +0.000 A 
ATOM      7  C   UNL     1       2.431   4.785  20.498  0.00  0.00    +0.000 A 
ATOM      8  C   UNL     1       2.074   6.154  20.200  0.00  0.00    +0.000 A 
ATOM      9  C   UNL     1       1.210   7.017  20.858  0.00  0.00    +0.000 A 
ATOM     10  C   UNL     1       1.046   8.310  20.353  0.00  0.00    +0.000 A 
ATOM     11  C   UNL     1       1.735   8.726  19.204  0.00  0.00    +0.000 A 
ATOM     12  C   UNL     1       2.602   7.855  18.536  0.00  0.00    +0.000 A 
ATOM     13  C   UNL     1       2.772   6.574  19.044  0.00  0.00    +0.000 A 
ENDROOT
BRANCH   1  14
ATOM     14  C   UNL     1       5.111   5.794  18.338  0.00  0.00    +0.000 A 
ATOM     15  C   UNL     1       5.546   6.503  17.201  0.00  0.00    +0.000 A 
ATOM     16  C   UNL     1       6.896   6.810  17.012  0.00  0.00    +0.000 A 
ATOM     17  C   UNL     1       7.837   6.424  17.961  0.00  0.00    +0.000 A 
ATOM     18  C   UNL     1       7.427   5.753  19.110  0.00  0.00    +0.000 A 
ATOM     19  C   UNL     1       6.076   5.455  19.305  0.00  0.00    +0.000 A 
ENDBRANCH   1  14
BRANCH   1  20
ATOM     20  O   UNL     1       3.080   4.999  17.263  0.00  0.00    +0.000 OA
ATOM     21  H   UNL     1       2.326   4.434  17.497  0.00  0.00    +0.000 HD
ENDBRANCH   1  20
TORSDOF 2
ENDMDL
MODEL 9
REMARK VINA RESULT:      -7.5      1.395      5.364
REMARK  Name = 
REMARK  2 active torsions:
REMARK  status: ('A' for Active; 'I' for Inactive)
REMARK    1  A    between atoms: O_1  and  C_2
REMARK    2  A    between atoms: C_2  and  C_3
REMARK                            x       y       z     vdW  Elec       q    Type
REMARK                         _______ _______ _______ _____ _____    ______ ____
ROOT
ATOM      1  C   UNL     1       4.689   4.965  17.713  0.00  0.00    +0.000 C 
ATOM      2  C   UNL     1       3.807   6.218  17.774  0.00  0.00    +0.000 A 
ATOM      3  C   UNL     1       4.159   7.545  17.550  0.00  0.00    +0.000 A 
ATOM      4  C   UNL     1       3.160   8.517  17.638  0.00  0.00    +0.000 A 
ATOM      5  C   UNL     1       1.841   8.163  17.962  0.00  0.00    +0.000 A 
ATOM      6  C   UNL     1       1.494   6.829  18.196  0.00  0.00    +0.000 A 
ATOM      7  C   UNL     1       2.479   5.861  18.096  0.00  0.00    +0.000 A 
ATOM      8  C   UNL     1       2.401   4.426  18.257  0.00  0.00    +0.000 A 
ATOM      9  C   UNL     1       1.320   3.619  18.579  0.00  0.00    +0.000 A 
ATOM     10  C   UNL     1       1.520   2.240  18.670  0.00  0.00    +0.000 A 
ATOM     11  C   UNL     1       2.787   1.681  18.446  0.00  0.00    +0.000 A 
ATOM     12  C   UNL     1       3.880   2.493  18.127  0.00  0.00    +0.000 A 
ATOM     13  C   UNL     1       3.678   3.863  18.028  0.00  0.00    +0.000 A 
ENDROOT
BRANCH   1  14
ATOM     14  C   UNL     1       5.442   4.763  16.398  0.00  0.00    +0.000 A 
ATOM     15  C   UNL     1       6.813   5.073  16.305  0.00  0.00    +0.000 A 
ATOM     16  C   UNL     1       7.509   4.929  15.103  0.00  0.00    +0.000 A 
ATOM     17  C   UNL     1       6.850   4.462  13.969  0.00  0.00    +0.000 A 
ATOM     18  C   UNL     1       5.503   4.116  14.044  0.00  0.00    +0.000 A 
ATOM     19  C   UNL     1       4.810   4.250  15.250  0.00  0.00    +0.000 A 
ENDBRANCH   1  14
BRANCH   1  20
ATOM     20  O   UNL     1       5.606   5.055  18.806  0.00  0.00    +0.000 OA
ATOM     21  H   UNL     1       5.137   5.545  19.501  0.00  0.00    +0.000 HD
ENDBRANCH   1  20
TORSDOF 2
ENDMDL
