MODEL 1
REMARK VINA RESULT:      -8.0      0.000      0.000
REMARK  Name = 
REMARK  3 active torsions:
REMARK  status: ('A' for Active; 'I' for Inactive)
REMARK    1  A    between atoms: C_1  and  C_2
REMARK    2  A    between atoms: C_7  and  N_8
REMARK    3  A    between atoms: C_10  and  C_11
REMARK                            x       y       z     vdW  Elec       q    Type
REMARK                         _______ _______ _______ _____ _____    ______ ____
ROOT
ATOM      1  N   UNL     1       2.517   7.398  18.890  0.00  0.00    +0.000 N 
ATOM      2  N   UNL     1       3.248   7.973  17.887  0.00  0.00    +0.000 NA
ATOM      3  C   UNL     1       3.941   6.988  17.303  0.00  0.00    +0.000 A 
ATOM      4  C   UNL     1       4.857   7.308  16.177  0.00  0.00    +0.000 C 
ATOM      5  C   UNL     1       3.631   5.756  17.890  0.00  0.00    +0.000 A 
ATOM      6  C   UNL     1       3.983   4.405  17.659  0.00  0.00    +0.000 A 
ATOM      7  C   UNL     1       3.452   3.406  18.372  0.00  0.00    +0.000 A 
ATOM      8  C   UNL     1       2.493   3.648  19.386  0.00  0.00    +0.000 A 
ATOM      9  C   UNL     1       1.798   2.842  20.265  0.00  0.00    +0.000 A 
ATOM     10  C   UNL     1       0.931   3.672  21.002  0.00  0.00    +0.000 A 
ATOM     11  C   UNL     1       1.068   4.948  20.501  0.00  0.00    +0.000 A 
ATOM     12  N   UNL     1       2.100   4.980  19.591  0.00  0.00    +0.000 N 
ATOM     13  C   UNL     1       2.705   6.031  18.880  0.00  0.00    +0.000 A 
ATOM     14  C   UNL     1       3.980   2.136  17.862  0.00  0.00    +0.000 C 
ATOM     15  O   UNL     1       3.702   1.019  18.259  0.00  0.00    +0.000 OA
ATOM     16  N   UNL     1       4.823   2.454  16.856  0.00  0.00    +0.000 N 
ATOM     17  C   UNL     1       4.881   3.794  16.656  0.00  0.00    +0.000 C 
ATOM     18  O   UNL     1       5.536   4.371  15.814  0.00  0.00    +0.000 OA
ATOM     19  H   UNL     1       5.320   1.775  16.302  0.00  0.00    +0.000 HD
ENDROOT
BRANCH   1  26
ATOM     20  C   UNL     1       0.750   9.556  17.784  0.00  0.00    +0.000 C 
ATOM     21  C   UNL     1       0.856   9.204  19.245  0.00  0.00    +0.000 A 
ATOM     22  C   UNL     1      -0.005   9.861  20.145  0.00  0.00    +0.000 A 
ATOM     23  C   UNL     1      -0.005   9.554  21.506  0.00  0.00    +0.000 A 
ATOM     24  C   UNL     1       0.907   8.635  22.005  0.00  0.00    +0.000 A 
ATOM     25  C   UNL     1       1.806   8.016  21.138  0.00  0.00    +0.000 A 
ATOM     26  C   UNL     1       1.732   8.219  19.752  0.00  0.00    +0.000 A 
ENDBRANCH   1  26
TORSDOF 1
ENDMDL
MODEL 2
REMARK VINA RESULT:      -7.7      6.027      9.494
REMARK  Name = 
REMARK  3 active torsions:
REMARK  status: ('A' for Active; 'I' for Inactive)
REMARK    1  A    between atoms: C_1  and  C_2
REMARK    2  A    between atoms: C_7  and  N_8
REMARK    3  A    between atoms: C_10  and  C_11
REMARK                            x       y       z     vdW  Elec       q    Type
REMARK                         _______ _______ _______ _____ _____    ______ ____
ROOT
ATOM      1  N   UNL     1      -0.311  11.003  20.268  0.00  0.00    +0.000 N 
ATOM      2  N   UNL     1      -0.060  11.609  21.467  0.00  0.00    +0.000 NA
ATOM      3  C   UNL     1      -1.104  12.406  21.723  0.00  0.00    +0.000 A 
ATOM      4  C   UNL     1      -1.111  13.224  22.963  0.00  0.00    +0.000 C 
ATOM      5  C   UNL     1      -2.066  12.291  20.714  0.00  0.00    +0.000 A 
ATOM      6  C   UNL     1      -3.360  12.814  20.481  0.00  0.00    +0.000 A 
ATOM      7  C   UNL     1      -4.088  12.453  19.418  0.00  0.00    +0.000 A 
ATOM      8  C   UNL     1      -3.605  11.510  18.477  0.00  0.00    +0.000 A 
ATOM      9  C   UNL     1      -4.112  10.967  17.314  0.00  0.00    +0.000 A 
ATOM     10  C   UNL     1      -3.175  10.025  16.846  0.00  0.00    +0.000 A 
ATOM     11  C   UNL     1      -2.159   9.967  17.776  0.00  0.00    +0.000 A 
ATOM     12  N   UNL     1      -2.342  10.948  18.723  0.00  0.00    +0.000 N 
ATOM     13  C   UNL     1      -1.559  11.375  19.809  0.00  0.00    +0.000 A 
ATOM     14  C   UNL     1      -5.387  13.129  19.489  0.00  0.00    +0.000 C 
ATOM     15  O   UNL     1      -6.309  13.022  18.701  0.00  0.00    +0.000 OA
ATOM     16  N   UNL     1      -5.362  13.880  20.611  0.00  0.00    +0.000 N 
ATOM     17  C   UNL     1      -4.187  13.746  21.276  0.00  0.00    +0.000 C 
ATOM     18  O   UNL     1      -3.884  14.284  22.321  0.00  0.00    +0.000 OA
ATOM     19  H   UNL     1      -6.134  14.443  20.930  0.00  0.00    +0.000 HD
ENDROOT
BRANCH   1  26
ATOM     20  C   UNL     1       0.438   8.405  21.566  0.00  0.00    +0.000 C 
ATOM     21  C   UNL     1       0.998   8.898  20.257  0.00  0.00    +0.000 A 
ATOM     22  C   UNL     1       1.855   8.039  19.542  0.00  0.00    +0.000 A 
ATOM     23  C   UNL     1       2.374   8.401  18.299  0.00  0.00    +0.000 A 
ATOM     24  C   UNL     1       2.103   9.659  17.779  0.00  0.00    +0.000 A 
ATOM     25  C   UNL     1       1.303  10.545  18.499  0.00  0.00    +0.000 A 
ATOM     26  C   UNL     1       0.672  10.148  19.687  0.00  0.00    +0.000 A 
ENDBRANCH   1  26
TORSDOF 1
ENDMDL
MODEL 3
REMARK VINA RESULT:      -7.7      8.620     11.481
REMARK  Name = 
REMARK  3 active torsions:
REMARK  status: ('A' for Active; 'I' for Inactive)
REMARK    1  A    between atoms: C_1  and  C_2
REMARK    2  A    between atoms: C_7  and  N_8
REMARK    3  A    between atoms: C_10  and  C_11
REMARK                            x       y       z     vdW  Elec       q    Type
REMARK                         _______ _______ _______ _____ _____    ______ ____
ROOT
ATOM      1  N   UNL     1      -3.592  12.140  19.329  0.00  0.00    +0.000 N 
ATOM      2  N   UNL     1      -2.528  12.920  19.686  0.00  0.00    +0.000 NA
ATOM      3  C   UNL     1      -2.891  13.585  20.789  0.00  0.00    +0.000 A 
ATOM      4  C   UNL     1      -1.940  14.543  21.411  0.00  0.00    +0.000 C 
ATOM      5  C   UNL     1      -4.179  13.208  21.186  0.00  0.00    +0.000 A 
ATOM      6  C   UNL     1      -5.034  13.508  22.273  0.00  0.00    +0.000 A 
ATOM      7  C   UNL     1      -6.225  12.916  22.419  0.00  0.00    +0.000 A 
ATOM      8  C   UNL     1      -6.685  11.942  21.498  0.00  0.00    +0.000 A 
ATOM      9  C   UNL     1      -7.837  11.191  21.389  0.00  0.00    +0.000 A 
ATOM     10  C   UNL     1      -7.682  10.341  20.276  0.00  0.00    +0.000 A 
ATOM     11  C   UNL     1      -6.412  10.546  19.783  0.00  0.00    +0.000 A 
ATOM     12  N   UNL     1      -5.824  11.602  20.442  0.00  0.00    +0.000 N 
ATOM     13  C   UNL     1      -4.601  12.269  20.262  0.00  0.00    +0.000 A 
ATOM     14  C   UNL     1      -6.840  13.402  23.658  0.00  0.00    +0.000 C 
ATOM     15  O   UNL     1      -7.916  13.066  24.118  0.00  0.00    +0.000 OA
ATOM     16  N   UNL     1      -5.968  14.284  24.193  0.00  0.00    +0.000 N 
ATOM     17  C   UNL     1      -4.851  14.404  23.434  0.00  0.00    +0.000 C 
ATOM     18  O   UNL     1      -3.888  15.105  23.671  0.00  0.00    +0.000 OA
ATOM     19  H   UNL     1      -6.118  14.766  25.064  0.00  0.00    +0.000 HD
ENDROOT
BRANCH   1  26
ATOM     20  C   UNL     1      -5.535  12.606  17.091  0.00  0.00    +0.000 C 
ATOM     21  C   UNL     1      -4.405  11.611  17.047  0.00  0.00    +0.000 A 
ATOM     22  C   UNL     1      -4.181  10.922  15.839  0.00  0.00    +0.000 A 
ATOM     23  C   UNL     1      -3.124  10.022  15.702  0.00  0.00    +0.000 A 
ATOM     24  C   UNL     1      -2.314   9.740  16.792  0.00  0.00    +0.000 A 
ATOM     25  C   UNL     1      -2.556  10.369  18.012  0.00  0.00    +0.000 A 
ATOM     26  C   UNL     1      -3.532  11.369  18.130  0.00  0.00    +0.000 A 
ENDBRANCH   1  26
TORSDOF 1
ENDMDL
MODEL 4
REMARK VINA RESULT:      -7.6      7.151     10.015
REMARK  Name = 
REMARK  3 active torsions:
REMARK  status: ('A' for Active; 'I' for Inactive)
REMARK    1  A    between atoms: C_1  and  C_2
REMARK    2  A    between atoms: C_7  and  N_8
REMARK    3  A    between atoms: C_10  and  C_11
REMARK                            x       y       z     vdW  Elec       q    Type
REMARK                         _______ _______ _______ _____ _____    ______ ____
ROOT
ATOM      1  N   UNL     1      -1.149  12.440  20.083  0.00  0.00    +0.000 N 
ATOM      2  N   UNL     1      -1.279  12.722  21.414  0.00  0.00    +0.000 NA
ATOM      3  C   UNL     1      -2.591  12.740  21.677  0.00  0.00    +0.000 A 
ATOM      4  C   UNL     1      -3.056  13.044  23.055  0.00  0.00    +0.000 C 
ATOM      5  C   UNL     1      -3.326  12.423  20.529  0.00  0.00    +0.000 A 
ATOM      6  C   UNL     1      -4.693  12.227  20.220  0.00  0.00    +0.000 A 
ATOM      7  C   UNL     1      -5.094  11.852  19.000  0.00  0.00    +0.000 A 
ATOM      8  C   UNL     1      -4.167  11.614  17.956  0.00  0.00    +0.000 A 
ATOM      9  C   UNL     1      -4.284  11.238  16.633  0.00  0.00    +0.000 A 
ATOM     10  C   UNL     1      -2.980  11.107  16.116  0.00  0.00    +0.000 A 
ATOM     11  C   UNL     1      -2.106  11.335  17.157  0.00  0.00    +0.000 A 
ATOM     12  N   UNL     1      -2.805  11.760  18.264  0.00  0.00    +0.000 N 
ATOM     13  C   UNL     1      -2.392  12.210  19.529  0.00  0.00    +0.000 A 
ATOM     14  C   UNL     1      -6.552  11.691  19.017  0.00  0.00    +0.000 C 
ATOM     15  O   UNL     1      -7.257  11.341  18.089  0.00  0.00    +0.000 OA
ATOM     16  N   UNL     1      -6.951  11.992  20.272  0.00  0.00    +0.000 N 
ATOM     17  C   UNL     1      -5.901  12.317  21.066  0.00  0.00    +0.000 C 
ATOM     18  O   UNL     1      -5.950  12.614  22.242  0.00  0.00    +0.000 OA
ATOM     19  H   UNL     1      -7.907  11.948  20.584  0.00  0.00    +0.000 HD
ENDROOT
BRANCH   1  26
ATOM     20  C   UNL     1       0.365   9.879  19.696  0.00  0.00    +0.000 C 
ATOM     21  C   UNL     1       0.849  11.233  19.248  0.00  0.00    +0.000 A 
ATOM     22  C   UNL     1       2.046  11.293  18.508  0.00  0.00    +0.000 A 
ATOM     23  C   UNL     1       2.534  12.502  18.013  0.00  0.00    +0.000 A 
ATOM     24  C   UNL     1       1.873  13.685  18.310  0.00  0.00    +0.000 A 
ATOM     25  C   UNL     1       0.718  13.652  19.089  0.00  0.00    +0.000 A 
ATOM     26  C   UNL     1       0.146  12.435  19.485  0.00  0.00    +0.000 A 
ENDBRANCH   1  26
TORSDOF 1
ENDMDL
MODEL 5
REMARK VINA RESULT:      -7.5      7.736     10.378
REMARK  Name = 
REMARK  3 active torsions:
REMARK  status: ('A' for Active; 'I' for Inactive)
REMARK    1  A    between atoms: C_1  and  C_2
REMARK    2  A    between atoms: C_7  and  N_8
REMARK    3  A    between atoms: C_10  and  C_11
REMARK                            x       y       z     vdW  Elec       q    Type
REMARK                         _______ _______ _______ _____ _____    ______ ____
ROOT
ATOM      1  N   UNL     1      -4.368  13.217  21.758  0.00  0.00    +0.000 N 
ATOM      2  N   UNL     1      -3.079  13.263  22.210  0.00  0.00    +0.000 NA
ATOM      3  C   UNL     1      -2.316  12.726  21.251  0.00  0.00    +0.000 A 
ATOM      4  C   UNL     1      -0.849  12.615  21.462  0.00  0.00    +0.000 C 
ATOM      5  C   UNL     1      -3.096  12.368  20.146  0.00  0.00    +0.000 A 
ATOM      6  C   UNL     1      -2.848  11.841  18.857  0.00  0.00    +0.000 A 
ATOM      7  C   UNL     1      -3.831  11.664  17.966  0.00  0.00    +0.000 A 
ATOM      8  C   UNL     1      -5.171  12.014  18.262  0.00  0.00    +0.000 A 
ATOM      9  C   UNL     1      -6.361  11.939  17.567  0.00  0.00    +0.000 A 
ATOM     10  C   UNL     1      -7.361  12.504  18.382  0.00  0.00    +0.000 A 
ATOM     11  C   UNL     1      -6.741  12.972  19.520  0.00  0.00    +0.000 A 
ATOM     12  N   UNL     1      -5.421  12.582  19.522  0.00  0.00    +0.000 N 
ATOM     13  C   UNL     1      -4.396  12.711  20.474  0.00  0.00    +0.000 A 
ATOM     14  C   UNL     1      -3.247  11.151  16.722  0.00  0.00    +0.000 C 
ATOM     15  O   UNL     1      -3.840  10.893  15.691  0.00  0.00    +0.000 OA
ATOM     16  N   UNL     1      -1.919  11.040  16.945  0.00  0.00    +0.000 N 
ATOM     17  C   UNL     1      -1.588  11.441  18.197  0.00  0.00    +0.000 C 
ATOM     18  O   UNL     1      -0.472  11.470  18.675  0.00  0.00    +0.000 OA
ATOM     19  H   UNL     1      -1.256  10.729  16.254  0.00  0.00    +0.000 HD
ENDROOT
BRANCH   1  26
ATOM     20  C   UNL     1      -5.374  16.042  21.660  0.00  0.00    +0.000 C 
ATOM     21  C   UNL     1      -5.951  14.960  22.536  0.00  0.00    +0.000 A 
ATOM     22  C   UNL     1      -7.104  15.264  23.286  0.00  0.00    +0.000 A 
ATOM     23  C   UNL     1      -7.728  14.302  24.081  0.00  0.00    +0.000 A 
ATOM     24  C   UNL     1      -7.170  13.037  24.197  0.00  0.00    +0.000 A 
ATOM     25  C   UNL     1      -5.997  12.735  23.507  0.00  0.00    +0.000 A 
ATOM     26  C   UNL     1      -5.431  13.649  22.606  0.00  0.00    +0.000 A 
ENDBRANCH   1  26
TORSDOF 1
ENDMDL
MODEL 6
REMARK VINA RESULT:      -7.4      7.123     10.022
REMARK  Name = 
REMARK  3 active torsions:
REMARK  status: ('A' for Active; 'I' for Inactive)
REMARK    1  A    between atoms: C_1  and  C_2
REMARK    2  A    between atoms: C_7  and  N_8
REMARK    3  A    between atoms: C_10  and  C_11
REMARK                            x       y       z     vdW  Elec       q    Type
REMARK                         _______ _______ _______ _____ _____    ______ ____
ROOT
ATOM      1  N   UNL     1      -5.433  12.938  20.868  0.00  0.00    +0.000 N 
ATOM      2  N   UNL     1      -6.143  12.713  19.722  0.00  0.00    +0.000 NA
ATOM      3  C   UNL     1      -5.261  12.329  18.792  0.00  0.00    +0.000 A 
ATOM      4  C   UNL     1      -5.734  12.030  17.416  0.00  0.00    +0.000 C 
ATOM      5  C   UNL     1      -3.975  12.255  19.338  0.00  0.00    +0.000 A 
ATOM      6  C   UNL     1      -2.698  11.856  18.877  0.00  0.00    +0.000 A 
ATOM      7  C   UNL     1      -1.631  11.832  19.684  0.00  0.00    +0.000 A 
ATOM      8  C   UNL     1      -1.730  12.188  21.052  0.00  0.00    +0.000 A 
ATOM      9  C   UNL     1      -0.827  12.266  22.093  0.00  0.00    +0.000 A 
ATOM     10  C   UNL     1      -1.547  12.631  23.248  0.00  0.00    +0.000 A 
ATOM     11  C   UNL     1      -2.877  12.694  22.894  0.00  0.00    +0.000 A 
ATOM     12  N   UNL     1      -3.002  12.540  21.532  0.00  0.00    +0.000 N 
ATOM     13  C   UNL     1      -4.106  12.621  20.666  0.00  0.00    +0.000 A 
ATOM     14  C   UNL     1      -0.481  11.332  18.924  0.00  0.00    +0.000 C 
ATOM     15  O   UNL     1       0.650  11.160  19.342  0.00  0.00    +0.000 OA
ATOM     16  N   UNL     1      -0.931  11.087  17.674  0.00  0.00    +0.000 N 
ATOM     17  C   UNL     1      -2.253  11.364  17.556  0.00  0.00    +0.000 C 
ATOM     18  O   UNL     1      -2.934  11.225  16.561  0.00  0.00    +0.000 OA
ATOM     19  H   UNL     1      -0.360  10.714  16.933  0.00  0.00    +0.000 HD
ENDROOT
BRANCH   1  26
ATOM     20  C   UNL     1      -5.433  15.872  21.496  0.00  0.00    +0.000 C 
ATOM     21  C   UNL     1      -6.153  14.826  22.306  0.00  0.00    +0.000 A 
ATOM     22  C   UNL     1      -6.964  15.261  23.372  0.00  0.00    +0.000 A 
ATOM     23  C   UNL     1      -7.703  14.360  24.137  0.00  0.00    +0.000 A 
ATOM     24  C   UNL     1      -7.590  12.997  23.897  0.00  0.00    +0.000 A 
ATOM     25  C   UNL     1      -6.748  12.544  22.883  0.00  0.00    +0.000 A 
ATOM     26  C   UNL     1      -6.099  13.443  22.025  0.00  0.00    +0.000 A 
ENDBRANCH   1  26
TORSDOF 1
ENDMDL
MODEL 7
REMARK VINA RESULT:      -7.4      2.419      6.519
REMARK  Name = 
REMARK  3 active torsions:
REMARK  status: ('A' for Active; 'I' for Inactive)
REMARK    1  A    between atoms: C_1  and  C_2
REMARK    2  A    between atoms: C_7  and  N_8
REMARK    3  A    between atoms: C_10  and  C_11
REMARK                            x       y       z     vdW  Elec       q    Type
REMARK                         _______ _______ _______ _____ _____    ______ ____
ROOT
ATOM      1  N   UNL     1       4.787   3.841  16.640  0.00  0.00    +0.000 N 
ATOM      2  N   UNL     1       4.672   2.509  16.924  0.00  0.00    +0.000 NA
ATOM      3  C   UNL     1       3.920   2.414  18.027  0.00  0.00    +0.000 A 
ATOM      4  C   UNL     1       3.633   1.075  18.603  0.00  0.00    +0.000 C 
ATOM      5  C   UNL     1       3.499   3.682  18.444  0.00  0.00    +0.000 A 
ATOM      6  C   UNL     1       2.660   4.189  19.465  0.00  0.00    +0.000 A 
ATOM      7  C   UNL     1       2.387   5.494  19.571  0.00  0.00    +0.000 A 
ATOM      8  C   UNL     1       2.911   6.437  18.653  0.00  0.00    +0.000 A 
ATOM      9  C   UNL     1       2.813   7.808  18.521  0.00  0.00    +0.000 A 
ATOM     10  C   UNL     1       3.521   8.170  17.358  0.00  0.00    +0.000 A 
ATOM     11  C   UNL     1       3.967   7.005  16.775  0.00  0.00    +0.000 A 
ATOM     12  N   UNL     1       3.707   5.941  17.608  0.00  0.00    +0.000 N 
ATOM     13  C   UNL     1       4.038   4.577  17.536  0.00  0.00    +0.000 A 
ATOM     14  C   UNL     1       1.460   5.688  20.691  0.00  0.00    +0.000 C 
ATOM     15  O   UNL     1       0.982   6.742  21.067  0.00  0.00    +0.000 OA
ATOM     16  N   UNL     1       1.231   4.461  21.209  0.00  0.00    +0.000 N 
ATOM     17  C   UNL     1       1.903   3.499  20.530  0.00  0.00    +0.000 C 
ATOM     18  O   UNL     1       1.877   2.306  20.753  0.00  0.00    +0.000 OA
ATOM     19  H   UNL     1       0.612   4.284  21.982  0.00  0.00    +0.000 HD
ENDROOT
BRANCH   1  26
ATOM     20  C   UNL     1       7.300   5.408  17.119  0.00  0.00    +0.000 C 
ATOM     21  C   UNL     1       6.821   4.956  15.764  0.00  0.00    +0.000 A 
ATOM     22  C   UNL     1       7.657   5.195  14.656  0.00  0.00    +0.000 A 
ATOM     23  C   UNL     1       7.309   4.762  13.377  0.00  0.00    +0.000 A 
ATOM     24  C   UNL     1       6.084   4.144  13.168  0.00  0.00    +0.000 A 
ATOM     25  C   UNL     1       5.218   3.949  14.243  0.00  0.00    +0.000 A 
ATOM     26  C   UNL     1       5.608   4.263  15.553  0.00  0.00    +0.000 A 
ENDBRANCH   1  26
TORSDOF 1
ENDMDL
MODEL 8
REMARK VINA RESULT:      -7.4      9.120     11.101
REMARK  Name = 
REMARK  3 active torsions:
REMARK  status: ('A' for Active; 'I' for Inactive)
REMARK    1  A    between atoms: C_1  and  C_2
REMARK    2  A    between atoms: C_7  and  N_8
REMARK    3  A    between atoms: C_10  and  C_11
REMARK                            x       y       z     vdW  Elec       q    Type
REMARK                         _______ _______ _______ _____ _____    ______ ____
ROOT
ATOM      1  N   UNL     1       8.288  14.343  21.478  0.00  0.00    +0.000 N 
ATOM      2  N   UNL     1       8.074  15.693  21.498  0.00  0.00    +0.000 NA
ATOM      3  C   UNL     1       8.714  16.200  20.438  0.00  0.00    +0.000 A 
ATOM      4  C   UNL     1       8.685  17.666  20.200  0.00  0.00    +0.000 C 
ATOM      5  C   UNL     1       9.311  15.178  19.691  0.00  0.00    +0.000 A 
ATOM      6  C   UNL     1      10.034  15.098  18.477  0.00  0.00    +0.000 A 
ATOM      7  C   UNL     1      10.429  13.926  17.967  0.00  0.00    +0.000 A 
ATOM      8  C   UNL     1      10.128  12.700  18.610  0.00  0.00    +0.000 A 
ATOM      9  C   UNL     1      10.404  11.376  18.333  0.00  0.00    +0.000 A 
ATOM     10  C   UNL     1       9.779  10.598  19.328  0.00  0.00    +0.000 A 
ATOM     11  C   UNL     1       9.080  11.465  20.140  0.00  0.00    +0.000 A 
ATOM     12  N   UNL     1       9.370  12.764  19.790  0.00  0.00    +0.000 N 
ATOM     13  C   UNL     1       9.008  14.000  20.352  0.00  0.00    +0.000 A 
ATOM     14  C   UNL     1      11.107  14.176  16.691  0.00  0.00    +0.000 C 
ATOM     15  O   UNL     1      11.580  13.342  15.941  0.00  0.00    +0.000 OA
ATOM     16  N   UNL     1      11.085  15.514  16.507  0.00  0.00    +0.000 N 
ATOM     17  C   UNL     1      10.452  16.148  17.525  0.00  0.00    +0.000 C 
ATOM     18  O   UNL     1      10.263  17.343  17.626  0.00  0.00    +0.000 OA
ATOM     19  H   UNL     1      11.463  15.977  15.697  0.00  0.00    +0.000 HD
ENDROOT
BRANCH   1  26
ATOM     20  C   UNL     1       5.341  14.089  21.983  0.00  0.00    +0.000 C 
ATOM     21  C   UNL     1       6.407  13.360  22.760  0.00  0.00    +0.000 A 
ATOM     22  C   UNL     1       5.993  12.419  23.722  0.00  0.00    +0.000 A 
ATOM     23  C   UNL     1       6.917  11.666  24.447  0.00  0.00    +0.000 A 
ATOM     24  C   UNL     1       8.275  11.892  24.274  0.00  0.00    +0.000 A 
ATOM     25  C   UNL     1       8.704  12.860  23.367  0.00  0.00    +0.000 A 
ATOM     26  C   UNL     1       7.791  13.532  22.541  0.00  0.00    +0.000 A 
ENDBRANCH   1  26
TORSDOF 1
ENDMDL
MODEL 9
REMARK VINA RESULT:      -7.4      7.288     10.292
REMARK  Name = 
REMARK  3 active torsions:
REMARK  status: ('A' for Active; 'I' for Inactive)
REMARK    1  A    between atoms: C_1  and  C_2
REMARK    2  A    between atoms: C_7  and  N_8
REMARK    3  A    between atoms: C_10  and  C_11
REMARK                            x       y       z     vdW  Elec       q    Type
REMARK                         _______ _______ _______ _____ _____    ______ ____
ROOT
ATOM      1  N   UNL     1      -1.946  12.198  18.707  0.00  0.00    +0.000 N 
ATOM      2  N   UNL     1      -2.404  11.769  17.492  0.00  0.00    +0.000 NA
ATOM      3  C   UNL     1      -3.715  11.543  17.633  0.00  0.00    +0.000 A 
ATOM      4  C   UNL     1      -4.498  11.041  16.474  0.00  0.00    +0.000 C 
ATOM      5  C   UNL     1      -4.132  11.868  18.929  0.00  0.00    +0.000 A 
ATOM      6  C   UNL     1      -5.367  11.903  19.618  0.00  0.00    +0.000 A 
ATOM      7  C   UNL     1      -5.459  12.339  20.880  0.00  0.00    +0.000 A 
ATOM      8  C   UNL     1      -4.323  12.807  21.586  0.00  0.00    +0.000 A 
ATOM      9  C   UNL     1      -4.117  13.294  22.861  0.00  0.00    +0.000 A 
ATOM     10  C   UNL     1      -2.759  13.655  22.959  0.00  0.00    +0.000 A 
ATOM     11  C   UNL     1      -2.194  13.448  21.719  0.00  0.00    +0.000 A 
ATOM     12  N   UNL     1      -3.101  12.821  20.896  0.00  0.00    +0.000 N 
ATOM     13  C   UNL     1      -3.000  12.307  19.592  0.00  0.00    +0.000 A 
ATOM     14  C   UNL     1      -6.867  12.295  21.288  0.00  0.00    +0.000 C 
ATOM     15  O   UNL     1      -7.325  12.636  22.364  0.00  0.00    +0.000 OA
ATOM     16  N   UNL     1      -7.554  11.817  20.228  0.00  0.00    +0.000 N 
ATOM     17  C   UNL     1      -6.736  11.563  19.177  0.00  0.00    +0.000 C 
ATOM     18  O   UNL     1      -7.070  11.146  18.087  0.00  0.00    +0.000 OA
ATOM     19  H   UNL     1      -8.553  11.698  20.212  0.00  0.00    +0.000 HD
ENDROOT
BRANCH   1  26
ATOM     20  C   UNL     1      -0.101  10.017  19.623  0.00  0.00    +0.000 C 
ATOM     21  C   UNL     1       0.338  11.414  19.271  0.00  0.00    +0.000 A 
ATOM     22  C   UNL     1       1.718  11.692  19.274  0.00  0.00    +0.000 A 
ATOM     23  C   UNL     1       2.208  12.946  18.910  0.00  0.00    +0.000 A 
ATOM     24  C   UNL     1       1.322  13.969  18.605  0.00  0.00    +0.000 A 
ATOM     25  C   UNL     1      -0.051  13.730  18.652  0.00  0.00    +0.000 A 
ATOM     26  C   UNL     1      -0.553  12.442  18.891  0.00  0.00    +0.000 A 
ENDBRANCH   1  26
TORSDOF 1
ENDMDL
