MODEL 1
REMARK VINA RESULT:      -8.0      0.000      0.000
REMARK  Name = 
REMARK  4 active torsions:
REMARK  status: ('A' for Active; 'I' for Inactive)
REMARK    1  A    between atoms: C_14  and  C_15
REMARK    2  A    between atoms: N_28  and  C_29
REMARK    3  A    between atoms: C_29  and  C_30
REMARK    4  A    between atoms: C_30  and  N_31
REMARK                            x       y       z     vdW  Elec       q    Type
REMARK                         _______ _______ _______ _____ _____    ______ ____
ROOT
ATOM      1  O   UNL     1       2.584  11.638  17.832  0.00  0.00    +0.000 OA
ATOM      2  C   UNL     1       1.661  11.313  18.590  0.00  0.00    +0.000 C 
ATOM      3  C   UNL     1       1.020  12.366  19.499  0.00  0.00    +0.000 C 
ATOM      4  C   UNL     1       0.775  13.604  18.595  0.00  0.00    +0.000 C 
ATOM      5  C   UNL     1      -0.054  14.618  19.289  0.00  0.00    +0.000 A 
ATOM      6  C   UNL     1      -0.702  14.328  20.468  0.00  0.00    +0.000 A 
ATOM      7  N   UNL     1      -1.390  15.444  20.859  0.00  0.00    +0.000 N 
ATOM      8  C   UNL     1      -1.260  16.426  19.906  0.00  0.00    +0.000 A 
ATOM      9  C   UNL     1      -1.839  17.694  19.846  0.00  0.00    +0.000 A 
ATOM     10  C   UNL     1      -1.550  18.484  18.726  0.00  0.00    +0.000 A 
ATOM     11  C   UNL     1      -0.696  18.028  17.722  0.00  0.00    +0.000 A 
ATOM     12  C   UNL     1      -0.113  16.757  17.803  0.00  0.00    +0.000 A 
ATOM     13  C   UNL     1      -0.409  15.939  18.909  0.00  0.00    +0.000 A 
ATOM     14  C   UNL     1      -0.678  13.027  21.206  0.00  0.00    +0.000 C 
ATOM     15  N   UNL     1      -0.169  11.972  20.283  0.00  0.00    +0.000 N 
ATOM     16  C   UNL     1      -0.145  10.652  20.756  0.00  0.00    +0.000 C 
ATOM     17  O   UNL     1      -0.598  10.287  21.839  0.00  0.00    +0.000 OA
ATOM     18  C   UNL     1       0.308   9.596  19.742  0.00  0.00    +0.000 C 
ATOM     19  N   UNL     1       1.303   9.996  18.761  0.00  0.00    +0.000 N 
ATOM     20  H   UNL     1      -1.969  15.521  21.685  0.00  0.00    +0.000 HD
ENDROOT
BRANCH  14  21
ATOM     21  C   UNL     1      -2.028  12.704  21.822  0.00  0.00    +0.000 A 
ATOM     22  C   UNL     1      -2.218  12.657  23.226  0.00  0.00    +0.000 A 
ATOM     23  C   UNL     1      -3.507  12.675  23.767  0.00  0.00    +0.000 A 
ATOM     24  C   UNL     1      -4.557  12.776  22.882  0.00  0.00    +0.000 A 
ATOM     25  C   UNL     1      -4.375  12.718  21.519  0.00  0.00    +0.000 A 
ATOM     26  C   UNL     1      -3.131  12.623  20.956  0.00  0.00    +0.000 A 
ATOM     27  O   UNL     1      -5.530  12.931  20.829  0.00  0.00    +0.000 OA
ATOM     28  C   UNL     1      -6.318  13.488  21.899  0.00  0.00    +0.000 C 
ATOM     29  O   UNL     1      -5.853  13.060  23.198  0.00  0.00    +0.000 OA
ENDBRANCH  14  21
BRANCH  19  30
ATOM     30  C   UNL     1       2.126   8.992  18.089  0.00  0.00    +0.000 C 
BRANCH  30  31
ATOM     31  C   UNL     1       2.405   7.643  18.781  0.00  0.00    +0.000 C 
BRANCH  31  32
ATOM     32  N   UNL     1       2.775   6.498  17.928  0.00  0.00    +0.000 NA
ATOM     33  C   UNL     1       4.226   6.194  17.919  0.00  0.00    +0.000 C 
ATOM     34  C   UNL     1       4.759   5.556  19.217  0.00  0.00    +0.000 C 
ATOM     35  O   UNL     1       4.010   4.391  19.588  0.00  0.00    +0.000 OA
ATOM     36  C   UNL     1       2.615   4.689  19.698  0.00  0.00    +0.000 C 
ATOM     37  C   UNL     1       2.068   5.273  18.381  0.00  0.00    +0.000 C 
ENDBRANCH  31  32
ENDBRANCH  30  31
ENDBRANCH  19  30
TORSDOF 4
ENDMDL
MODEL 2
REMARK VINA RESULT:      -7.4      4.096      6.776
REMARK  Name = 
REMARK  4 active torsions:
REMARK  status: ('A' for Active; 'I' for Inactive)
REMARK    1  A    between atoms: C_14  and  C_15
REMARK    2  A    between atoms: N_28  and  C_29
REMARK    3  A    between atoms: C_29  and  C_30
REMARK    4  A    between atoms: C_30  and  N_31
REMARK                            x       y       z     vdW  Elec       q    Type
REMARK                         _______ _______ _______ _____ _____    ______ ____
ROOT
ATOM      1  O   UNL     1       3.236  16.387  21.392  0.00  0.00    +0.000 OA
ATOM      2  C   UNL     1       2.888  15.606  20.499  0.00  0.00    +0.000 C 
ATOM      3  C   UNL     1       2.059  14.367  20.855  0.00  0.00    +0.000 C 
ATOM      4  C   UNL     1       0.946  14.872  21.813  0.00  0.00    +0.000 C 
ATOM      5  C   UNL     1      -0.069  13.820  22.055  0.00  0.00    +0.000 A 
ATOM      6  C   UNL     1      -0.103  12.670  21.299  0.00  0.00    +0.000 A 
ATOM      7  N   UNL     1      -1.145  11.902  21.741  0.00  0.00    +0.000 N 
ATOM      8  C   UNL     1      -1.835  12.577  22.719  0.00  0.00    +0.000 A 
ATOM      9  C   UNL     1      -2.997  12.217  23.402  0.00  0.00    +0.000 A 
ATOM     10  C   UNL     1      -3.503  13.126  24.340  0.00  0.00    +0.000 A 
ATOM     11  C   UNL     1      -2.855  14.333  24.599  0.00  0.00    +0.000 A 
ATOM     12  C   UNL     1      -1.682  14.674  23.913  0.00  0.00    +0.000 A 
ATOM     13  C   UNL     1      -1.170  13.785  22.950  0.00  0.00    +0.000 A 
ATOM     14  C   UNL     1       0.823  12.306  20.181  0.00  0.00    +0.000 C 
ATOM     15  N   UNL     1       1.544  13.537  19.747  0.00  0.00    +0.000 N 
ATOM     16  C   UNL     1       2.406  13.430  18.646  0.00  0.00    +0.000 C 
ATOM     17  O   UNL     1       2.542  12.422  17.957  0.00  0.00    +0.000 OA
ATOM     18  C   UNL     1       3.058  14.740  18.190  0.00  0.00    +0.000 C 
ATOM     19  N   UNL     1       3.362  15.727  19.214  0.00  0.00    +0.000 N 
ATOM     20  H   UNL     1      -1.419  11.004  21.363  0.00  0.00    +0.000 HD
ENDROOT
BRANCH  14  21
ATOM     21  C   UNL     1       0.094  11.592  19.056  0.00  0.00    +0.000 A 
ATOM     22  C   UNL     1       0.411  10.261  18.684  0.00  0.00    +0.000 A 
ATOM     23  C   UNL     1      -0.464   9.523  17.882  0.00  0.00    +0.000 A 
ATOM     24  C   UNL     1      -1.640  10.134  17.510  0.00  0.00    +0.000 A 
ATOM     25  C   UNL     1      -1.898  11.458  17.785  0.00  0.00    +0.000 A 
ATOM     26  C   UNL     1      -1.028  12.233  18.504  0.00  0.00    +0.000 A 
ATOM     27  O   UNL     1      -3.153  11.833  17.414  0.00  0.00    +0.000 OA
ATOM     28  C   UNL     1      -3.727  10.523  17.245  0.00  0.00    +0.000 C 
ATOM     29  O   UNL     1      -2.726   9.523  16.954  0.00  0.00    +0.000 OA
ENDBRANCH  14  21
BRANCH  19  30
ATOM     30  C   UNL     1       4.374  16.754  18.974  0.00  0.00    +0.000 C 
BRANCH  30  31
ATOM     31  C   UNL     1       5.842  16.487  19.358  0.00  0.00    +0.000 C 
BRANCH  31  32
ATOM     32  N   UNL     1       6.350  15.110  19.212  0.00  0.00    +0.000 NA
ATOM     33  C   UNL     1       7.114  14.876  17.964  0.00  0.00    +0.000 C 
ATOM     34  C   UNL     1       8.512  15.524  17.931  0.00  0.00    +0.000 C 
ATOM     35  O   UNL     1       9.300  15.157  19.071  0.00  0.00    +0.000 OA
ATOM     36  C   UNL     1       8.618  15.467  20.291  0.00  0.00    +0.000 C 
ATOM     37  C   UNL     1       7.244  14.771  20.349  0.00  0.00    +0.000 C 
ENDBRANCH  31  32
ENDBRANCH  30  31
ENDBRANCH  19  30
TORSDOF 4
ENDMDL
MODEL 3
REMARK VINA RESULT:      -7.4      2.682      3.695
REMARK  Name = 
REMARK  4 active torsions:
REMARK  status: ('A' for Active; 'I' for Inactive)
REMARK    1  A    between atoms: C_14  and  C_15
REMARK    2  A    between atoms: N_28  and  C_29
REMARK    3  A    between atoms: C_29  and  C_30
REMARK    4  A    between atoms: C_30  and  N_31
REMARK                            x       y       z     vdW  Elec       q    Type
REMARK                         _______ _______ _______ _____ _____    ______ ____
ROOT
ATOM      1  O   UNL     1       0.059   9.315  17.199  0.00  0.00    +0.000 OA
ATOM      2  C   UNL     1       0.130   9.787  18.340  0.00  0.00    +0.000 C 
ATOM      3  C   UNL     1      -0.736  10.994  18.718  0.00  0.00    +0.000 C 
ATOM      4  C   UNL     1      -2.158  10.668  18.186  0.00  0.00    +0.000 C 
ATOM      5  C   UNL     1      -3.153  11.646  18.685  0.00  0.00    +0.000 A 
ATOM      6  C   UNL     1      -2.840  12.538  19.686  0.00  0.00    +0.000 A 
ATOM      7  N   UNL     1      -3.950  13.297  19.939  0.00  0.00    +0.000 N 
ATOM      8  C   UNL     1      -5.000  12.852  19.171  0.00  0.00    +0.000 A 
ATOM      9  C   UNL     1      -6.329  13.276  19.146  0.00  0.00    +0.000 A 
ATOM     10  C   UNL     1      -7.202  12.613  18.273  0.00  0.00    +0.000 A 
ATOM     11  C   UNL     1      -6.751  11.588  17.442  0.00  0.00    +0.000 A 
ATOM     12  C   UNL     1      -5.410  11.184  17.470  0.00  0.00    +0.000 A 
ATOM     13  C   UNL     1      -4.523  11.820  18.358  0.00  0.00    +0.000 A 
ATOM     14  C   UNL     1      -1.527  12.668  20.391  0.00  0.00    +0.000 C 
ATOM     15  N   UNL     1      -0.727  11.438  20.127  0.00  0.00    +0.000 N 
ATOM     16  C   UNL     1       0.514  11.321  20.768  0.00  0.00    +0.000 C 
ATOM     17  O   UNL     1       0.950  12.111  21.602  0.00  0.00    +0.000 OA
ATOM     18  C   UNL     1       1.259  10.003  20.528  0.00  0.00    +0.000 C 
ATOM     19  N   UNL     1       1.087   9.365  19.233  0.00  0.00    +0.000 N 
ATOM     20  H   UNL     1      -4.019  14.028  20.635  0.00  0.00    +0.000 HD
ENDROOT
BRANCH  14  21
ATOM     21  C   UNL     1      -1.709  12.977  21.867  0.00  0.00    +0.000 A 
ATOM     22  C   UNL     1      -1.257  14.193  22.439  0.00  0.00    +0.000 A 
ATOM     23  C   UNL     1      -1.706  14.592  23.701  0.00  0.00    +0.000 A 
ATOM     24  C   UNL     1      -2.620  13.776  24.328  0.00  0.00    +0.000 A 
ATOM     25  C   UNL     1      -2.979  12.548  23.817  0.00  0.00    +0.000 A 
ATOM     26  C   UNL     1      -2.498  12.092  22.620  0.00  0.00    +0.000 A 
ATOM     27  O   UNL     1      -3.962  11.949  24.544  0.00  0.00    +0.000 OA
ATOM     28  C   UNL     1      -4.403  13.096  25.295  0.00  0.00    +0.000 C 
ATOM     29  O   UNL     1      -3.366  14.093  25.425  0.00  0.00    +0.000 OA
ENDBRANCH  14  21
BRANCH  19  30
ATOM     30  C   UNL     1       2.079   8.410  18.741  0.00  0.00    +0.000 C 
BRANCH  30  31
ATOM     31  C   UNL     1       2.217   7.033  19.418  0.00  0.00    +0.000 C 
BRANCH  31  32
ATOM     32  N   UNL     1       3.125   6.051  18.796  0.00  0.00    +0.000 NA
ATOM     33  C   UNL     1       3.796   5.150  19.763  0.00  0.00    +0.000 C 
ATOM     34  C   UNL     1       2.880   4.084  20.394  0.00  0.00    +0.000 C 
ATOM     35  O   UNL     1       2.186   3.317  19.401  0.00  0.00    +0.000 OA
ATOM     36  C   UNL     1       1.450   4.167  18.515  0.00  0.00    +0.000 C 
ATOM     37  C   UNL     1       2.377   5.196  17.839  0.00  0.00    +0.000 C 
ENDBRANCH  31  32
ENDBRANCH  30  31
ENDBRANCH  19  30
TORSDOF 4
ENDMDL
MODEL 4
REMARK VINA RESULT:      -7.3      2.690      3.659
REMARK  Name = 
REMARK  4 active torsions:
REMARK  status: ('A' for Active; 'I' for Inactive)
REMARK    1  A    between atoms: C_14  and  C_15
REMARK    2  A    between atoms: N_28  and  C_29
REMARK    3  A    between atoms: C_29  and  C_30
REMARK    4  A    between atoms: C_30  and  N_31
REMARK                            x       y       z     vdW  Elec       q    Type
REMARK                         _______ _______ _______ _____ _____    ______ ____
ROOT
ATOM      1  O   UNL     1       0.036   9.299  17.237  0.00  0.00    +0.000 OA
ATOM      2  C   UNL     1       0.096   9.747  18.388  0.00  0.00    +0.000 C 
ATOM      3  C   UNL     1      -0.748  10.966  18.774  0.00  0.00    +0.000 C 
ATOM      4  C   UNL     1      -2.167  10.685  18.208  0.00  0.00    +0.000 C 
ATOM      5  C   UNL     1      -3.148  11.677  18.707  0.00  0.00    +0.000 A 
ATOM      6  C   UNL     1      -2.834  12.542  19.732  0.00  0.00    +0.000 A 
ATOM      7  N   UNL     1      -3.930  13.322  19.979  0.00  0.00    +0.000 N 
ATOM      8  C   UNL     1      -4.975  12.918  19.182  0.00  0.00    +0.000 A 
ATOM      9  C   UNL     1      -6.293  13.374  19.141  0.00  0.00    +0.000 A 
ATOM     10  C   UNL     1      -7.164  12.750  18.237  0.00  0.00    +0.000 A 
ATOM     11  C   UNL     1      -6.721  11.731  17.394  0.00  0.00    +0.000 A 
ATOM     12  C   UNL     1      -5.391  11.294  17.440  0.00  0.00    +0.000 A 
ATOM     13  C   UNL     1      -4.507  11.891  18.357  0.00  0.00    +0.000 A 
ATOM     14  C   UNL     1      -1.532  12.626  20.465  0.00  0.00    +0.000 C 
ATOM     15  N   UNL     1      -0.757  11.383  20.191  0.00  0.00    +0.000 N 
ATOM     16  C   UNL     1       0.469  11.222  20.854  0.00  0.00    +0.000 C 
ATOM     17  O   UNL     1       0.906  11.985  21.712  0.00  0.00    +0.000 OA
ATOM     18  C   UNL     1       1.186   9.891  20.602  0.00  0.00    +0.000 C 
ATOM     19  N   UNL     1       1.025   9.284  19.291  0.00  0.00    +0.000 N 
ATOM     20  H   UNL     1      -3.996  14.040  20.688  0.00  0.00    +0.000 HD
ENDROOT
BRANCH  14  21
ATOM     21  C   UNL     1      -1.736  12.910  21.943  0.00  0.00    +0.000 A 
ATOM     22  C   UNL     1      -1.276  14.108  22.546  0.00  0.00    +0.000 A 
ATOM     23  C   UNL     1      -1.742  14.490  23.807  0.00  0.00    +0.000 A 
ATOM     24  C   UNL     1      -2.679  13.675  24.402  0.00  0.00    +0.000 A 
ATOM     25  C   UNL     1      -3.046  12.463  23.863  0.00  0.00    +0.000 A 
ATOM     26  C   UNL     1      -2.551  12.022  22.665  0.00  0.00    +0.000 A 
ATOM     27  O   UNL     1      -4.051  11.865  24.560  0.00  0.00    +0.000 OA
ATOM     28  C   UNL     1      -4.488  13.004  25.325  0.00  0.00    +0.000 C 
ATOM     29  O   UNL     1      -3.440  13.984  25.492  0.00  0.00    +0.000 OA
ENDBRANCH  14  21
BRANCH  19  30
ATOM     30  C   UNL     1       2.004   8.315  18.799  0.00  0.00    +0.000 C 
BRANCH  30  31
ATOM     31  C   UNL     1       2.495   7.186  19.725  0.00  0.00    +0.000 C 
BRANCH  31  32
ATOM     32  N   UNL     1       2.063   5.810  19.419  0.00  0.00    +0.000 NA
ATOM     33  C   UNL     1       2.200   5.436  17.991  0.00  0.00    +0.000 C 
ATOM     34  C   UNL     1       3.650   5.214  17.518  0.00  0.00    +0.000 C 
ATOM     35  O   UNL     1       4.346   4.274  18.347  0.00  0.00    +0.000 OA
ATOM     36  C   UNL     1       4.308   4.671  19.721  0.00  0.00    +0.000 C 
ATOM     37  C   UNL     1       2.857   4.836  20.210  0.00  0.00    +0.000 C 
ENDBRANCH  31  32
ENDBRANCH  30  31
ENDBRANCH  19  30
TORSDOF 4
ENDMDL
MODEL 5
REMARK VINA RESULT:      -6.9      4.261      9.197
REMARK  Name = 
REMARK  4 active torsions:
REMARK  status: ('A' for Active; 'I' for Inactive)
REMARK    1  A    between atoms: C_14  and  C_15
REMARK    2  A    between atoms: N_28  and  C_29
REMARK    3  A    between atoms: C_29  and  C_30
REMARK    4  A    between atoms: C_30  and  N_31
REMARK                            x       y       z     vdW  Elec       q    Type
REMARK                         _______ _______ _______ _____ _____    ______ ____
ROOT
ATOM      1  O   UNL     1      -3.031  12.904  23.703  0.00  0.00    +0.000 OA
ATOM      2  C   UNL     1      -2.118  13.531  23.151  0.00  0.00    +0.000 C 
ATOM      3  C   UNL     1      -1.506  12.995  21.852  0.00  0.00    +0.000 C 
ATOM      4  C   UNL     1      -2.711  12.589  20.961  0.00  0.00    +0.000 C 
ATOM      5  C   UNL     1      -2.273  12.268  19.582  0.00  0.00    +0.000 A 
ATOM      6  C   UNL     1      -0.999  12.563  19.149  0.00  0.00    +0.000 A 
ATOM      7  N   UNL     1      -0.893  12.166  17.844  0.00  0.00    +0.000 N 
ATOM      8  C   UNL     1      -2.106  11.692  17.404  0.00  0.00    +0.000 A 
ATOM      9  C   UNL     1      -2.484  11.249  16.136  0.00  0.00    +0.000 A 
ATOM     10  C   UNL     1      -3.814  10.845  15.963  0.00  0.00    +0.000 A 
ATOM     11  C   UNL     1      -4.718  10.862  17.026  0.00  0.00    +0.000 A 
ATOM     12  C   UNL     1      -4.319  11.298  18.295  0.00  0.00    +0.000 A 
ATOM     13  C   UNL     1      -2.993  11.730  18.484  0.00  0.00    +0.000 A 
ATOM     14  C   UNL     1       0.090  13.210  19.945  0.00  0.00    +0.000 C 
ATOM     15  N   UNL     1      -0.520  13.841  21.150  0.00  0.00    +0.000 N 
ATOM     16  C   UNL     1       0.324  14.577  21.995  0.00  0.00    +0.000 C 
ATOM     17  O   UNL     1       1.507  14.817  21.767  0.00  0.00    +0.000 OA
ATOM     18  C   UNL     1      -0.366  15.274  23.173  0.00  0.00    +0.000 C 
ATOM     19  N   UNL     1      -1.521  14.612  23.756  0.00  0.00    +0.000 N 
ATOM     20  H   UNL     1      -0.073  12.268  17.261  0.00  0.00    +0.000 HD
ENDROOT
BRANCH  14  21
ATOM     21  C   UNL     1       0.913  14.167  19.100  0.00  0.00    +0.000 A 
ATOM     22  C   UNL     1       0.447  15.464  18.770  0.00  0.00    +0.000 A 
ATOM     23  C   UNL     1       1.329  16.429  18.275  0.00  0.00    +0.000 A 
ATOM     24  C   UNL     1       2.653  16.068  18.162  0.00  0.00    +0.000 A 
ATOM     25  C   UNL     1       3.084  14.780  18.386  0.00  0.00    +0.000 A 
ATOM     26  C   UNL     1       2.233  13.791  18.799  0.00  0.00    +0.000 A 
ATOM     27  O   UNL     1       4.439  14.663  18.312  0.00  0.00    +0.000 OA
ATOM     28  C   UNL     1       4.779  16.059  18.399  0.00  0.00    +0.000 C 
ATOM     29  O   UNL     1       3.704  16.912  17.948  0.00  0.00    +0.000 OA
ENDBRANCH  14  21
BRANCH  19  30
ATOM     30  C   UNL     1      -1.941  14.923  25.122  0.00  0.00    +0.000 C 
BRANCH  30  31
ATOM     31  C   UNL     1      -2.891  16.109  25.379  0.00  0.00    +0.000 C 
BRANCH  31  32
ATOM     32  N   UNL     1      -3.259  16.956  24.229  0.00  0.00    +0.000 NA
ATOM     33  C   UNL     1      -4.435  16.470  23.470  0.00  0.00    +0.000 C 
ATOM     34  C   UNL     1      -5.786  16.650  24.189  0.00  0.00    +0.000 C 
ATOM     35  O   UNL     1      -5.993  18.005  24.610  0.00  0.00    +0.000 OA
ATOM     36  C   UNL     1      -4.911  18.461  25.428  0.00  0.00    +0.000 C 
ATOM     37  C   UNL     1      -3.566  18.335  24.687  0.00  0.00    +0.000 C 
ENDBRANCH  31  32
ENDBRANCH  30  31
ENDBRANCH  19  30
TORSDOF 4
ENDMDL
MODEL 6
REMARK VINA RESULT:      -6.8      6.021      9.843
REMARK  Name = 
REMARK  4 active torsions:
REMARK  status: ('A' for Active; 'I' for Inactive)
REMARK    1  A    between atoms: C_14  and  C_15
REMARK    2  A    between atoms: N_28  and  C_29
REMARK    3  A    between atoms: C_29  and  C_30
REMARK    4  A    between atoms: C_30  and  N_31
REMARK                            x       y       z     vdW  Elec       q    Type
REMARK                         _______ _______ _______ _____ _____    ______ ____
ROOT
ATOM      1  O   UNL     1       1.257  14.134  21.445  0.00  0.00    +0.000 OA
ATOM      2  C   UNL     1       2.055  14.582  20.612  0.00  0.00    +0.000 C 
ATOM      3  C   UNL     1       3.461  14.998  21.055  0.00  0.00    +0.000 C 
ATOM      4  C   UNL     1       3.973  13.843  21.958  0.00  0.00    +0.000 C 
ATOM      5  C   UNL     1       5.412  14.005  22.270  0.00  0.00    +0.000 A 
ATOM      6  C   UNL     1       6.190  14.927  21.606  0.00  0.00    +0.000 A 
ATOM      7  N   UNL     1       7.464  14.838  22.096  0.00  0.00    +0.000 N 
ATOM      8  C   UNL     1       7.538  13.815  23.010  0.00  0.00    +0.000 A 
ATOM      9  C   UNL     1       8.641  13.318  23.707  0.00  0.00    +0.000 A 
ATOM     10  C   UNL     1       8.427  12.232  24.565  0.00  0.00    +0.000 A 
ATOM     11  C   UNL     1       7.155  11.686  24.735  0.00  0.00    +0.000 A 
ATOM     12  C   UNL     1       6.056  12.204  24.039  0.00  0.00    +0.000 A 
ATOM     13  C   UNL     1       6.254  13.280  23.153  0.00  0.00    +0.000 A 
ATOM     14  C   UNL     1       5.743  15.866  20.531  0.00  0.00    +0.000 C 
ATOM     15  N   UNL     1       4.428  15.393  20.010  0.00  0.00    +0.000 N 
ATOM     16  C   UNL     1       3.868  16.092  18.930  0.00  0.00    +0.000 C 
ATOM     17  O   UNL     1       4.421  17.006  18.324  0.00  0.00    +0.000 OA
ATOM     18  C   UNL     1       2.558  15.516  18.380  0.00  0.00    +0.000 C 
ATOM     19  N   UNL     1       1.662  14.872  19.327  0.00  0.00    +0.000 N 
ATOM     20  H   UNL     1       8.255  15.387  21.786  0.00  0.00    +0.000 HD
ENDROOT
BRANCH  14  21
ATOM     21  C   UNL     1       6.802  16.038  19.457  0.00  0.00    +0.000 A 
ATOM     22  C   UNL     1       7.459  17.276  19.244  0.00  0.00    +0.000 A 
ATOM     23  C   UNL     1       8.632  17.335  18.487  0.00  0.00    +0.000 A 
ATOM     24  C   UNL     1       9.124  16.145  17.999  0.00  0.00    +0.000 A 
ATOM     25  C   UNL     1       8.432  14.961  18.120  0.00  0.00    +0.000 A 
ATOM     26  C   UNL     1       7.241  14.881  18.790  0.00  0.00    +0.000 A 
ATOM     27  O   UNL     1       9.138  13.894  17.654  0.00  0.00    +0.000 OA
ATOM     28  C   UNL     1      10.440  14.506  17.601  0.00  0.00    +0.000 C 
ATOM     29  O   UNL     1      10.362  15.943  17.464  0.00  0.00    +0.000 OA
ENDBRANCH  14  21
BRANCH  19  30
ATOM     30  C   UNL     1       0.240  14.728  19.018  0.00  0.00    +0.000 C 
BRANCH  30  31
ATOM     31  C   UNL     1      -0.298  13.380  18.500  0.00  0.00    +0.000 C 
BRANCH  31  32
ATOM     32  N   UNL     1      -0.858  12.439  19.488  0.00  0.00    +0.000 NA
ATOM     33  C   UNL     1      -2.328  12.271  19.398  0.00  0.00    +0.000 C 
ATOM     34  C   UNL     1      -2.811  11.465  18.177  0.00  0.00    +0.000 C 
ATOM     35  O   UNL     1      -2.159  10.191  18.083  0.00  0.00    +0.000 OA
ATOM     36  C   UNL     1      -0.736  10.341  18.069  0.00  0.00    +0.000 C 
ATOM     37  C   UNL     1      -0.247  11.096  19.320  0.00  0.00    +0.000 C 
ENDBRANCH  31  32
ENDBRANCH  30  31
ENDBRANCH  19  30
TORSDOF 4
ENDMDL
MODEL 7
REMARK VINA RESULT:      -6.8      1.230      1.813
REMARK  Name = 
REMARK  4 active torsions:
REMARK  status: ('A' for Active; 'I' for Inactive)
REMARK    1  A    between atoms: C_14  and  C_15
REMARK    2  A    between atoms: N_28  and  C_29
REMARK    3  A    between atoms: C_29  and  C_30
REMARK    4  A    between atoms: C_30  and  N_31
REMARK                            x       y       z     vdW  Elec       q    Type
REMARK                         _______ _______ _______ _____ _____    ______ ____
ROOT
ATOM      1  O   UNL     1       2.890  10.866  17.640  0.00  0.00    +0.000 OA
ATOM      2  C   UNL     1       1.864  10.834  18.331  0.00  0.00    +0.000 C 
ATOM      3  C   UNL     1       1.498  12.042  19.201  0.00  0.00    +0.000 C 
ATOM      4  C   UNL     1       1.685  13.284  18.289  0.00  0.00    +0.000 C 
ATOM      5  C   UNL     1       1.144  14.505  18.930  0.00  0.00    +0.000 A 
ATOM      6  C   UNL     1       0.361  14.433  20.060  0.00  0.00    +0.000 A 
ATOM      7  N   UNL     1       0.004  15.707  20.410  0.00  0.00    +0.000 N 
ATOM      8  C   UNL     1       0.478  16.594  19.473  0.00  0.00    +0.000 A 
ATOM      9  C   UNL     1       0.299  17.975  19.382  0.00  0.00    +0.000 A 
ATOM     10  C   UNL     1       0.879  18.630  18.288  0.00  0.00    +0.000 A 
ATOM     11  C   UNL     1       1.629  17.932  17.342  0.00  0.00    +0.000 A 
ATOM     12  C   UNL     1       1.810  16.547  17.456  0.00  0.00    +0.000 A 
ATOM     13  C   UNL     1       1.215  15.867  18.535  0.00  0.00    +0.000 A 
ATOM     14  C   UNL     1      -0.044  13.192  20.791  0.00  0.00    +0.000 C 
ATOM     15  N   UNL     1       0.196  12.022  19.899  0.00  0.00    +0.000 N 
ATOM     16  C   UNL     1      -0.197  10.759  20.366  0.00  0.00    +0.000 C 
ATOM     17  O   UNL     1      -0.808  10.557  21.412  0.00  0.00    +0.000 OA
ATOM     18  C   UNL     1      -0.004   9.602  19.379  0.00  0.00    +0.000 C 
ATOM     19  N   UNL     1       1.128   9.682  18.470  0.00  0.00    +0.000 N 
ATOM     20  H   UNL     1      -0.581  15.961  21.195  0.00  0.00    +0.000 HD
ENDROOT
BRANCH  14  21
ATOM     21  C   UNL     1      -1.468  13.285  21.312  0.00  0.00    +0.000 A 
ATOM     22  C   UNL     1      -2.587  13.011  20.486  0.00  0.00    +0.000 A 
ATOM     23  C   UNL     1      -3.847  12.793  21.050  0.00  0.00    +0.000 A 
ATOM     24  C   UNL     1      -3.932  12.822  22.424  0.00  0.00    +0.000 A 
ATOM     25  C   UNL     1      -2.868  13.188  23.217  0.00  0.00    +0.000 A 
ATOM     26  C   UNL     1      -1.639  13.483  22.692  0.00  0.00    +0.000 A 
ATOM     27  O   UNL     1      -3.139  13.058  24.545  0.00  0.00    +0.000 OA
ATOM     28  C   UNL     1      -4.314  12.232  24.444  0.00  0.00    +0.000 C 
ATOM     29  O   UNL     1      -4.986  12.393  23.176  0.00  0.00    +0.000 OA
ENDBRANCH  14  21
BRANCH  19  30
ATOM     30  C   UNL     1       1.666   8.471  17.850  0.00  0.00    +0.000 C 
BRANCH  30  31
ATOM     31  C   UNL     1       2.661   7.590  18.630  0.00  0.00    +0.000 C 
BRANCH  31  32
ATOM     32  N   UNL     1       2.240   6.219  18.974  0.00  0.00    +0.000 NA
ATOM     33  C   UNL     1       2.258   5.275  17.832  0.00  0.00    +0.000 C 
ATOM     34  C   UNL     1       3.665   4.855  17.364  0.00  0.00    +0.000 C 
ATOM     35  O   UNL     1       4.458   4.343  18.443  0.00  0.00    +0.000 OA
ATOM     36  C   UNL     1       4.533   5.284  19.519  0.00  0.00    +0.000 C 
ATOM     37  C   UNL     1       3.127   5.660  20.025  0.00  0.00    +0.000 C 
ENDBRANCH  31  32
ENDBRANCH  30  31
ENDBRANCH  19  30
TORSDOF 4
ENDMDL
MODEL 8
REMARK VINA RESULT:      -6.7      5.158      7.211
REMARK  Name = 
REMARK  4 active torsions:
REMARK  status: ('A' for Active; 'I' for Inactive)
REMARK    1  A    between atoms: C_14  and  C_15
REMARK    2  A    between atoms: N_28  and  C_29
REMARK    3  A    between atoms: C_29  and  C_30
REMARK    4  A    between atoms: C_30  and  N_31
REMARK                            x       y       z     vdW  Elec       q    Type
REMARK                         _______ _______ _______ _____ _____    ______ ____
ROOT
ATOM      1  O   UNL     1       5.920  14.389  17.510  0.00  0.00    +0.000 OA
ATOM      2  C   UNL     1       5.272  15.142  18.247  0.00  0.00    +0.000 C 
ATOM      3  C   UNL     1       3.742  15.068  18.251  0.00  0.00    +0.000 C 
ATOM      4  C   UNL     1       3.398  13.556  18.325  0.00  0.00    +0.000 C 
ATOM      5  C   UNL     1       1.951  13.347  18.568  0.00  0.00    +0.000 A 
ATOM      6  C   UNL     1       1.129  14.390  18.932  0.00  0.00    +0.000 A 
ATOM      7  N   UNL     1      -0.136  13.894  19.098  0.00  0.00    +0.000 N 
ATOM      8  C   UNL     1      -0.125  12.531  18.925  0.00  0.00    +0.000 A 
ATOM      9  C   UNL     1      -1.160  11.605  19.065  0.00  0.00    +0.000 A 
ATOM     10  C   UNL     1      -0.852  10.255  18.854  0.00  0.00    +0.000 A 
ATOM     11  C   UNL     1       0.435   9.856  18.492  0.00  0.00    +0.000 A 
ATOM     12  C   UNL     1       1.459  10.799  18.344  0.00  0.00    +0.000 A 
ATOM     13  C   UNL     1       1.176  12.158  18.575  0.00  0.00    +0.000 A 
ATOM     14  C   UNL     1       1.527  15.819  19.124  0.00  0.00    +0.000 C 
ATOM     15  N   UNL     1       3.012  15.882  19.245  0.00  0.00    +0.000 N 
ATOM     16  C   UNL     1       3.589  17.131  19.515  0.00  0.00    +0.000 C 
ATOM     17  O   UNL     1       2.959  18.158  19.750  0.00  0.00    +0.000 OA
ATOM     18  C   UNL     1       5.109  17.126  19.711  0.00  0.00    +0.000 C 
ATOM     19  N   UNL     1       5.879  16.160  18.945  0.00  0.00    +0.000 N 
ATOM     20  H   UNL     1      -0.948  14.429  19.376  0.00  0.00    +0.000 HD
ENDROOT
BRANCH  14  21
ATOM     21  C   UNL     1       0.789  16.458  20.288  0.00  0.00    +0.000 A 
ATOM     22  C   UNL     1      -0.253  17.397  20.088  0.00  0.00    +0.000 A 
ATOM     23  C   UNL     1      -1.120  17.727  21.135  0.00  0.00    +0.000 A 
ATOM     24  C   UNL     1      -0.931  17.076  22.333  0.00  0.00    +0.000 A 
ATOM     25  C   UNL     1       0.142  16.242  22.554  0.00  0.00    +0.000 A 
ATOM     26  C   UNL     1       1.053  15.957  21.574  0.00  0.00    +0.000 A 
ATOM     27  O   UNL     1       0.085  15.631  23.769  0.00  0.00    +0.000 OA
ATOM     28  C   UNL     1      -1.298  15.891  24.076  0.00  0.00    +0.000 C 
ATOM     29  O   UNL     1      -1.799  17.057  23.385  0.00  0.00    +0.000 OA
ENDBRANCH  14  21
BRANCH  19  30
ATOM     30  C   UNL     1       7.303  16.378  18.696  0.00  0.00    +0.000 C 
BRANCH  30  31
ATOM     31  C   UNL     1       8.350  15.725  19.619  0.00  0.00    +0.000 C 
BRANCH  31  32
ATOM     32  N   UNL     1       9.716  15.551  19.091  0.00  0.00    +0.000 NA
ATOM     33  C   UNL     1      10.637  14.848  20.015  0.00  0.00    +0.000 C 
ATOM     34  C   UNL     1      10.373  13.337  20.164  0.00  0.00    +0.000 C 
ATOM     35  O   UNL     1      10.339  12.670  18.895  0.00  0.00    +0.000 OA
ATOM     36  C   UNL     1       9.381  13.276  18.021  0.00  0.00    +0.000 C 
ATOM     37  C   UNL     1       9.681  14.775  17.825  0.00  0.00    +0.000 C 
ENDBRANCH  31  32
ENDBRANCH  30  31
ENDBRANCH  19  30
TORSDOF 4
ENDMDL
MODEL 9
REMARK VINA RESULT:      -6.7      2.410      5.261
REMARK  Name = 
REMARK  4 active torsions:
REMARK  status: ('A' for Active; 'I' for Inactive)
REMARK    1  A    between atoms: C_14  and  C_15
REMARK    2  A    between atoms: N_28  and  C_29
REMARK    3  A    between atoms: C_29  and  C_30
REMARK    4  A    between atoms: C_30  and  N_31
REMARK                            x       y       z     vdW  Elec       q    Type
REMARK                         _______ _______ _______ _____ _____    ______ ____
ROOT
ATOM      1  O   UNL     1      -0.792   8.765  22.088  0.00  0.00    +0.000 OA
ATOM      2  C   UNL     1      -0.138   9.580  21.426  0.00  0.00    +0.000 C 
ATOM      3  C   UNL     1      -0.713  10.974  21.154  0.00  0.00    +0.000 C 
ATOM      4  C   UNL     1      -1.267  11.469  22.518  0.00  0.00    +0.000 C 
ATOM      5  C   UNL     1      -1.646  12.900  22.454  0.00  0.00    +0.000 A 
ATOM      6  C   UNL     1      -1.287  13.689  21.385  0.00  0.00    +0.000 A 
ATOM      7  N   UNL     1      -1.763  14.952  21.611  0.00  0.00    +0.000 N 
ATOM      8  C   UNL     1      -2.354  15.008  22.851  0.00  0.00    +0.000 A 
ATOM      9  C   UNL     1      -2.909  16.096  23.526  0.00  0.00    +0.000 A 
ATOM     10  C   UNL     1      -3.421  15.867  24.809  0.00  0.00    +0.000 A 
ATOM     11  C   UNL     1      -3.400  14.594  25.378  0.00  0.00    +0.000 A 
ATOM     12  C   UNL     1      -2.851  13.510  24.682  0.00  0.00    +0.000 A 
ATOM     13  C   UNL     1      -2.309  13.724  23.401  0.00  0.00    +0.000 A 
ATOM     14  C   UNL     1      -0.509  13.263  20.180  0.00  0.00    +0.000 C 
ATOM     15  N   UNL     1       0.155  11.964  20.483  0.00  0.00    +0.000 N 
ATOM     16  C   UNL     1       1.007  11.426  19.508  0.00  0.00    +0.000 C 
ATOM     17  O   UNL     1       1.319  11.990  18.462  0.00  0.00    +0.000 OA
ATOM     18  C   UNL     1       1.728  10.132  19.902  0.00  0.00    +0.000 C 
ATOM     19  N   UNL     1       1.023   9.217  20.784  0.00  0.00    +0.000 N 
ATOM     20  H   UNL     1      -1.639  15.747  20.999  0.00  0.00    +0.000 HD
ENDROOT
BRANCH  14  21
ATOM     21  C   UNL     1       0.447  14.348  19.715  0.00  0.00    +0.000 A 
ATOM     22  C   UNL     1       0.136  15.206  18.630  0.00  0.00    +0.000 A 
ATOM     23  C   UNL     1       0.867  16.379  18.424  0.00  0.00    +0.000 A 
ATOM     24  C   UNL     1       1.859  16.668  19.333  0.00  0.00    +0.000 A 
ATOM     25  C   UNL     1       2.226  15.785  20.324  0.00  0.00    +0.000 A 
ATOM     26  C   UNL     1       1.582  14.592  20.507  0.00  0.00    +0.000 A 
ATOM     27  O   UNL     1       3.159  16.306  21.167  0.00  0.00    +0.000 OA
ATOM     28  C   UNL     1       3.024  17.694  20.806  0.00  0.00    +0.000 C 
ATOM     29  O   UNL     1       2.509  17.860  19.466  0.00  0.00    +0.000 OA
ENDBRANCH  14  21
BRANCH  19  30
ATOM     30  C   UNL     1       1.394   7.803  20.833  0.00  0.00    +0.000 C 
BRANCH  30  31
ATOM     31  C   UNL     1       2.111   7.158  19.631  0.00  0.00    +0.000 C 
BRANCH  31  32
ATOM     32  N   UNL     1       2.862   5.912  19.869  0.00  0.00    +0.000 NA
ATOM     33  C   UNL     1       2.196   4.971  20.800  0.00  0.00    +0.000 C 
ATOM     34  C   UNL     1       0.959   4.257  20.221  0.00  0.00    +0.000 C 
ATOM     35  O   UNL     1       1.250   3.603  18.979  0.00  0.00    +0.000 OA
ATOM     36  C   UNL     1       1.805   4.520  18.031  0.00  0.00    +0.000 C 
ATOM     37  C   UNL     1       3.076   5.190  18.588  0.00  0.00    +0.000 C 
ENDBRANCH  31  32
ENDBRANCH  30  31
ENDBRANCH  19  30
TORSDOF 4
ENDMDL
