MODEL 1
REMARK VINA RESULT:      -7.5      0.000      0.000
REMARK  Name = 
REMARK  6 active torsions:
REMARK  status: ('A' for Active; 'I' for Inactive)
REMARK    1  A    between atoms: C_2  and  C_3
REMARK    2  A    between atoms: C_8  and  C_10
REMARK    3  A    between atoms: C_10  and  N_11
REMARK    4  A    between atoms: C_12  and  O_14
REMARK    5  A    between atoms: O_14  and  C_15
REMARK    6  A    between atoms: C_15  and  C_16
REMARK                            x       y       z     vdW  Elec       q    Type
REMARK                         _______ _______ _______ _____ _____    ______ ____
ROOT
ATOM      1  N   UNL     1       6.335   3.734  17.940  0.00  0.00    +0.000 N 
ATOM      2  C   UNL     1       7.105   4.588  17.204  0.00  0.00    +0.000 C 
ATOM      3  O   UNL     1       8.252   4.295  16.899  0.00  0.00    +0.000 OA
ATOM      4  H   UNL     1       6.753   2.823  18.067  0.00  0.00    +0.000 HD
ENDROOT
BRANCH   1   5
ATOM      5  C   UNL     1       5.326   4.154  18.888  0.00  0.00    +0.000 C 
BRANCH   5  11
ATOM      6  C   UNL     1       2.075   2.292  19.747  0.00  0.00    +0.000 C 
ATOM      7  C   UNL     1       0.913   2.440  18.760  0.00  0.00    +0.000 C 
ATOM      8  C   UNL     1       1.110   3.793  18.063  0.00  0.00    +0.000 C 
ATOM      9  C   UNL     1       2.405   4.365  18.617  0.00  0.00    +0.000 C 
ATOM     10  N   UNL     1       3.065   3.227  19.225  0.00  0.00    +0.000 N 
ATOM     11  C   UNL     1       4.417   3.052  19.447  0.00  0.00    +0.000 C 
ATOM     12  O   UNL     1       4.846   2.072  20.053  0.00  0.00    +0.000 OA
BRANCH   6  14
ATOM     13  N   UNL     1       1.365   2.934  22.213  0.00  0.00    +0.000 NA
ATOM     14  C   UNL     1       1.652   2.648  21.121  0.00  0.00    +0.000 C 
ENDBRANCH   6  14
ENDBRANCH   5  11
ENDBRANCH   1   5
BRANCH   2  15
ATOM     15  O   UNL     1       6.468   5.740  16.881  0.00  0.00    +0.000 OA
BRANCH  15  16
ATOM     16  C   UNL     1       5.524   5.635  15.799  0.00  0.00    +0.000 C 
BRANCH  16  17
ATOM     17  C   UNL     1       6.109   5.023  14.542  0.00  0.00    +0.000 A 
ATOM     18  C   UNL     1       5.528   3.919  13.908  0.00  0.00    +0.000 A 
ATOM     19  C   UNL     1       6.068   3.409  12.720  0.00  0.00    +0.000 A 
ATOM     20  C   UNL     1       7.190   4.007  12.146  0.00  0.00    +0.000 A 
ATOM     21  C   UNL     1       7.767   5.118  12.752  0.00  0.00    +0.000 A 
ATOM     22  C   UNL     1       7.229   5.627  13.942  0.00  0.00    +0.000 A 
ENDBRANCH  16  17
ENDBRANCH  15  16
ENDBRANCH   2  15
TORSDOF 6
ENDMDL
MODEL 2
REMARK VINA RESULT:      -7.5      0.936      1.412
REMARK  Name = 
REMARK  6 active torsions:
REMARK  status: ('A' for Active; 'I' for Inactive)
REMARK    1  A    between atoms: C_2  and  C_3
REMARK    2  A    between atoms: C_8  and  C_10
REMARK    3  A    between atoms: C_10  and  N_11
REMARK    4  A    between atoms: C_12  and  O_14
REMARK    5  A    between atoms: O_14  and  C_15
REMARK    6  A    between atoms: C_15  and  C_16
REMARK                            x       y       z     vdW  Elec       q    Type
REMARK                         _______ _______ _______ _____ _____    ______ ____
ROOT
ATOM      1  N   UNL     1       6.367   5.440  18.553  0.00  0.00    +0.000 N 
ATOM      2  C   UNL     1       6.736   6.032  17.381  0.00  0.00    +0.000 C 
ATOM      3  O   UNL     1       7.824   6.579  17.268  0.00  0.00    +0.000 OA
ATOM      4  H   UNL     1       7.116   5.382  19.228  0.00  0.00    +0.000 HD
ENDROOT
BRANCH   1   5
ATOM      5  C   UNL     1       5.007   5.375  19.044  0.00  0.00    +0.000 C 
BRANCH   5  11
ATOM      6  C   UNL     1       2.497   2.509  19.553  0.00  0.00    +0.000 C 
ATOM      7  C   UNL     1       1.335   2.423  18.558  0.00  0.00    +0.000 C 
ATOM      8  C   UNL     1       1.099   3.852  18.048  0.00  0.00    +0.000 C 
ATOM      9  C   UNL     1       2.160   4.714  18.712  0.00  0.00    +0.000 C 
ATOM     10  N   UNL     1       3.145   3.764  19.187  0.00  0.00    +0.000 N 
ATOM     11  C   UNL     1       4.487   3.984  19.427  0.00  0.00    +0.000 C 
ATOM     12  O   UNL     1       5.204   3.112  19.915  0.00  0.00    +0.000 OA
BRANCH   6  14
ATOM     13  N   UNL     1       1.619   2.506  22.049  0.00  0.00    +0.000 NA
ATOM     14  C   UNL     1       1.998   2.533  20.948  0.00  0.00    +0.000 C 
ENDBRANCH   6  14
ENDBRANCH   5  11
ENDBRANCH   1   5
BRANCH   2  15
ATOM     15  O   UNL     1       5.789   5.946  16.415  0.00  0.00    +0.000 OA
BRANCH  15  16
ATOM     16  C   UNL     1       5.609   4.635  15.848  0.00  0.00    +0.000 C 
BRANCH  16  17
ATOM     17  C   UNL     1       6.145   4.508  14.435  0.00  0.00    +0.000 A 
ATOM     18  C   UNL     1       7.278   5.205  14.001  0.00  0.00    +0.000 A 
ATOM     19  C   UNL     1       7.774   5.028  12.703  0.00  0.00    +0.000 A 
ATOM     20  C   UNL     1       7.147   4.140  11.828  0.00  0.00    +0.000 A 
ATOM     21  C   UNL     1       6.032   3.424  12.251  0.00  0.00    +0.000 A 
ATOM     22  C   UNL     1       5.534   3.603  13.548  0.00  0.00    +0.000 A 
ENDBRANCH  16  17
ENDBRANCH  15  16
ENDBRANCH   2  15
TORSDOF 6
ENDMDL
MODEL 3
REMARK VINA RESULT:      -7.4      1.904      2.231
REMARK  Name = 
REMARK  6 active torsions:
REMARK  status: ('A' for Active; 'I' for Inactive)
REMARK    1  A    between atoms: C_2  and  C_3
REMARK    2  A    between atoms: C_8  and  C_10
REMARK    3  A    between atoms: C_10  and  N_11
REMARK    4  A    between atoms: C_12  and  O_14
REMARK    5  A    between atoms: O_14  and  C_15
REMARK    6  A    between atoms: C_15  and  C_16
REMARK                            x       y       z     vdW  Elec       q    Type
REMARK                         _______ _______ _______ _____ _____    ______ ____
ROOT
ATOM      1  N   UNL     1       5.355   6.575  17.952  0.00  0.00    +0.000 N 
ATOM      2  C   UNL     1       6.240   7.038  17.022  0.00  0.00    +0.000 C 
ATOM      3  O   UNL     1       7.046   7.913  17.304  0.00  0.00    +0.000 OA
ATOM      4  H   UNL     1       5.536   6.916  18.885  0.00  0.00    +0.000 HD
ENDROOT
BRANCH   1   5
ATOM      5  C   UNL     1       4.019   6.109  17.649  0.00  0.00    +0.000 C 
BRANCH   5  11
ATOM      6  C   UNL     1       2.900   2.852  19.354  0.00  0.00    +0.000 C 
ATOM      7  C   UNL     1       1.692   2.942  20.292  0.00  0.00    +0.000 C 
ATOM      8  C   UNL     1       1.667   4.383  20.822  0.00  0.00    +0.000 C 
ATOM      9  C   UNL     1       2.818   5.102  20.137  0.00  0.00    +0.000 C 
ATOM     10  N   UNL     1       3.154   4.248  19.016  0.00  0.00    +0.000 N 
ATOM     11  C   UNL     1       3.764   4.607  17.830  0.00  0.00    +0.000 C 
ATOM     12  O   UNL     1       4.075   3.768  16.988  0.00  0.00    +0.000 OA
BRANCH   6  14
ATOM     13  N   UNL     1       4.997   1.771  20.552  0.00  0.00    +0.000 NA
ATOM     14  C   UNL     1       4.058   2.232  20.040  0.00  0.00    +0.000 C 
ENDBRANCH   6  14
ENDBRANCH   5  11
ENDBRANCH   1   5
BRANCH   2  15
ATOM     15  O   UNL     1       6.109   6.440  15.813  0.00  0.00    +0.000 OA
BRANCH  15  16
ATOM     16  C   UNL     1       6.898   5.249  15.630  0.00  0.00    +0.000 C 
BRANCH  16  17
ATOM     17  C   UNL     1       6.800   4.667  14.233  0.00  0.00    +0.000 A 
ATOM     18  C   UNL     1       5.819   3.732  13.881  0.00  0.00    +0.000 A 
ATOM     19  C   UNL     1       5.727   3.251  12.569  0.00  0.00    +0.000 A 
ATOM     20  C   UNL     1       6.609   3.710  11.590  0.00  0.00    +0.000 A 
ATOM     21  C   UNL     1       7.575   4.655  11.919  0.00  0.00    +0.000 A 
ATOM     22  C   UNL     1       7.670   5.134  13.232  0.00  0.00    +0.000 A 
ENDBRANCH  16  17
ENDBRANCH  15  16
ENDBRANCH   2  15
TORSDOF 6
ENDMDL
MODEL 4
REMARK VINA RESULT:      -7.4      1.689      2.336
REMARK  Name = 
REMARK  6 active torsions:
REMARK  status: ('A' for Active; 'I' for Inactive)
REMARK    1  A    between atoms: C_2  and  C_3
REMARK    2  A    between atoms: C_8  and  C_10
REMARK    3  A    between atoms: C_10  and  N_11
REMARK    4  A    between atoms: C_12  and  O_14
REMARK    5  A    between atoms: O_14  and  C_15
REMARK    6  A    between atoms: C_15  and  C_16
REMARK                            x       y       z     vdW  Elec       q    Type
REMARK                         _______ _______ _______ _____ _____    ______ ____
ROOT
ATOM      1  N   UNL     1       6.943   5.812  18.731  0.00  0.00    +0.000 N 
ATOM      2  C   UNL     1       7.163   5.965  17.393  0.00  0.00    +0.000 C 
ATOM      3  O   UNL     1       7.499   7.046  16.931  0.00  0.00    +0.000 OA
ATOM      4  H   UNL     1       7.221   6.614  19.279  0.00  0.00    +0.000 HD
ENDROOT
BRANCH   1   5
ATOM      5  C   UNL     1       5.969   4.906  19.302  0.00  0.00    +0.000 C 
BRANCH   5  11
ATOM      6  C   UNL     1       2.146   4.692  19.638  0.00  0.00    +0.000 C 
ATOM      7  C   UNL     1       1.600   3.844  20.790  0.00  0.00    +0.000 C 
ATOM      8  C   UNL     1       2.669   2.783  21.087  0.00  0.00    +0.000 C 
ATOM      9  C   UNL     1       3.825   3.077  20.145  0.00  0.00    +0.000 C 
ATOM     10  N   UNL     1       3.581   4.433  19.695  0.00  0.00    +0.000 N 
ATOM     11  C   UNL     1       4.503   5.351  19.231  0.00  0.00    +0.000 C 
ATOM     12  O   UNL     1       4.155   6.447  18.795  0.00  0.00    +0.000 OA
BRANCH   6  14
ATOM     13  N   UNL     1       1.133   3.898  17.326  0.00  0.00    +0.000 NA
ATOM     14  C   UNL     1       1.561   4.268  18.344  0.00  0.00    +0.000 C 
ENDBRANCH   6  14
ENDBRANCH   5  11
ENDBRANCH   1   5
BRANCH   2  15
ATOM     15  O   UNL     1       6.963   4.827  16.684  0.00  0.00    +0.000 OA
BRANCH  15  16
ATOM     16  C   UNL     1       5.865   4.871  15.752  0.00  0.00    +0.000 C 
BRANCH  16  17
ATOM     17  C   UNL     1       6.259   4.501  14.336  0.00  0.00    +0.000 A 
ATOM     18  C   UNL     1       5.515   3.600  13.565  0.00  0.00    +0.000 A 
ATOM     19  C   UNL     1       5.880   3.317  12.243  0.00  0.00    +0.000 A 
ATOM     20  C   UNL     1       6.988   3.943  11.672  0.00  0.00    +0.000 A 
ATOM     21  C   UNL     1       7.725   4.857  12.417  0.00  0.00    +0.000 A 
ATOM     22  C   UNL     1       7.362   5.138  13.741  0.00  0.00    +0.000 A 
ENDBRANCH  16  17
ENDBRANCH  15  16
ENDBRANCH   2  15
TORSDOF 6
ENDMDL
MODEL 5
REMARK VINA RESULT:      -7.3      1.692      2.569
REMARK  Name = 
REMARK  6 active torsions:
REMARK  status: ('A' for Active; 'I' for Inactive)
REMARK    1  A    between atoms: C_2  and  C_3
REMARK    2  A    between atoms: C_8  and  C_10
REMARK    3  A    between atoms: C_10  and  N_11
REMARK    4  A    between atoms: C_12  and  O_14
REMARK    5  A    between atoms: O_14  and  C_15
REMARK    6  A    between atoms: C_15  and  C_16
REMARK                            x       y       z     vdW  Elec       q    Type
REMARK                         _______ _______ _______ _____ _____    ______ ____
ROOT
ATOM      1  N   UNL     1       6.838   5.891  18.758  0.00  0.00    +0.000 N 
ATOM      2  C   UNL     1       7.064   5.965  17.414  0.00  0.00    +0.000 C 
ATOM      3  O   UNL     1       7.382   7.022  16.889  0.00  0.00    +0.000 OA
ATOM      4  H   UNL     1       7.096   6.730  19.257  0.00  0.00    +0.000 HD
ENDROOT
BRANCH   1   5
ATOM      5  C   UNL     1       5.878   5.002  19.378  0.00  0.00    +0.000 C 
BRANCH   5  11
ATOM      6  C   UNL     1       2.054   4.682  19.588  0.00  0.00    +0.000 C 
ATOM      7  C   UNL     1       1.495   3.807  20.714  0.00  0.00    +0.000 C 
ATOM      8  C   UNL     1       2.583   2.772  21.035  0.00  0.00    +0.000 C 
ATOM      9  C   UNL     1       3.760   3.108  20.134  0.00  0.00    +0.000 C 
ATOM     10  N   UNL     1       3.492   4.461  19.689  0.00  0.00    +0.000 N 
ATOM     11  C   UNL     1       4.403   5.408  19.264  0.00  0.00    +0.000 C 
ATOM     12  O   UNL     1       4.040   6.499  18.828  0.00  0.00    +0.000 OA
BRANCH   6  14
ATOM     13  N   UNL     1       1.108   3.966  17.223  0.00  0.00    +0.000 NA
ATOM     14  C   UNL     1       1.523   4.255  18.273  0.00  0.00    +0.000 C 
ENDBRANCH   6  14
ENDBRANCH   5  11
ENDBRANCH   1   5
BRANCH   2  15
ATOM     15  O   UNL     1       6.891   4.783  16.775  0.00  0.00    +0.000 OA
BRANCH  15  16
ATOM     16  C   UNL     1       5.800   4.747  15.836  0.00  0.00    +0.000 C 
BRANCH  16  17
ATOM     17  C   UNL     1       6.245   4.551  14.400  0.00  0.00    +0.000 A 
ATOM     18  C   UNL     1       7.387   5.171  13.880  0.00  0.00    +0.000 A 
ATOM     19  C   UNL     1       7.796   4.930  12.562  0.00  0.00    +0.000 A 
ATOM     20  C   UNL     1       7.072   4.053  11.753  0.00  0.00    +0.000 A 
ATOM     21  C   UNL     1       5.947   3.412  12.261  0.00  0.00    +0.000 A 
ATOM     22  C   UNL     1       5.536   3.656  13.578  0.00  0.00    +0.000 A 
ENDBRANCH  16  17
ENDBRANCH  15  16
ENDBRANCH   2  15
TORSDOF 6
ENDMDL
MODEL 6
REMARK VINA RESULT:      -7.3      1.680      2.117
REMARK  Name = 
REMARK  6 active torsions:
REMARK  status: ('A' for Active; 'I' for Inactive)
REMARK    1  A    between atoms: C_2  and  C_3
REMARK    2  A    between atoms: C_8  and  C_10
REMARK    3  A    between atoms: C_10  and  N_11
REMARK    4  A    between atoms: C_12  and  O_14
REMARK    5  A    between atoms: O_14  and  C_15
REMARK    6  A    between atoms: C_15  and  C_16
REMARK                            x       y       z     vdW  Elec       q    Type
REMARK                         _______ _______ _______ _____ _____    ______ ____
ROOT
ATOM      1  N   UNL     1       4.436   6.988  17.343  0.00  0.00    +0.000 N 
ATOM      2  C   UNL     1       4.857   6.471  16.153  0.00  0.00    +0.000 C 
ATOM      3  O   UNL     1       5.170   7.204  15.225  0.00  0.00    +0.000 OA
ATOM      4  H   UNL     1       4.550   7.989  17.410  0.00  0.00    +0.000 HD
ENDROOT
BRANCH   1   5
ATOM      5  C   UNL     1       3.464   6.357  18.210  0.00  0.00    +0.000 C 
BRANCH   5  11
ATOM      6  C   UNL     1       3.691   2.814  19.683  0.00  0.00    +0.000 C 
ATOM      7  C   UNL     1       3.333   1.654  18.750  0.00  0.00    +0.000 C 
ATOM      8  C   UNL     1       2.352   2.222  17.715  0.00  0.00    +0.000 C 
ATOM      9  C   UNL     1       2.213   3.701  18.036  0.00  0.00    +0.000 C 
ATOM     10  N   UNL     1       3.350   3.988  18.887  0.00  0.00    +0.000 N 
ATOM     11  C   UNL     1       3.977   5.203  19.082  0.00  0.00    +0.000 C 
ATOM     12  O   UNL     1       4.884   5.334  19.901  0.00  0.00    +0.000 OA
BRANCH   6  14
ATOM     13  N   UNL     1       2.315   2.726  21.942  0.00  0.00    +0.000 NA
ATOM     14  C   UNL     1       2.902   2.750  20.936  0.00  0.00    +0.000 C 
ENDBRANCH   6  14
ENDBRANCH   5  11
ENDBRANCH   1   5
BRANCH   2  15
ATOM     15  O   UNL     1       4.875   5.116  16.133  0.00  0.00    +0.000 OA
BRANCH  15  16
ATOM     16  C   UNL     1       6.167   4.524  15.905  0.00  0.00    +0.000 C 
BRANCH  16  17
ATOM     17  C   UNL     1       6.508   4.361  14.436  0.00  0.00    +0.000 A 
ATOM     18  C   UNL     1       5.785   3.510  13.592  0.00  0.00    +0.000 A 
ATOM     19  C   UNL     1       6.097   3.420  12.229  0.00  0.00    +0.000 A 
ATOM     20  C   UNL     1       7.127   4.192  11.692  0.00  0.00    +0.000 A 
ATOM     21  C   UNL     1       7.841   5.059  12.514  0.00  0.00    +0.000 A 
ATOM     22  C   UNL     1       7.532   5.146  13.878  0.00  0.00    +0.000 A 
ENDBRANCH  16  17
ENDBRANCH  15  16
ENDBRANCH   2  15
TORSDOF 6
ENDMDL
MODEL 7
REMARK VINA RESULT:      -7.2      1.126      1.253
REMARK  Name = 
REMARK  6 active torsions:
REMARK  status: ('A' for Active; 'I' for Inactive)
REMARK    1  A    between atoms: C_2  and  C_3
REMARK    2  A    between atoms: C_8  and  C_10
REMARK    3  A    between atoms: C_10  and  N_11
REMARK    4  A    between atoms: C_12  and  O_14
REMARK    5  A    between atoms: O_14  and  C_15
REMARK    6  A    between atoms: C_15  and  C_16
REMARK                            x       y       z     vdW  Elec       q    Type
REMARK                         _______ _______ _______ _____ _____    ______ ____
ROOT
ATOM      1  N   UNL     1       6.195   6.119  18.303  0.00  0.00    +0.000 N 
ATOM      2  C   UNL     1       6.925   6.085  17.151  0.00  0.00    +0.000 C 
ATOM      3  O   UNL     1       7.772   6.936  16.919  0.00  0.00    +0.000 OA
ATOM      4  H   UNL     1       6.523   6.805  18.968  0.00  0.00    +0.000 HD
ENDROOT
BRANCH   1   5
ATOM      5  C   UNL     1       4.824   5.668  18.416  0.00  0.00    +0.000 C 
BRANCH   5  11
ATOM      6  C   UNL     1       2.948   2.552  19.658  0.00  0.00    +0.000 C 
ATOM      7  C   UNL     1       1.720   2.118  18.852  0.00  0.00    +0.000 C 
ATOM      8  C   UNL     1       1.173   3.387  18.184  0.00  0.00    +0.000 C 
ATOM      9  C   UNL     1       2.126   4.507  18.569  0.00  0.00    +0.000 C 
ATOM     10  N   UNL     1       3.313   3.820  19.035  0.00  0.00    +0.000 N 
ATOM     11  C   UNL     1       4.611   4.291  19.058  0.00  0.00    +0.000 C 
ATOM     12  O   UNL     1       5.523   3.638  19.561  0.00  0.00    +0.000 OA
BRANCH   6  14
ATOM     13  N   UNL     1       2.383   2.829  22.228  0.00  0.00    +0.000 NA
ATOM     14  C   UNL     1       2.609   2.720  21.090  0.00  0.00    +0.000 C 
ENDBRANCH   6  14
ENDBRANCH   5  11
ENDBRANCH   1   5
BRANCH   2  15
ATOM     15  O   UNL     1       6.602   5.047  16.342  0.00  0.00    +0.000 OA
BRANCH  15  16
ATOM     16  C   UNL     1       5.744   5.378  15.234  0.00  0.00    +0.000 C 
BRANCH  16  17
ATOM     17  C   UNL     1       6.095   4.642  13.956  0.00  0.00    +0.000 A 
ATOM     18  C   UNL     1       5.238   3.697  13.380  0.00  0.00    +0.000 A 
ATOM     19  C   UNL     1       5.572   3.070  12.172  0.00  0.00    +0.000 A 
ATOM     20  C   UNL     1       6.763   3.392  11.521  0.00  0.00    +0.000 A 
ATOM     21  C   UNL     1       7.615   4.344  12.070  0.00  0.00    +0.000 A 
ATOM     22  C   UNL     1       7.283   4.969  13.279  0.00  0.00    +0.000 A 
ENDBRANCH  16  17
ENDBRANCH  15  16
ENDBRANCH   2  15
TORSDOF 6
ENDMDL
MODEL 8
REMARK VINA RESULT:      -7.2      1.543      1.748
REMARK  Name = 
REMARK  6 active torsions:
REMARK  status: ('A' for Active; 'I' for Inactive)
REMARK    1  A    between atoms: C_2  and  C_3
REMARK    2  A    between atoms: C_8  and  C_10
REMARK    3  A    between atoms: C_10  and  N_11
REMARK    4  A    between atoms: C_12  and  O_14
REMARK    5  A    between atoms: O_14  and  C_15
REMARK    6  A    between atoms: C_15  and  C_16
REMARK                            x       y       z     vdW  Elec       q    Type
REMARK                         _______ _______ _______ _____ _____    ______ ____
ROOT
ATOM      1  N   UNL     1       5.327   3.522  17.727  0.00  0.00    +0.000 N 
ATOM      2  C   UNL     1       6.257   4.520  17.704  0.00  0.00    +0.000 C 
ATOM      3  O   UNL     1       7.074   4.638  18.607  0.00  0.00    +0.000 OA
ATOM      4  H   UNL     1       5.482   2.844  18.460  0.00  0.00    +0.000 HD
ENDROOT
BRANCH   1   5
ATOM      5  C   UNL     1       3.992   3.636  17.180  0.00  0.00    +0.000 C 
BRANCH   5  11
ATOM      6  C   UNL     1       1.501   3.812  20.101  0.00  0.00    +0.000 C 
ATOM      7  C   UNL     1       1.037   5.207  20.530  0.00  0.00    +0.000 C 
ATOM      8  C   UNL     1       2.167   6.173  20.149  0.00  0.00    +0.000 C 
ATOM      9  C   UNL     1       3.227   5.327  19.460  0.00  0.00    +0.000 C 
ATOM     10  N   UNL     1       2.534   4.103  19.113  0.00  0.00    +0.000 N 
ATOM     11  C   UNL     1       2.841   3.214  18.101  0.00  0.00    +0.000 C 
ATOM     12  O   UNL     1       2.223   2.160  17.963  0.00  0.00    +0.000 OA
BRANCH   6  14
ATOM     13  N   UNL     1       2.503   2.494  22.166  0.00  0.00    +0.000 NA
ATOM     14  C   UNL     1       2.042   3.056  21.255  0.00  0.00    +0.000 C 
ENDBRANCH   6  14
ENDBRANCH   5  11
ENDBRANCH   1   5
BRANCH   2  15
ATOM     15  O   UNL     1       6.157   5.321  16.616  0.00  0.00    +0.000 OA
BRANCH  15  16
ATOM     16  C   UNL     1       7.320   5.349  15.767  0.00  0.00    +0.000 C 
BRANCH  16  17
ATOM     17  C   UNL     1       7.072   4.781  14.383  0.00  0.00    +0.000 A 
ATOM     18  C   UNL     1       6.079   3.826  14.135  0.00  0.00    +0.000 A 
ATOM     19  C   UNL     1       5.845   3.358  12.835  0.00  0.00    +0.000 A 
ATOM     20  C   UNL     1       6.593   3.851  11.766  0.00  0.00    +0.000 A 
ATOM     21  C   UNL     1       7.569   4.817  11.993  0.00  0.00    +0.000 A 
ATOM     22  C   UNL     1       7.806   5.283  13.293  0.00  0.00    +0.000 A 
ENDBRANCH  16  17
ENDBRANCH  15  16
ENDBRANCH   2  15
TORSDOF 6
ENDMDL
MODEL 9
REMARK VINA RESULT:      -7.1      1.619      2.410
REMARK  Name = 
REMARK  6 active torsions:
REMARK  status: ('A' for Active; 'I' for Inactive)
REMARK    1  A    between atoms: C_2  and  C_3
REMARK    2  A    between atoms: C_8  and  C_10
REMARK    3  A    between atoms: C_10  and  N_11
REMARK    4  A    between atoms: C_12  and  O_14
REMARK    5  A    between atoms: O_14  and  C_15
REMARK    6  A    between atoms: C_15  and  C_16
REMARK                            x       y       z     vdW  Elec       q    Type
REMARK                         _______ _______ _______ _____ _____    ______ ____
ROOT
ATOM      1  N   UNL     1       6.149   4.713  19.036  0.00  0.00    +0.000 N 
ATOM      2  C   UNL     1       6.962   4.713  17.940  0.00  0.00    +0.000 C 
ATOM      3  O   UNL     1       8.111   4.299  18.011  0.00  0.00    +0.000 OA
ATOM      4  H   UNL     1       6.539   4.221  19.827  0.00  0.00    +0.000 HD
ENDROOT
BRANCH   1   5
ATOM      5  C   UNL     1       5.121   5.700  19.290  0.00  0.00    +0.000 C 
BRANCH   5  11
ATOM      6  C   UNL     1       1.639   4.088  19.065  0.00  0.00    +0.000 C 
ATOM      7  C   UNL     1       0.939   3.768  20.390  0.00  0.00    +0.000 C 
ATOM      8  C   UNL     1       2.052   3.551  21.424  0.00  0.00    +0.000 C 
ATOM      9  C   UNL     1       3.360   3.806  20.692  0.00  0.00    +0.000 C 
ATOM     10  N   UNL     1       2.964   4.522  19.496  0.00  0.00    +0.000 N 
ATOM     11  C   UNL     1       3.725   5.388  18.735  0.00  0.00    +0.000 C 
ATOM     12  O   UNL     1       3.298   5.868  17.687  0.00  0.00    +0.000 OA
BRANCH   6  14
ATOM     13  N   UNL     1       1.778   1.971  17.484  0.00  0.00    +0.000 NA
ATOM     14  C   UNL     1       1.707   2.887  18.200  0.00  0.00    +0.000 C 
ENDBRANCH   6  14
ENDBRANCH   5  11
ENDBRANCH   1   5
BRANCH   2  15
ATOM     15  O   UNL     1       6.366   5.210  16.829  0.00  0.00    +0.000 OA
BRANCH  15  16
ATOM     16  C   UNL     1       5.785   4.226  15.953  0.00  0.00    +0.000 C 
BRANCH  16  17
ATOM     17  C   UNL     1       6.279   4.324  14.523  0.00  0.00    +0.000 A 
ATOM     18  C   UNL     1       7.324   5.177  14.150  0.00  0.00    +0.000 A 
ATOM     19  C   UNL     1       7.787   5.207  12.828  0.00  0.00    +0.000 A 
ATOM     20  C   UNL     1       7.217   4.372  11.866  0.00  0.00    +0.000 A 
ATOM     21  C   UNL     1       6.192   3.503  12.226  0.00  0.00    +0.000 A 
ATOM     22  C   UNL     1       5.727   3.475  13.547  0.00  0.00    +0.000 A 
ENDBRANCH  16  17
ENDBRANCH  15  16
ENDBRANCH   2  15
TORSDOF 6
ENDMDL
