MODEL 1
REMARK VINA RESULT:      -9.4      0.000      0.000
REMARK  Name = 
REMARK  6 active torsions:
REMARK  status: ('A' for Active; 'I' for Inactive)
REMARK    1  A    between atoms: C_4  and  C_5
REMARK    2  A    between atoms: N_10  and  C_11
REMARK    3  A    between atoms: N_20  and  C_21
REMARK    4  A    between atoms: C_21  and  C_22
REMARK    5  A    between atoms: C_21  and  C_24
REMARK    6  A    between atoms: C_22  and  O_23
REMARK                            x       y       z     vdW  Elec       q    Type
REMARK                         _______ _______ _______ _____ _____    ______ ____
ROOT
ATOM      1  O   UNL     1       1.995   9.823  17.613  0.00  0.00    +0.000 OA
ATOM      2  C   UNL     1       1.726   9.233  18.656  0.00  0.00    +0.000 A 
ATOM      3  C   UNL     1       2.163   7.818  18.795  0.00  0.00    +0.000 A 
ATOM      4  C   UNL     1       1.934   7.111  19.919  0.00  0.00    +0.000 A 
ATOM      5  C   UNL     1       1.308   7.797  21.035  0.00  0.00    +0.000 A 
ATOM      6  C   UNL     1       0.846   9.048  20.902  0.00  0.00    +0.000 A 
ATOM      7  N   UNL     1       1.001   9.764  19.724  0.00  0.00    +0.000 N 
ENDROOT
BRANCH   4   8
ATOM      8  C   UNL     1       2.316   5.677  19.931  0.00  0.00    +0.000 A 
ATOM      9  C   UNL     1       1.834   4.805  20.888  0.00  0.00    +0.000 A 
ATOM     10  C   UNL     1       2.191   3.493  20.733  0.00  0.00    +0.000 A 
ATOM     11  N   UNL     1       2.963   3.045  19.724  0.00  0.00    +0.000 NA
ATOM     12  C   UNL     1       3.394   3.953  18.842  0.00  0.00    +0.000 A 
ATOM     13  N   UNL     1       4.152   3.480  17.786  0.00  0.00    +0.000 N 
ATOM     14  N   UNL     1       3.104   5.256  18.919  0.00  0.00    +0.000 NA
ATOM     15  H   UNL     1       4.431   2.528  17.992  0.00  0.00    +0.000 HD
BRANCH  13  16
ATOM     16  C   UNL     1       5.172   4.369  17.237  0.00  0.00    +0.000 C 
ATOM     17  C   UNL     1       5.606   3.841  15.866  0.00  0.00    +0.000 C 
ATOM     18  C   UNL     1       6.798   4.626  15.337  0.00  0.00    +0.000 C 
ATOM     19  O   UNL     1       7.869   4.612  16.279  0.00  0.00    +0.000 OA
ATOM     20  C   UNL     1       7.507   5.244  17.506  0.00  0.00    +0.000 C 
ATOM     21  C   UNL     1       6.373   4.486  18.182  0.00  0.00    +0.000 C 
ENDBRANCH  13  16
ENDBRANCH   4   8
BRANCH   7  22
ATOM     22  C   UNL     1       0.417  11.125  19.624  0.00  0.00    +0.000 C 
BRANCH  22  23
ATOM     23  C   UNL     1      -0.947  11.103  18.931  0.00  0.00    +0.000 A 
ATOM     24  C   UNL     1      -1.975  11.957  19.375  0.00  0.00    +0.000 A 
ATOM     25  C   UNL     1      -3.263  11.883  18.830  0.00  0.00    +0.000 A 
ATOM     26  C   UNL     1      -3.543  10.956  17.831  0.00  0.00    +0.000 A 
ATOM     27  C   UNL     1      -2.527  10.136  17.362  0.00  0.00    +0.000 A 
ATOM     28  F   UNL     1      -2.793   9.250  16.392  0.00  0.00    +0.000 F 
ATOM     29  C   UNL     1      -1.242  10.205  17.894  0.00  0.00    +0.000 A 
ENDBRANCH  22  23
BRANCH  22  30
ATOM     30  C   UNL     1       1.401  12.185  19.064  0.00  0.00    +0.000 C 
BRANCH  30  31
ATOM     31  O   UNL     1       0.980  12.680  17.787  0.00  0.00    +0.000 OA
ATOM     32  H   UNL     1       0.252  13.305  17.932  0.00  0.00    +0.000 HD
ENDBRANCH  30  31
ENDBRANCH  22  30
ENDBRANCH   7  22
TORSDOF 6
ENDMDL
MODEL 2
REMARK VINA RESULT:      -9.3      0.823      1.201
REMARK  Name = 
REMARK  6 active torsions:
REMARK  status: ('A' for Active; 'I' for Inactive)
REMARK    1  A    between atoms: C_4  and  C_5
REMARK    2  A    between atoms: N_10  and  C_11
REMARK    3  A    between atoms: N_20  and  C_21
REMARK    4  A    between atoms: C_21  and  C_22
REMARK    5  A    between atoms: C_21  and  C_24
REMARK    6  A    between atoms: C_22  and  O_23
REMARK                            x       y       z     vdW  Elec       q    Type
REMARK                         _______ _______ _______ _____ _____    ______ ____
ROOT
ATOM      1  O   UNL     1       2.071   9.671  17.518  0.00  0.00    +0.000 OA
ATOM      2  C   UNL     1       1.780   9.091  18.561  0.00  0.00    +0.000 A 
ATOM      3  C   UNL     1       2.277   7.703  18.755  0.00  0.00    +0.000 A 
ATOM      4  C   UNL     1       2.027   7.010  19.883  0.00  0.00    +0.000 A 
ATOM      5  C   UNL     1       1.314   7.688  20.950  0.00  0.00    +0.000 A 
ATOM      6  C   UNL     1       0.800   8.911  20.765  0.00  0.00    +0.000 A 
ATOM      7  N   UNL     1       0.977   9.608  19.579  0.00  0.00    +0.000 N 
ENDROOT
BRANCH   4   8
ATOM      8  C   UNL     1       2.477   5.597  19.948  0.00  0.00    +0.000 A 
ATOM      9  C   UNL     1       2.101   4.762  20.982  0.00  0.00    +0.000 A 
ATOM     10  C   UNL     1       2.509   3.460  20.876  0.00  0.00    +0.000 A 
ATOM     11  N   UNL     1       3.234   2.988  19.843  0.00  0.00    +0.000 NA
ATOM     12  C   UNL     1       3.563   3.862  18.885  0.00  0.00    +0.000 A 
ATOM     13  N   UNL     1       4.270   3.362  17.807  0.00  0.00    +0.000 N 
ATOM     14  N   UNL     1       3.216   5.152  18.909  0.00  0.00    +0.000 NA
ATOM     15  H   UNL     1       4.607   2.436  18.046  0.00  0.00    +0.000 HD
BRANCH  13  16
ATOM     16  C   UNL     1       5.209   4.261  17.142  0.00  0.00    +0.000 C 
ATOM     17  C   UNL     1       5.639   3.635  15.811  0.00  0.00    +0.000 C 
ATOM     18  C   UNL     1       6.757   4.444  15.170  0.00  0.00    +0.000 C 
ATOM     19  O   UNL     1       7.853   4.593  16.070  0.00  0.00    +0.000 OA
ATOM     20  C   UNL     1       7.483   5.313  17.244  0.00  0.00    +0.000 C 
ATOM     21  C   UNL     1       6.425   4.548  18.028  0.00  0.00    +0.000 C 
ENDBRANCH  13  16
ENDBRANCH   4   8
BRANCH   7  22
ATOM     22  C   UNL     1       0.334  10.936  19.418  0.00  0.00    +0.000 C 
BRANCH  22  23
ATOM     23  C   UNL     1      -1.031  10.822  18.737  0.00  0.00    +0.000 A 
ATOM     24  C   UNL     1      -1.191   9.978  17.620  0.00  0.00    +0.000 A 
ATOM     25  C   UNL     1      -2.399   9.935  16.913  0.00  0.00    +0.000 A 
ATOM     26  C   UNL     1      -3.467  10.731  17.313  0.00  0.00    +0.000 A 
ATOM     27  C   UNL     1      -3.331  11.538  18.433  0.00  0.00    +0.000 A 
ATOM     28  F   UNL     1      -4.363  12.297  18.826  0.00  0.00    +0.000 F 
ATOM     29  C   UNL     1      -2.135  11.584  19.147  0.00  0.00    +0.000 A 
ENDBRANCH  22  23
BRANCH  22  30
ATOM     30  C   UNL     1       1.269  12.010  18.802  0.00  0.00    +0.000 C 
BRANCH  30  31
ATOM     31  O   UNL     1       0.574  12.848  17.870  0.00  0.00    +0.000 OA
ATOM     32  H   UNL     1      -0.258  12.410  17.633  0.00  0.00    +0.000 HD
ENDBRANCH  30  31
ENDBRANCH  22  30
ENDBRANCH   7  22
TORSDOF 6
ENDMDL
MODEL 3
REMARK VINA RESULT:      -9.1      2.136      3.524
REMARK  Name = 
REMARK  6 active torsions:
REMARK  status: ('A' for Active; 'I' for Inactive)
REMARK    1  A    between atoms: C_4  and  C_5
REMARK    2  A    between atoms: N_10  and  C_11
REMARK    3  A    between atoms: N_20  and  C_21
REMARK    4  A    between atoms: C_21  and  C_22
REMARK    5  A    between atoms: C_21  and  C_24
REMARK    6  A    between atoms: C_22  and  O_23
REMARK                            x       y       z     vdW  Elec       q    Type
REMARK                         _______ _______ _______ _____ _____    ______ ____
ROOT
ATOM      1  O   UNL     1       0.791   8.138  21.196  0.00  0.00    +0.000 OA
ATOM      2  C   UNL     1       1.345   8.298  20.111  0.00  0.00    +0.000 A 
ATOM      3  C   UNL     1       2.295   7.253  19.646  0.00  0.00    +0.000 A 
ATOM      4  C   UNL     1       2.919   7.338  18.456  0.00  0.00    +0.000 A 
ATOM      5  C   UNL     1       2.581   8.456  17.593  0.00  0.00    +0.000 A 
ATOM      6  C   UNL     1       1.783   9.441  18.025  0.00  0.00    +0.000 A 
ATOM      7  N   UNL     1       1.195   9.409  19.280  0.00  0.00    +0.000 N 
ENDROOT
BRANCH   4   8
ATOM      8  C   UNL     1       3.925   6.301  18.118  0.00  0.00    +0.000 A 
ATOM      9  C   UNL     1       4.946   6.543  17.221  0.00  0.00    +0.000 A 
ATOM     10  C   UNL     1       5.857   5.532  17.067  0.00  0.00    +0.000 A 
ATOM     11  N   UNL     1       5.793   4.363  17.732  0.00  0.00    +0.000 NA
ATOM     12  C   UNL     1       4.770   4.204  18.579  0.00  0.00    +0.000 A 
ATOM     13  N   UNL     1       4.733   3.018  19.289  0.00  0.00    +0.000 N 
ATOM     14  N   UNL     1       3.829   5.130  18.786  0.00  0.00    +0.000 NA
ATOM     15  H   UNL     1       5.392   2.372  18.870  0.00  0.00    +0.000 HD
BRANCH  13  16
ATOM     16  C   UNL     1       3.420   2.489  19.649  0.00  0.00    +0.000 C 
ATOM     17  C   UNL     1       2.495   2.584  18.432  0.00  0.00    +0.000 C 
ATOM     18  C   UNL     1       1.066   2.219  18.810  0.00  0.00    +0.000 C 
ATOM     19  O   UNL     1       0.609   3.027  19.893  0.00  0.00    +0.000 OA
ATOM     20  C   UNL     1       1.383   2.821  21.073  0.00  0.00    +0.000 C 
ATOM     21  C   UNL     1       2.828   3.243  20.844  0.00  0.00    +0.000 C 
ENDBRANCH  13  16
ENDBRANCH   4   8
BRANCH   7  22
ATOM     22  C   UNL     1       0.365  10.560  19.719  0.00  0.00    +0.000 C 
BRANCH  22  23
ATOM     23  C   UNL     1      -0.892  10.706  18.860  0.00  0.00    +0.000 A 
ATOM     24  C   UNL     1      -1.921  11.581  19.262  0.00  0.00    +0.000 A 
ATOM     25  C   UNL     1      -3.126  11.655  18.553  0.00  0.00    +0.000 A 
ATOM     26  C   UNL     1      -3.321  10.859  17.429  0.00  0.00    +0.000 A 
ATOM     27  C   UNL     1      -2.300  10.021  17.004  0.00  0.00    +0.000 A 
ATOM     28  F   UNL     1      -2.483   9.262  15.916  0.00  0.00    +0.000 F 
ATOM     29  C   UNL     1      -1.095   9.944  17.700  0.00  0.00    +0.000 A 
ENDBRANCH  22  23
BRANCH  22  30
ATOM     30  C   UNL     1       1.170  11.873  19.904  0.00  0.00    +0.000 C 
BRANCH  30  31
ATOM     31  O   UNL     1       1.510  12.100  21.277  0.00  0.00    +0.000 OA
ATOM     32  H   UNL     1       0.688  12.127  21.790  0.00  0.00    +0.000 HD
ENDBRANCH  30  31
ENDBRANCH  22  30
ENDBRANCH   7  22
TORSDOF 6
ENDMDL
MODEL 4
REMARK VINA RESULT:      -9.0      0.975      1.315
REMARK  Name = 
REMARK  6 active torsions:
REMARK  status: ('A' for Active; 'I' for Inactive)
REMARK    1  A    between atoms: C_4  and  C_5
REMARK    2  A    between atoms: N_10  and  C_11
REMARK    3  A    between atoms: N_20  and  C_21
REMARK    4  A    between atoms: C_21  and  C_22
REMARK    5  A    between atoms: C_21  and  C_24
REMARK    6  A    between atoms: C_22  and  O_23
REMARK                            x       y       z     vdW  Elec       q    Type
REMARK                         _______ _______ _______ _____ _____    ______ ____
ROOT
ATOM      1  O   UNL     1       0.318   9.146  21.754  0.00  0.00    +0.000 OA
ATOM      2  C   UNL     1       0.898   8.753  20.746  0.00  0.00    +0.000 A 
ATOM      3  C   UNL     1       1.420   7.361  20.733  0.00  0.00    +0.000 A 
ATOM      4  C   UNL     1       2.041   6.844  19.655  0.00  0.00    +0.000 A 
ATOM      5  C   UNL     1       2.124   7.668  18.462  0.00  0.00    +0.000 A 
ATOM      6  C   UNL     1       1.723   8.946  18.480  0.00  0.00    +0.000 A 
ATOM      7  N   UNL     1       1.155   9.519  19.607  0.00  0.00    +0.000 N 
ENDROOT
BRANCH   4   8
ATOM      8  C   UNL     1       2.617   5.481  19.767  0.00  0.00    +0.000 A 
ATOM      9  C   UNL     1       2.386   4.683  20.871  0.00  0.00    +0.000 A 
ATOM     10  C   UNL     1       2.900   3.416  20.808  0.00  0.00    +0.000 A 
ATOM     11  N   UNL     1       3.593   2.944  19.754  0.00  0.00    +0.000 NA
ATOM     12  C   UNL     1       3.778   3.781  18.728  0.00  0.00    +0.000 A 
ATOM     13  N   UNL     1       4.454   3.276  17.632  0.00  0.00    +0.000 N 
ATOM     14  N   UNL     1       3.321   5.036  18.704  0.00  0.00    +0.000 NA
ATOM     15  H   UNL     1       4.887   2.399  17.897  0.00  0.00    +0.000 HD
BRANCH  13  16
ATOM     16  C   UNL     1       5.263   4.209  16.851  0.00  0.00    +0.000 C 
ATOM     17  C   UNL     1       5.684   3.528  15.544  0.00  0.00    +0.000 C 
ATOM     18  C   UNL     1       6.681   4.390  14.783  0.00  0.00    +0.000 C 
ATOM     19  O   UNL     1       7.802   4.710  15.605  0.00  0.00    +0.000 OA
ATOM     20  C   UNL     1       7.423   5.478  16.746  0.00  0.00    +0.000 C 
ATOM     21  C   UNL     1       6.489   4.676  17.642  0.00  0.00    +0.000 C 
ENDBRANCH  13  16
ENDBRANCH   4   8
BRANCH   7  22
ATOM     22  C   UNL     1       0.782  10.956  19.578  0.00  0.00    +0.000 C 
BRANCH  22  23
ATOM     23  C   UNL     1      -0.662  11.154  19.115  0.00  0.00    +0.000 A 
ATOM     24  C   UNL     1      -1.468  12.136  19.724  0.00  0.00    +0.000 A 
ATOM     25  C   UNL     1      -2.823  12.266  19.395  0.00  0.00    +0.000 A 
ATOM     26  C   UNL     1      -3.393  11.420  18.449  0.00  0.00    +0.000 A 
ATOM     27  C   UNL     1      -2.599  10.474  17.817  0.00  0.00    +0.000 A 
ATOM     28  F   UNL     1      -3.144   9.665  16.899  0.00  0.00    +0.000 F 
ATOM     29  C   UNL     1      -1.249  10.339  18.134  0.00  0.00    +0.000 A 
ENDBRANCH  22  23
BRANCH  22  30
ATOM     30  C   UNL     1       1.816  11.852  18.846  0.00  0.00    +0.000 C 
BRANCH  30  31
ATOM     31  O   UNL     1       1.207  12.629  17.809  0.00  0.00    +0.000 OA
ATOM     32  H   UNL     1       1.283  13.566  18.050  0.00  0.00    +0.000 HD
ENDBRANCH  30  31
ENDBRANCH  22  30
ENDBRANCH   7  22
TORSDOF 6
ENDMDL
MODEL 5
REMARK VINA RESULT:      -9.0      2.260      3.706
REMARK  Name = 
REMARK  6 active torsions:
REMARK  status: ('A' for Active; 'I' for Inactive)
REMARK    1  A    between atoms: C_4  and  C_5
REMARK    2  A    between atoms: N_10  and  C_11
REMARK    3  A    between atoms: N_20  and  C_21
REMARK    4  A    between atoms: C_21  and  C_22
REMARK    5  A    between atoms: C_21  and  C_24
REMARK    6  A    between atoms: C_22  and  O_23
REMARK                            x       y       z     vdW  Elec       q    Type
REMARK                         _______ _______ _______ _____ _____    ______ ____
ROOT
ATOM      1  O   UNL     1       0.837   8.118  21.189  0.00  0.00    +0.000 OA
ATOM      2  C   UNL     1       1.390   8.271  20.103  0.00  0.00    +0.000 A 
ATOM      3  C   UNL     1       2.340   7.223  19.645  0.00  0.00    +0.000 A 
ATOM      4  C   UNL     1       2.964   7.301  18.454  0.00  0.00    +0.000 A 
ATOM      5  C   UNL     1       2.625   8.413  17.583  0.00  0.00    +0.000 A 
ATOM      6  C   UNL     1       1.826   9.401  18.009  0.00  0.00    +0.000 A 
ATOM      7  N   UNL     1       1.239   9.377  19.265  0.00  0.00    +0.000 N 
ENDROOT
BRANCH   4   8
ATOM      8  C   UNL     1       3.969   6.262  18.122  0.00  0.00    +0.000 A 
ATOM      9  C   UNL     1       4.999   6.503  17.234  0.00  0.00    +0.000 A 
ATOM     10  C   UNL     1       5.909   5.491  17.085  0.00  0.00    +0.000 A 
ATOM     11  N   UNL     1       5.835   4.320  17.747  0.00  0.00    +0.000 NA
ATOM     12  C   UNL     1       4.805   4.162  18.585  0.00  0.00    +0.000 A 
ATOM     13  N   UNL     1       4.759   2.974  19.292  0.00  0.00    +0.000 N 
ATOM     14  N   UNL     1       3.865   5.090  18.787  0.00  0.00    +0.000 NA
ATOM     15  H   UNL     1       5.420   2.328  18.878  0.00  0.00    +0.000 HD
BRANCH  13  16
ATOM     16  C   UNL     1       3.442   2.448  19.640  0.00  0.00    +0.000 C 
ATOM     17  C   UNL     1       2.522   2.562  18.419  0.00  0.00    +0.000 C 
ATOM     18  C   UNL     1       1.090   2.201  18.787  0.00  0.00    +0.000 C 
ATOM     19  O   UNL     1       0.633   2.998  19.878  0.00  0.00    +0.000 OA
ATOM     20  C   UNL     1       1.399   2.774  21.059  0.00  0.00    +0.000 C 
ATOM     21  C   UNL     1       2.848   3.191  20.842  0.00  0.00    +0.000 C 
ENDBRANCH  13  16
ENDBRANCH   4   8
BRANCH   7  22
ATOM     22  C   UNL     1       0.409  10.530  19.697  0.00  0.00    +0.000 C 
BRANCH  22  23
ATOM     23  C   UNL     1      -0.905  10.601  18.917  0.00  0.00    +0.000 A 
ATOM     24  C   UNL     1      -1.056   9.865  17.725  0.00  0.00    +0.000 A 
ATOM     25  C   UNL     1      -2.206   9.993  16.936  0.00  0.00    +0.000 A 
ATOM     26  C   UNL     1      -3.225  10.855  17.328  0.00  0.00    +0.000 A 
ATOM     27  C   UNL     1      -3.102  11.556  18.519  0.00  0.00    +0.000 A 
ATOM     28  F   UNL     1      -4.087  12.378  18.903  0.00  0.00    +0.000 F 
ATOM     29  C   UNL     1      -1.964  11.432  19.313  0.00  0.00    +0.000 A 
ENDBRANCH  22  23
BRANCH  22  30
ATOM     30  C   UNL     1       1.189  11.870  19.758  0.00  0.00    +0.000 C 
BRANCH  30  31
ATOM     31  O   UNL     1       1.529  12.225  21.103  0.00  0.00    +0.000 OA
ATOM     32  H   UNL     1       1.841  11.427  21.556  0.00  0.00    +0.000 HD
ENDBRANCH  30  31
ENDBRANCH  22  30
ENDBRANCH   7  22
TORSDOF 6
ENDMDL
MODEL 6
REMARK VINA RESULT:      -8.9      2.012      3.131
REMARK  Name = 
REMARK  6 active torsions:
REMARK  status: ('A' for Active; 'I' for Inactive)
REMARK    1  A    between atoms: C_4  and  C_5
REMARK    2  A    between atoms: N_10  and  C_11
REMARK    3  A    between atoms: N_20  and  C_21
REMARK    4  A    between atoms: C_21  and  C_22
REMARK    5  A    between atoms: C_21  and  C_24
REMARK    6  A    between atoms: C_22  and  O_23
REMARK                            x       y       z     vdW  Elec       q    Type
REMARK                         _______ _______ _______ _____ _____    ______ ____
ROOT
ATOM      1  O   UNL     1       2.127   9.899  17.196  0.00  0.00    +0.000 OA
ATOM      2  C   UNL     1       1.814   9.413  18.280  0.00  0.00    +0.000 A 
ATOM      3  C   UNL     1       2.229   8.015  18.570  0.00  0.00    +0.000 A 
ATOM      4  C   UNL     1       1.951   7.421  19.746  0.00  0.00    +0.000 A 
ATOM      5  C   UNL     1       1.292   8.216  20.768  0.00  0.00    +0.000 A 
ATOM      6  C   UNL     1       0.851   9.452  20.499  0.00  0.00    +0.000 A 
ATOM      7  N   UNL     1       1.056  10.050  19.265  0.00  0.00    +0.000 N 
ENDROOT
BRANCH   4   8
ATOM      8  C   UNL     1       2.315   5.992  19.910  0.00  0.00    +0.000 A 
ATOM      9  C   UNL     1       1.820   5.230  20.950  0.00  0.00    +0.000 A 
ATOM     10  C   UNL     1       2.162   3.904  20.934  0.00  0.00    +0.000 A 
ATOM     11  N   UNL     1       2.932   3.344  19.981  0.00  0.00    +0.000 NA
ATOM     12  C   UNL     1       3.377   4.151  19.012  0.00  0.00    +0.000 A 
ATOM     13  N   UNL     1       4.131   3.562  18.014  0.00  0.00    +0.000 N 
ATOM     14  N   UNL     1       3.101   5.457  18.950  0.00  0.00    +0.000 NA
ATOM     15  H   UNL     1       4.398   2.633  18.319  0.00  0.00    +0.000 HD
BRANCH  13  16
ATOM     16  C   UNL     1       5.164   4.377  17.380  0.00  0.00    +0.000 C 
ATOM     17  C   UNL     1       5.599   3.702  16.075  0.00  0.00    +0.000 C 
ATOM     18  C   UNL     1       6.802   4.413  15.473  0.00  0.00    +0.000 C 
ATOM     19  O   UNL     1       7.868   4.489  16.417  0.00  0.00    +0.000 OA
ATOM     20  C   UNL     1       7.507   5.251  17.568  0.00  0.00    +0.000 C 
ATOM     21  C   UNL     1       6.361   4.580  18.314  0.00  0.00    +0.000 C 
ENDBRANCH  13  16
ENDBRANCH   4   8
BRANCH   7  22
ATOM     22  C   UNL     1       0.492  11.400  19.014  0.00  0.00    +0.000 C 
BRANCH  22  23
ATOM     23  C   UNL     1       1.501  12.501  19.344  0.00  0.00    +0.000 A 
ATOM     24  C   UNL     1       1.630  12.963  20.669  0.00  0.00    +0.000 A 
ATOM     25  C   UNL     1       2.467  14.041  20.981  0.00  0.00    +0.000 A 
ATOM     26  C   UNL     1       3.192  14.673  19.975  0.00  0.00    +0.000 A 
ATOM     27  C   UNL     1       3.100  14.201  18.674  0.00  0.00    +0.000 A 
ATOM     28  F   UNL     1       3.806  14.801  17.706  0.00  0.00    +0.000 F 
ATOM     29  C   UNL     1       2.274  13.126  18.353  0.00  0.00    +0.000 A 
ENDBRANCH  22  23
BRANCH  22  30
ATOM     30  C   UNL     1      -0.913  11.613  19.635  0.00  0.00    +0.000 C 
BRANCH  30  31
ATOM     31  O   UNL     1      -1.659  12.614  18.932  0.00  0.00    +0.000 OA
ATOM     32  H   UNL     1      -1.904  13.307  19.564  0.00  0.00    +0.000 HD
ENDBRANCH  30  31
ENDBRANCH  22  30
ENDBRANCH   7  22
TORSDOF 6
ENDMDL
MODEL 7
REMARK VINA RESULT:      -8.9      1.419      1.882
REMARK  Name = 
REMARK  6 active torsions:
REMARK  status: ('A' for Active; 'I' for Inactive)
REMARK    1  A    between atoms: C_4  and  C_5
REMARK    2  A    between atoms: N_10  and  C_11
REMARK    3  A    between atoms: N_20  and  C_21
REMARK    4  A    between atoms: C_21  and  C_22
REMARK    5  A    between atoms: C_21  and  C_24
REMARK    6  A    between atoms: C_22  and  O_23
REMARK                            x       y       z     vdW  Elec       q    Type
REMARK                         _______ _______ _______ _____ _____    ______ ____
ROOT
ATOM      1  O   UNL     1       0.306   9.006  21.753  0.00  0.00    +0.000 OA
ATOM      2  C   UNL     1       0.901   8.654  20.737  0.00  0.00    +0.000 A 
ATOM      3  C   UNL     1       1.449   7.273  20.686  0.00  0.00    +0.000 A 
ATOM      4  C   UNL     1       2.086   6.801  19.598  0.00  0.00    +0.000 A 
ATOM      5  C   UNL     1       2.161   7.661  18.431  0.00  0.00    +0.000 A 
ATOM      6  C   UNL     1       1.736   8.931  18.484  0.00  0.00    +0.000 A 
ATOM      7  N   UNL     1       1.150   9.459  19.624  0.00  0.00    +0.000 N 
ENDROOT
BRANCH   4   8
ATOM      8  C   UNL     1       2.687   5.446  19.673  0.00  0.00    +0.000 A 
ATOM      9  C   UNL     1       2.499   4.627  20.769  0.00  0.00    +0.000 A 
ATOM     10  C   UNL     1       3.032   3.369  20.673  0.00  0.00    +0.000 A 
ATOM     11  N   UNL     1       3.704   2.926  19.593  0.00  0.00    +0.000 NA
ATOM     12  C   UNL     1       3.849   3.782  18.576  0.00  0.00    +0.000 A 
ATOM     13  N   UNL     1       4.504   3.306  17.455  0.00  0.00    +0.000 N 
ATOM     14  N   UNL     1       3.371   5.030  18.585  0.00  0.00    +0.000 NA
ATOM     15  H   UNL     1       4.958   2.433  17.694  0.00  0.00    +0.000 HD
BRANCH  13  16
ATOM     16  C   UNL     1       5.277   4.264  16.669  0.00  0.00    +0.000 C 
ATOM     17  C   UNL     1       5.680   3.610  15.343  0.00  0.00    +0.000 C 
ATOM     18  C   UNL     1       6.642   4.501  14.572  0.00  0.00    +0.000 C 
ATOM     19  O   UNL     1       7.776   4.831  15.372  0.00  0.00    +0.000 OA
ATOM     20  C   UNL     1       7.410   5.576  16.531  0.00  0.00    +0.000 C 
ATOM     21  C   UNL     1       6.512   4.745  17.438  0.00  0.00    +0.000 C 
ENDBRANCH  13  16
ENDBRANCH   4   8
BRANCH   7  22
ATOM     22  C   UNL     1       0.751  10.889  19.635  0.00  0.00    +0.000 C 
BRANCH  22  23
ATOM     23  C   UNL     1      -0.720  11.065  19.253  0.00  0.00    +0.000 A 
ATOM     24  C   UNL     1      -1.245  10.379  18.141  0.00  0.00    +0.000 A 
ATOM     25  C   UNL     1      -2.557  10.603  17.705  0.00  0.00    +0.000 A 
ATOM     26  C   UNL     1      -3.366  11.514  18.377  0.00  0.00    +0.000 A 
ATOM     27  C   UNL     1      -2.870  12.167  19.496  0.00  0.00    +0.000 A 
ATOM     28  F   UNL     1      -3.652  13.037  20.149  0.00  0.00    +0.000 F 
ATOM     29  C   UNL     1      -1.568  11.948  19.940  0.00  0.00    +0.000 A 
ENDBRANCH  22  23
BRANCH  22  30
ATOM     30  C   UNL     1       1.728  11.814  18.863  0.00  0.00    +0.000 C 
BRANCH  30  31
ATOM     31  O   UNL     1       1.032  12.706  17.984  0.00  0.00    +0.000 OA
ATOM     32  H   UNL     1       1.647  12.984  17.288  0.00  0.00    +0.000 HD
ENDBRANCH  30  31
ENDBRANCH  22  30
ENDBRANCH   7  22
TORSDOF 6
ENDMDL
MODEL 8
REMARK VINA RESULT:      -8.8      2.184      3.313
REMARK  Name = 
REMARK  6 active torsions:
REMARK  status: ('A' for Active; 'I' for Inactive)
REMARK    1  A    between atoms: C_4  and  C_5
REMARK    2  A    between atoms: N_10  and  C_11
REMARK    3  A    between atoms: N_20  and  C_21
REMARK    4  A    between atoms: C_21  and  C_22
REMARK    5  A    between atoms: C_21  and  C_24
REMARK    6  A    between atoms: C_22  and  O_23
REMARK                            x       y       z     vdW  Elec       q    Type
REMARK                         _______ _______ _______ _____ _____    ______ ____
ROOT
ATOM      1  O   UNL     1       2.024   9.906  17.260  0.00  0.00    +0.000 OA
ATOM      2  C   UNL     1       1.750   9.417  18.353  0.00  0.00    +0.000 A 
ATOM      3  C   UNL     1       2.183   8.021  18.627  0.00  0.00    +0.000 A 
ATOM      4  C   UNL     1       1.948   7.423  19.810  0.00  0.00    +0.000 A 
ATOM      5  C   UNL     1       1.318   8.212  20.854  0.00  0.00    +0.000 A 
ATOM      6  C   UNL     1       0.860   9.445  20.602  0.00  0.00    +0.000 A 
ATOM      7  N   UNL     1       1.021  10.046  19.363  0.00  0.00    +0.000 N 
ENDROOT
BRANCH   4   8
ATOM      8  C   UNL     1       2.327   5.996  19.959  0.00  0.00    +0.000 A 
ATOM      9  C   UNL     1       1.844   5.220  20.995  0.00  0.00    +0.000 A 
ATOM     10  C   UNL     1       2.199   3.898  20.966  0.00  0.00    +0.000 A 
ATOM     11  N   UNL     1       2.969   3.354  20.004  0.00  0.00    +0.000 NA
ATOM     12  C   UNL     1       3.402   4.174  19.040  0.00  0.00    +0.000 A 
ATOM     13  N   UNL     1       4.158   3.601  18.033  0.00  0.00    +0.000 N 
ATOM     14  N   UNL     1       3.114   5.478  18.992  0.00  0.00    +0.000 NA
ATOM     15  H   UNL     1       4.435   2.672  18.329  0.00  0.00    +0.000 HD
BRANCH  13  16
ATOM     16  C   UNL     1       5.179   4.432  17.402  0.00  0.00    +0.000 C 
ATOM     17  C   UNL     1       5.595   3.787  16.075  0.00  0.00    +0.000 C 
ATOM     18  C   UNL     1       6.788   4.514  15.471  0.00  0.00    +0.000 C 
ATOM     19  O   UNL     1       7.868   4.569  16.401  0.00  0.00    +0.000 OA
ATOM     20  C   UNL     1       7.525   5.305  17.573  0.00  0.00    +0.000 C 
ATOM     21  C   UNL     1       6.391   4.616  18.322  0.00  0.00    +0.000 C 
ENDBRANCH  13  16
ENDBRANCH   4   8
BRANCH   7  22
ATOM     22  C   UNL     1       0.440  11.393  19.133  0.00  0.00    +0.000 C 
BRANCH  22  23
ATOM     23  C   UNL     1       1.482  12.496  19.328  0.00  0.00    +0.000 A 
ATOM     24  C   UNL     1       2.111  13.076  18.208  0.00  0.00    +0.000 A 
ATOM     25  C   UNL     1       3.143  14.009  18.361  0.00  0.00    +0.000 A 
ATOM     26  C   UNL     1       3.561  14.382  19.635  0.00  0.00    +0.000 A 
ATOM     27  C   UNL     1       2.922  13.845  20.743  0.00  0.00    +0.000 A 
ATOM     28  F   UNL     1       3.316  14.211  21.970  0.00  0.00    +0.000 F 
ATOM     29  C   UNL     1       1.891  12.918  20.602  0.00  0.00    +0.000 A 
ENDBRANCH  22  23
BRANCH  22  30
ATOM     30  C   UNL     1      -0.894  11.633  19.887  0.00  0.00    +0.000 C 
BRANCH  30  31
ATOM     31  O   UNL     1      -1.794  12.450  19.129  0.00  0.00    +0.000 OA
ATOM     32  H   UNL     1      -2.685  12.339  19.497  0.00  0.00    +0.000 HD
ENDBRANCH  30  31
ENDBRANCH  22  30
ENDBRANCH   7  22
TORSDOF 6
ENDMDL
MODEL 9
REMARK VINA RESULT:      -8.8      2.234      3.130
REMARK  Name = 
REMARK  6 active torsions:
REMARK  status: ('A' for Active; 'I' for Inactive)
REMARK    1  A    between atoms: C_4  and  C_5
REMARK    2  A    between atoms: N_10  and  C_11
REMARK    3  A    between atoms: N_20  and  C_21
REMARK    4  A    between atoms: C_21  and  C_22
REMARK    5  A    between atoms: C_21  and  C_24
REMARK    6  A    between atoms: C_22  and  O_23
REMARK                            x       y       z     vdW  Elec       q    Type
REMARK                         _______ _______ _______ _____ _____    ______ ____
ROOT
ATOM      1  O   UNL     1       2.241  10.106  17.173  0.00  0.00    +0.000 OA
ATOM      2  C   UNL     1       1.863   9.625  18.238  0.00  0.00    +0.000 A 
ATOM      3  C   UNL     1       2.241   8.221  18.548  0.00  0.00    +0.000 A 
ATOM      4  C   UNL     1       1.893   7.630  19.707  0.00  0.00    +0.000 A 
ATOM      5  C   UNL     1       1.192   8.434  20.693  0.00  0.00    +0.000 A 
ATOM      6  C   UNL     1       0.783   9.676  20.402  0.00  0.00    +0.000 A 
ATOM      7  N   UNL     1       1.063  10.272  19.181  0.00  0.00    +0.000 N 
ENDROOT
BRANCH   4   8
ATOM      8  C   UNL     1       2.227   6.196  19.888  0.00  0.00    +0.000 A 
ATOM      9  C   UNL     1       1.683   5.446  20.913  0.00  0.00    +0.000 A 
ATOM     10  C   UNL     1       2.003   4.115  20.914  0.00  0.00    +0.000 A 
ATOM     11  N   UNL     1       2.795   3.539  19.990  0.00  0.00    +0.000 NA
ATOM     12  C   UNL     1       3.287   4.334  19.034  0.00  0.00    +0.000 A 
ATOM     13  N   UNL     1       4.066   3.728  18.065  0.00  0.00    +0.000 N 
ATOM     14  N   UNL     1       3.036   5.644  18.959  0.00  0.00    +0.000 NA
ATOM     15  H   UNL     1       4.307   2.796  18.383  0.00  0.00    +0.000 HD
BRANCH  13  16
ATOM     16  C   UNL     1       5.134   4.523  17.464  0.00  0.00    +0.000 C 
ATOM     17  C   UNL     1       5.534   3.888  16.128  0.00  0.00    +0.000 C 
ATOM     18  C   UNL     1       6.767   4.571  15.554  0.00  0.00    +0.000 C 
ATOM     19  O   UNL     1       7.838   4.554  16.497  0.00  0.00    +0.000 OA
ATOM     20  C   UNL     1       7.515   5.279  17.682  0.00  0.00    +0.000 C 
ATOM     21  C   UNL     1       6.341   4.628  18.401  0.00  0.00    +0.000 C 
ENDBRANCH  13  16
ENDBRANCH   4   8
BRANCH   7  22
ATOM     22  C   UNL     1       0.533  11.630  18.902  0.00  0.00    +0.000 C 
BRANCH  22  23
ATOM     23  C   UNL     1       1.017  12.647  19.937  0.00  0.00    +0.000 A 
ATOM     24  C   UNL     1       0.106  13.206  20.854  0.00  0.00    +0.000 A 
ATOM     25  C   UNL     1       0.499  14.216  21.740  0.00  0.00    +0.000 A 
ATOM     26  C   UNL     1       1.811  14.680  21.728  0.00  0.00    +0.000 A 
ATOM     27  C   UNL     1       2.725  14.110  20.854  0.00  0.00    +0.000 A 
ATOM     28  F   UNL     1       3.991  14.548  20.848  0.00  0.00    +0.000 F 
ATOM     29  C   UNL     1       2.345  13.101  19.971  0.00  0.00    +0.000 A 
ENDBRANCH  22  23
BRANCH  22  30
ATOM     30  C   UNL     1      -0.996  11.661  18.642  0.00  0.00    +0.000 C 
BRANCH  30  31
ATOM     31  O   UNL     1      -1.331  12.505  17.535  0.00  0.00    +0.000 OA
ATOM     32  H   UNL     1      -0.555  12.565  16.956  0.00  0.00    +0.000 HD
ENDBRANCH  30  31
ENDBRANCH  22  30
ENDBRANCH   7  22
TORSDOF 6
ENDMDL
