MODEL 1
REMARK VINA RESULT:      -7.3      0.000      0.000
REMARK  Name = 
REMARK  8 active torsions:
REMARK  status: ('A' for Active; 'I' for Inactive)
REMARK    1  A    between atoms: C_1  and  C_2
REMARK    2  A    between atoms: C_6  and  C_7
REMARK    3  A    between atoms: C_6  and  C_8
REMARK    4  A    between atoms: C_9  and  O_10
REMARK    5  A    between atoms: C_9  and  C_11
REMARK    6  A    between atoms: C_12  and  C_13
REMARK    7  A    between atoms: C_14  and  C_15
REMARK    8  A    between atoms: C_15  and  O_17
REMARK                            x       y       z     vdW  Elec       q    Type
REMARK                         _______ _______ _______ _____ _____    ______ ____
ROOT
ATOM      1  C   UNL     1       4.578   5.535  19.357  0.00  0.00    +0.000 C 
ATOM      2  C   UNL     1       3.159   5.554  18.772  0.00  0.00    +0.000 C 
ATOM      3  C   UNL     1       2.179   6.170  19.794  0.00  0.00    +0.000 C 
ATOM      4  C   UNL     1       1.694   5.188  20.857  0.00  0.00    +0.000 C 
ATOM      5  C   UNL     1       1.177   3.869  20.276  0.00  0.00    +0.000 C 
ATOM      6  C   UNL     1       2.181   3.173  19.316  0.00  0.00    +0.000 C 
ATOM      7  C   UNL     1       3.349   2.593  20.148  0.00  0.00    +0.000 C 
ATOM      8  C   UNL     1       1.456   1.958  18.677  0.00  0.00    +0.000 C 
ATOM      9  C   UNL     1       2.619   4.200  18.202  0.00  0.00    +0.000 C 
ENDROOT
BRANCH   9  10
ATOM     10  O   UNL     1       1.423   4.529  17.458  0.00  0.00    +0.000 OA
ATOM     11  H   UNL     1       1.649   5.033  16.661  0.00  0.00    +0.000 HD
ENDBRANCH   9  10
BRANCH   9  12
ATOM     12  C   UNL     1       3.582   3.618  17.166  0.00  0.00    +0.000 C 
ATOM     13  C   UNL     1       4.368   4.363  16.368  0.00  0.00    +0.000 C 
BRANCH  13  14
ATOM     14  C   UNL     1       5.308   3.848  15.404  0.00  0.00    +0.000 C 
ATOM     15  C   UNL     1       6.630   4.097  15.372  0.00  0.00    +0.000 C 
BRANCH  15  16
ATOM     16  C   UNL     1       7.391   4.926  16.339  0.00  0.00    +0.000 C 
ATOM     17  O   UNL     1       7.445   6.142  16.362  0.00  0.00    +0.000 OA
BRANCH  16  18
ATOM     18  O   UNL     1       8.028   4.160  17.251  0.00  0.00    +0.000 OA
ATOM     19  H   UNL     1       8.002   4.492  18.164  0.00  0.00    +0.000 HD
ENDBRANCH  16  18
ENDBRANCH  15  16
ENDBRANCH  13  14
ENDBRANCH   9  12
TORSDOF 5
ENDMDL
MODEL 2
REMARK VINA RESULT:      -7.1      1.731      2.858
REMARK  Name = 
REMARK  8 active torsions:
REMARK  status: ('A' for Active; 'I' for Inactive)
REMARK    1  A    between atoms: C_1  and  C_2
REMARK    2  A    between atoms: C_6  and  C_7
REMARK    3  A    between atoms: C_6  and  C_8
REMARK    4  A    between atoms: C_9  and  O_10
REMARK    5  A    between atoms: C_9  and  C_11
REMARK    6  A    between atoms: C_12  and  C_13
REMARK    7  A    between atoms: C_14  and  C_15
REMARK    8  A    between atoms: C_15  and  O_17
REMARK                            x       y       z     vdW  Elec       q    Type
REMARK                         _______ _______ _______ _____ _____    ______ ____
ROOT
ATOM      1  C   UNL     1       3.129   2.686  21.276  0.00  0.00    +0.000 C 
ATOM      2  C   UNL     1       2.642   3.927  20.516  0.00  0.00    +0.000 C 
ATOM      3  C   UNL     1       1.108   3.870  20.346  0.00  0.00    +0.000 C 
ATOM      4  C   UNL     1       0.647   3.009  19.172  0.00  0.00    +0.000 C 
ATOM      5  C   UNL     1       1.367   3.333  17.861  0.00  0.00    +0.000 C 
ATOM      6  C   UNL     1       2.917   3.304  17.975  0.00  0.00    +0.000 C 
ATOM      7  C   UNL     1       3.381   1.836  18.114  0.00  0.00    +0.000 C 
ATOM      8  C   UNL     1       3.496   3.820  16.630  0.00  0.00    +0.000 C 
ATOM      9  C   UNL     1       3.358   4.245  19.161  0.00  0.00    +0.000 C 
ENDROOT
BRANCH   9  10
ATOM     10  O   UNL     1       2.948   5.582  18.796  0.00  0.00    +0.000 OA
ATOM     11  H   UNL     1       2.504   6.015  19.541  0.00  0.00    +0.000 HD
ENDBRANCH   9  10
BRANCH   9  12
ATOM     12  C   UNL     1       4.874   4.333  19.351  0.00  0.00    +0.000 C 
ATOM     13  C   UNL     1       5.586   5.465  19.202  0.00  0.00    +0.000 C 
BRANCH  13  14
ATOM     14  C   UNL     1       7.008   5.590  19.402  0.00  0.00    +0.000 C 
ATOM     15  C   UNL     1       7.867   6.245  18.601  0.00  0.00    +0.000 C 
BRANCH  15  16
ATOM     16  C   UNL     1       7.522   6.995  17.367  0.00  0.00    +0.000 C 
ATOM     17  O   UNL     1       7.258   8.181  17.293  0.00  0.00    +0.000 OA
BRANCH  16  18
ATOM     18  O   UNL     1       7.559   6.197  16.279  0.00  0.00    +0.000 OA
ATOM     19  H   UNL     1       8.040   5.360  16.392  0.00  0.00    +0.000 HD
ENDBRANCH  16  18
ENDBRANCH  15  16
ENDBRANCH  13  14
ENDBRANCH   9  12
TORSDOF 5
ENDMDL
MODEL 3
REMARK VINA RESULT:      -7.0      1.994      2.992
REMARK  Name = 
REMARK  8 active torsions:
REMARK  status: ('A' for Active; 'I' for Inactive)
REMARK    1  A    between atoms: C_1  and  C_2
REMARK    2  A    between atoms: C_6  and  C_7
REMARK    3  A    between atoms: C_6  and  C_8
REMARK    4  A    between atoms: C_9  and  O_10
REMARK    5  A    between atoms: C_9  and  C_11
REMARK    6  A    between atoms: C_12  and  C_13
REMARK    7  A    between atoms: C_14  and  C_15
REMARK    8  A    between atoms: C_15  and  O_17
REMARK                            x       y       z     vdW  Elec       q    Type
REMARK                         _______ _______ _______ _____ _____    ______ ____
ROOT
ATOM      1  C   UNL     1       2.481   6.097  18.403  0.00  0.00    +0.000 C 
ATOM      2  C   UNL     1       3.057   4.779  17.865  0.00  0.00    +0.000 C 
ATOM      3  C   UNL     1       1.920   3.903  17.296  0.00  0.00    +0.000 C 
ATOM      4  C   UNL     1       1.164   3.104  18.355  0.00  0.00    +0.000 C 
ATOM      5  C   UNL     1       2.083   2.325  19.299  0.00  0.00    +0.000 C 
ATOM      6  C   UNL     1       3.182   3.200  19.965  0.00  0.00    +0.000 C 
ATOM      7  C   UNL     1       2.521   4.115  21.021  0.00  0.00    +0.000 C 
ATOM      8  C   UNL     1       4.131   2.250  20.744  0.00  0.00    +0.000 C 
ATOM      9  C   UNL     1       3.975   3.968  18.839  0.00  0.00    +0.000 C 
ENDROOT
BRANCH   9  10
ATOM     10  O   UNL     1       4.619   2.956  18.031  0.00  0.00    +0.000 OA
ATOM     11  H   UNL     1       4.988   2.258  18.594  0.00  0.00    +0.000 HD
ENDBRANCH   9  10
BRANCH   9  12
ATOM     12  C   UNL     1       5.117   4.838  19.369  0.00  0.00    +0.000 C 
ATOM     13  C   UNL     1       6.355   4.853  18.845  0.00  0.00    +0.000 C 
BRANCH  13  14
ATOM     14  C   UNL     1       7.445   5.681  19.299  0.00  0.00    +0.000 C 
ATOM     15  C   UNL     1       8.013   6.691  18.615  0.00  0.00    +0.000 C 
BRANCH  15  16
ATOM     16  C   UNL     1       7.614   7.175  17.270  0.00  0.00    +0.000 C 
ATOM     17  O   UNL     1       7.575   6.516  16.247  0.00  0.00    +0.000 OA
BRANCH  16  18
ATOM     18  O   UNL     1       7.253   8.476  17.302  0.00  0.00    +0.000 OA
ATOM     19  H   UNL     1       7.784   9.069  16.744  0.00  0.00    +0.000 HD
ENDBRANCH  16  18
ENDBRANCH  15  16
ENDBRANCH  13  14
ENDBRANCH   9  12
TORSDOF 5
ENDMDL
MODEL 4
REMARK VINA RESULT:      -6.9      1.828      2.413
REMARK  Name = 
REMARK  8 active torsions:
REMARK  status: ('A' for Active; 'I' for Inactive)
REMARK    1  A    between atoms: C_1  and  C_2
REMARK    2  A    between atoms: C_6  and  C_7
REMARK    3  A    between atoms: C_6  and  C_8
REMARK    4  A    between atoms: C_9  and  O_10
REMARK    5  A    between atoms: C_9  and  C_11
REMARK    6  A    between atoms: C_12  and  C_13
REMARK    7  A    between atoms: C_14  and  C_15
REMARK    8  A    between atoms: C_15  and  O_17
REMARK                            x       y       z     vdW  Elec       q    Type
REMARK                         _______ _______ _______ _____ _____    ______ ____
ROOT
ATOM      1  C   UNL     1       4.595   2.419  20.027  0.00  0.00    +0.000 C 
ATOM      2  C   UNL     1       3.677   3.613  20.324  0.00  0.00    +0.000 C 
ATOM      3  C   UNL     1       2.626   3.216  21.384  0.00  0.00    +0.000 C 
ATOM      4  C   UNL     1       1.421   2.472  20.814  0.00  0.00    +0.000 C 
ATOM      5  C   UNL     1       0.794   3.169  19.604  0.00  0.00    +0.000 C 
ATOM      6  C   UNL     1       1.811   3.497  18.475  0.00  0.00    +0.000 C 
ATOM      7  C   UNL     1       2.219   2.182  17.772  0.00  0.00    +0.000 C 
ATOM      8  C   UNL     1       1.070   4.349  17.409  0.00  0.00    +0.000 C 
ATOM      9  C   UNL     1       3.013   4.310  19.090  0.00  0.00    +0.000 C 
ENDROOT
BRANCH   9  10
ATOM     10  O   UNL     1       2.456   5.550  19.584  0.00  0.00    +0.000 OA
ATOM     11  H   UNL     1       2.495   5.577  20.552  0.00  0.00    +0.000 HD
ENDBRANCH   9  10
BRANCH   9  12
ATOM     12  C   UNL     1       4.068   4.729  18.064  0.00  0.00    +0.000 C 
ATOM     13  C   UNL     1       4.757   5.883  18.123  0.00  0.00    +0.000 C 
BRANCH  13  14
ATOM     14  C   UNL     1       5.777   6.295  17.192  0.00  0.00    +0.000 C 
ATOM     15  C   UNL     1       7.084   5.983  17.257  0.00  0.00    +0.000 C 
BRANCH  15  16
ATOM     16  C   UNL     1       7.733   5.128  18.282  0.00  0.00    +0.000 C 
ATOM     17  O   UNL     1       7.767   5.337  19.481  0.00  0.00    +0.000 OA
BRANCH  16  18
ATOM     18  O   UNL     1       8.285   4.027  17.727  0.00  0.00    +0.000 OA
ATOM     19  H   UNL     1       7.675   3.467  17.219  0.00  0.00    +0.000 HD
ENDBRANCH  16  18
ENDBRANCH  15  16
ENDBRANCH  13  14
ENDBRANCH   9  12
TORSDOF 5
ENDMDL
MODEL 5
REMARK VINA RESULT:      -6.9      1.818      2.781
REMARK  Name = 
REMARK  8 active torsions:
REMARK  status: ('A' for Active; 'I' for Inactive)
REMARK    1  A    between atoms: C_1  and  C_2
REMARK    2  A    between atoms: C_6  and  C_7
REMARK    3  A    between atoms: C_6  and  C_8
REMARK    4  A    between atoms: C_9  and  O_10
REMARK    5  A    between atoms: C_9  and  C_11
REMARK    6  A    between atoms: C_12  and  C_13
REMARK    7  A    between atoms: C_14  and  C_15
REMARK    8  A    between atoms: C_15  and  O_17
REMARK                            x       y       z     vdW  Elec       q    Type
REMARK                         _______ _______ _______ _____ _____    ______ ____
ROOT
ATOM      1  C   UNL     1       3.511   1.838  18.374  0.00  0.00    +0.000 C 
ATOM      2  C   UNL     1       4.165   2.833  19.343  0.00  0.00    +0.000 C 
ATOM      3  C   UNL     1       4.027   2.321  20.794  0.00  0.00    +0.000 C 
ATOM      4  C   UNL     1       2.677   2.633  21.434  0.00  0.00    +0.000 C 
ATOM      5  C   UNL     1       2.261   4.099  21.292  0.00  0.00    +0.000 C 
ATOM      6  C   UNL     1       2.297   4.620  19.827  0.00  0.00    +0.000 C 
ATOM      7  C   UNL     1       1.122   3.990  19.044  0.00  0.00    +0.000 C 
ATOM      8  C   UNL     1       2.026   6.148  19.865  0.00  0.00    +0.000 C 
ATOM      9  C   UNL     1       3.721   4.328  19.217  0.00  0.00    +0.000 C 
ENDROOT
BRANCH   9  10
ATOM     10  O   UNL     1       4.665   5.093  20.001  0.00  0.00    +0.000 OA
ATOM     11  H   UNL     1       4.199   5.723  20.571  0.00  0.00    +0.000 HD
ENDBRANCH   9  10
BRANCH   9  12
ATOM     12  C   UNL     1       3.896   4.833  17.783  0.00  0.00    +0.000 C 
ATOM     13  C   UNL     1       4.819   5.737  17.411  0.00  0.00    +0.000 C 
BRANCH  13  14
ATOM     14  C   UNL     1       5.031   6.212  16.067  0.00  0.00    +0.000 C 
ATOM     15  C   UNL     1       5.902   5.705  15.174  0.00  0.00    +0.000 C 
BRANCH  15  16
ATOM     16  C   UNL     1       6.796   4.540  15.383  0.00  0.00    +0.000 C 
ATOM     17  O   UNL     1       7.809   4.518  16.059  0.00  0.00    +0.000 OA
BRANCH  16  18
ATOM     18  O   UNL     1       6.337   3.445  14.740  0.00  0.00    +0.000 OA
ATOM     19  H   UNL     1       6.929   2.674  14.756  0.00  0.00    +0.000 HD
ENDBRANCH  16  18
ENDBRANCH  15  16
ENDBRANCH  13  14
ENDBRANCH   9  12
TORSDOF 5
ENDMDL
MODEL 6
REMARK VINA RESULT:      -6.9      2.761      5.064
REMARK  Name = 
REMARK  8 active torsions:
REMARK  status: ('A' for Active; 'I' for Inactive)
REMARK    1  A    between atoms: C_1  and  C_2
REMARK    2  A    between atoms: C_6  and  C_7
REMARK    3  A    between atoms: C_6  and  C_8
REMARK    4  A    between atoms: C_9  and  O_10
REMARK    5  A    between atoms: C_9  and  C_11
REMARK    6  A    between atoms: C_12  and  C_13
REMARK    7  A    between atoms: C_14  and  C_15
REMARK    8  A    between atoms: C_15  and  O_17
REMARK                            x       y       z     vdW  Elec       q    Type
REMARK                         _______ _______ _______ _____ _____    ______ ____
ROOT
ATOM      1  C   UNL     1       2.212   5.079  20.996  0.00  0.00    +0.000 C 
ATOM      2  C   UNL     1       1.476   4.612  19.732  0.00  0.00    +0.000 C 
ATOM      3  C   UNL     1       0.869   3.211  19.966  0.00  0.00    +0.000 C 
ATOM      4  C   UNL     1       1.860   2.066  19.774  0.00  0.00    +0.000 C 
ATOM      5  C   UNL     1       2.639   2.151  18.459  0.00  0.00    +0.000 C 
ATOM      6  C   UNL     1       3.344   3.519  18.238  0.00  0.00    +0.000 C 
ATOM      7  C   UNL     1       4.547   3.624  19.203  0.00  0.00    +0.000 C 
ATOM      8  C   UNL     1       3.936   3.515  16.803  0.00  0.00    +0.000 C 
ATOM      9  C   UNL     1       2.280   4.672  18.392  0.00  0.00    +0.000 C 
ENDROOT
BRANCH   9  10
ATOM     10  O   UNL     1       1.312   4.477  17.335  0.00  0.00    +0.000 OA
ATOM     11  H   UNL     1       0.644   5.180  17.355  0.00  0.00    +0.000 HD
ENDBRANCH   9  10
BRANCH   9  12
ATOM     12  C   UNL     1       2.847   6.074  18.155  0.00  0.00    +0.000 C 
ATOM     13  C   UNL     1       2.090   7.172  17.985  0.00  0.00    +0.000 C 
BRANCH  13  14
ATOM     14  C   UNL     1       2.590   8.510  17.790  0.00  0.00    +0.000 C 
ATOM     15  C   UNL     1       1.914   9.651  18.019  0.00  0.00    +0.000 C 
BRANCH  15  16
ATOM     16  C   UNL     1       0.531   9.763  18.546  0.00  0.00    +0.000 C 
ATOM     17  O   UNL     1       0.192   9.669  19.712  0.00  0.00    +0.000 OA
BRANCH  16  18
ATOM     18  O   UNL     1      -0.353  10.021  17.559  0.00  0.00    +0.000 OA
ATOM     19  H   UNL     1      -1.020   9.331  17.407  0.00  0.00    +0.000 HD
ENDBRANCH  16  18
ENDBRANCH  15  16
ENDBRANCH  13  14
ENDBRANCH   9  12
TORSDOF 5
ENDMDL
MODEL 7
REMARK VINA RESULT:      -6.8      1.900      2.935
REMARK  Name = 
REMARK  8 active torsions:
REMARK  status: ('A' for Active; 'I' for Inactive)
REMARK    1  A    between atoms: C_1  and  C_2
REMARK    2  A    between atoms: C_6  and  C_7
REMARK    3  A    between atoms: C_6  and  C_8
REMARK    4  A    between atoms: C_9  and  O_10
REMARK    5  A    between atoms: C_9  and  C_11
REMARK    6  A    between atoms: C_12  and  C_13
REMARK    7  A    between atoms: C_14  and  C_15
REMARK    8  A    between atoms: C_15  and  O_17
REMARK                            x       y       z     vdW  Elec       q    Type
REMARK                         _______ _______ _______ _____ _____    ______ ____
ROOT
ATOM      1  C   UNL     1       3.466   1.625  18.990  0.00  0.00    +0.000 C 
ATOM      2  C   UNL     1       3.744   2.846  19.879  0.00  0.00    +0.000 C 
ATOM      3  C   UNL     1       2.690   2.927  21.004  0.00  0.00    +0.000 C 
ATOM      4  C   UNL     1       1.377   3.577  20.576  0.00  0.00    +0.000 C 
ATOM      5  C   UNL     1       1.567   4.916  19.858  0.00  0.00    +0.000 C 
ATOM      6  C   UNL     1       2.552   4.847  18.657  0.00  0.00    +0.000 C 
ATOM      7  C   UNL     1       1.874   4.080  17.498  0.00  0.00    +0.000 C 
ATOM      8  C   UNL     1       2.775   6.296  18.149  0.00  0.00    +0.000 C 
ATOM      9  C   UNL     1       3.912   4.220  19.149  0.00  0.00    +0.000 C 
ENDROOT
BRANCH   9  10
ATOM     10  O   UNL     1       4.450   5.132  20.133  0.00  0.00    +0.000 OA
ATOM     11  H   UNL     1       5.299   5.492  19.833  0.00  0.00    +0.000 HD
ENDBRANCH   9  10
BRANCH   9  12
ATOM     12  C   UNL     1       4.984   4.134  18.060  0.00  0.00    +0.000 C 
ATOM     13  C   UNL     1       6.176   4.754  18.128  0.00  0.00    +0.000 C 
BRANCH  13  14
ATOM     14  C   UNL     1       7.219   4.671  17.136  0.00  0.00    +0.000 C 
ATOM     15  C   UNL     1       7.072   4.859  15.812  0.00  0.00    +0.000 C 
BRANCH  15  16
ATOM     16  C   UNL     1       5.815   5.220  15.110  0.00  0.00    +0.000 C 
ATOM     17  O   UNL     1       5.107   4.468  14.464  0.00  0.00    +0.000 OA
BRANCH  16  18
ATOM     18  O   UNL     1       5.506   6.522  15.290  0.00  0.00    +0.000 OA
ATOM     19  H   UNL     1       4.702   6.825  14.837  0.00  0.00    +0.000 HD
ENDBRANCH  16  18
ENDBRANCH  15  16
ENDBRANCH  13  14
ENDBRANCH   9  12
TORSDOF 5
ENDMDL
MODEL 8
REMARK VINA RESULT:      -6.8      1.934      2.840
REMARK  Name = 
REMARK  8 active torsions:
REMARK  status: ('A' for Active; 'I' for Inactive)
REMARK    1  A    between atoms: C_1  and  C_2
REMARK    2  A    between atoms: C_6  and  C_7
REMARK    3  A    between atoms: C_6  and  C_8
REMARK    4  A    between atoms: C_9  and  O_10
REMARK    5  A    between atoms: C_9  and  C_11
REMARK    6  A    between atoms: C_12  and  C_13
REMARK    7  A    between atoms: C_14  and  C_15
REMARK    8  A    between atoms: C_15  and  O_17
REMARK                            x       y       z     vdW  Elec       q    Type
REMARK                         _______ _______ _______ _____ _____    ______ ____
ROOT
ATOM      1  C   UNL     1       3.484   1.783  18.917  0.00  0.00    +0.000 C 
ATOM      2  C   UNL     1       3.658   2.962  19.886  0.00  0.00    +0.000 C 
ATOM      3  C   UNL     1       2.678   2.816  21.070  0.00  0.00    +0.000 C 
ATOM      4  C   UNL     1       1.266   3.313  20.770  0.00  0.00    +0.000 C 
ATOM      5  C   UNL     1       1.233   4.714  20.154  0.00  0.00    +0.000 C 
ATOM      6  C   UNL     1       2.137   4.867  18.899  0.00  0.00    +0.000 C 
ATOM      7  C   UNL     1       1.490   4.103  17.721  0.00  0.00    +0.000 C 
ATOM      8  C   UNL     1       2.136   6.367  18.500  0.00  0.00    +0.000 C 
ATOM      9  C   UNL     1       3.597   4.395  19.262  0.00  0.00    +0.000 C 
ENDROOT
BRANCH   9  10
ATOM     10  O   UNL     1       4.075   5.298  20.286  0.00  0.00    +0.000 OA
ATOM     11  H   UNL     1       5.043   5.279  20.328  0.00  0.00    +0.000 HD
ENDBRANCH   9  10
BRANCH   9  12
ATOM     12  C   UNL     1       4.598   4.536  18.113  0.00  0.00    +0.000 C 
ATOM     13  C   UNL     1       5.930   4.601  18.280  0.00  0.00    +0.000 C 
BRANCH  13  14
ATOM     14  C   UNL     1       6.902   4.703  17.219  0.00  0.00    +0.000 C 
ATOM     15  C   UNL     1       7.646   5.785  16.926  0.00  0.00    +0.000 C 
BRANCH  15  16
ATOM     16  C   UNL     1       7.640   7.079  17.653  0.00  0.00    +0.000 C 
ATOM     17  O   UNL     1       7.128   8.118  17.275  0.00  0.00    +0.000 OA
BRANCH  16  18
ATOM     18  O   UNL     1       8.265   6.978  18.845  0.00  0.00    +0.000 OA
ATOM     19  H   UNL     1       9.221   7.156  18.831  0.00  0.00    +0.000 HD
ENDBRANCH  16  18
ENDBRANCH  15  16
ENDBRANCH  13  14
ENDBRANCH   9  12
TORSDOF 5
ENDMDL
MODEL 9
REMARK VINA RESULT:      -6.8      1.121      1.399
REMARK  Name = 
REMARK  8 active torsions:
REMARK  status: ('A' for Active; 'I' for Inactive)
REMARK    1  A    between atoms: C_1  and  C_2
REMARK    2  A    between atoms: C_6  and  C_7
REMARK    3  A    between atoms: C_6  and  C_8
REMARK    4  A    between atoms: C_9  and  O_10
REMARK    5  A    between atoms: C_9  and  C_11
REMARK    6  A    between atoms: C_12  and  C_13
REMARK    7  A    between atoms: C_14  and  C_15
REMARK    8  A    between atoms: C_15  and  O_17
REMARK                            x       y       z     vdW  Elec       q    Type
REMARK                         _______ _______ _______ _____ _____    ______ ____
ROOT
ATOM      1  C   UNL     1       3.066   5.868  19.976  0.00  0.00    +0.000 C 
ATOM      2  C   UNL     1       2.048   5.039  19.179  0.00  0.00    +0.000 C 
ATOM      3  C   UNL     1       0.966   4.482  20.131  0.00  0.00    +0.000 C 
ATOM      4  C   UNL     1       1.382   3.209  20.864  0.00  0.00    +0.000 C 
ATOM      5  C   UNL     1       1.953   2.133  19.936  0.00  0.00    +0.000 C 
ATOM      6  C   UNL     1       3.112   2.638  19.031  0.00  0.00    +0.000 C 
ATOM      7  C   UNL     1       4.370   2.854  19.903  0.00  0.00    +0.000 C 
ATOM      8  C   UNL     1       3.461   1.499  18.037  0.00  0.00    +0.000 C 
ATOM      9  C   UNL     1       2.628   3.921  18.252  0.00  0.00    +0.000 C 
ENDROOT
BRANCH   9  10
ATOM     10  O   UNL     1       1.535   3.496  17.406  0.00  0.00    +0.000 OA
ATOM     11  H   UNL     1       1.843   2.847  16.755  0.00  0.00    +0.000 HD
ENDBRANCH   9  10
BRANCH   9  12
ATOM     12  C   UNL     1       3.673   4.493  17.291  0.00  0.00    +0.000 C 
ATOM     13  C   UNL     1       4.644   3.763  16.714  0.00  0.00    +0.000 C 
BRANCH  13  14
ATOM     14  C   UNL     1       5.624   4.263  15.783  0.00  0.00    +0.000 C 
ATOM     15  C   UNL     1       6.822   4.788  16.097  0.00  0.00    +0.000 C 
BRANCH  15  16
ATOM     16  C   UNL     1       7.389   4.931  17.461  0.00  0.00    +0.000 C 
ATOM     17  O   UNL     1       7.063   5.755  18.296  0.00  0.00    +0.000 OA
BRANCH  16  18
ATOM     18  O   UNL     1       8.328   3.992  17.706  0.00  0.00    +0.000 OA
ATOM     19  H   UNL     1       8.577   3.443  16.942  0.00  0.00    +0.000 HD
ENDBRANCH  16  18
ENDBRANCH  15  16
ENDBRANCH  13  14
ENDBRANCH   9  12
TORSDOF 5
ENDMDL
