MODEL 1
REMARK VINA RESULT:      -7.5      0.000      0.000
REMARK  Name = 
REMARK  9 active torsions:
REMARK  status: ('A' for Active; 'I' for Inactive)
REMARK    1  A    between atoms: C_1  and  O_2
REMARK    2  A    between atoms: O_2  and  C_3
REMARK    3  A    between atoms: C_5  and  C_6
REMARK    4  A    between atoms: C_11  and  N_12
REMARK    5  A    between atoms: C_13  and  C_15
REMARK    6  A    between atoms: C_24  and  O_25
REMARK    7  A    between atoms: O_25  and  C_26
REMARK    8  A    between atoms: C_27  and  O_28
REMARK    9  A    between atoms: O_28  and  C_29
REMARK                            x       y       z     vdW  Elec       q    Type
REMARK                         _______ _______ _______ _____ _____    ______ ____
ROOT
ATOM      1  C   UNL     1       1.780   7.912  19.832  0.00  0.00    +0.000 A 
ATOM      2  N   UNL     1       1.598   8.855  18.848  0.00  0.00    +0.000 NA
ATOM      3  C   UNL     1       1.067   9.867  19.491  0.00  0.00    +0.000 A 
ATOM      4  C   UNL     1       0.672  11.158  19.066  0.00  0.00    +0.000 A 
ATOM      5  C   UNL     1       0.176  12.032  19.961  0.00  0.00    +0.000 A 
ATOM      6  C   UNL     1       0.021  11.702  21.377  0.00  0.00    +0.000 A 
ATOM      7  C   UNL     1       0.397  10.466  21.768  0.00  0.00    +0.000 A 
ATOM      8  N   UNL     1       0.915   9.557  20.838  0.00  0.00    +0.000 N 
ATOM      9  N   UNL     1       1.357   8.293  21.048  0.00  0.00    +0.000 NA
ENDROOT
BRANCH   1  12
ATOM     10  C   UNL     1       2.871   4.311  20.134  0.00  0.00    +0.000 A 
ATOM     11  C   UNL     1       2.372   5.587  20.456  0.00  0.00    +0.000 A 
ATOM     12  C   UNL     1       2.474   6.654  19.561  0.00  0.00    +0.000 A 
ATOM     13  C   UNL     1       3.180   6.455  18.377  0.00  0.00    +0.000 A 
ATOM     14  C   UNL     1       3.764   5.215  18.069  0.00  0.00    +0.000 A 
ATOM     15  C   UNL     1       3.618   4.120  18.951  0.00  0.00    +0.000 A 
BRANCH  10  17
ATOM     16  C   UNL     1       1.254   2.956  21.205  0.00  0.00    +0.000 C 
ATOM     17  O   UNL     1       2.635   3.254  20.978  0.00  0.00    +0.000 OA
ENDBRANCH  10  17
BRANCH  14  18
ATOM     18  O   UNL     1       4.403   5.263  16.854  0.00  0.00    +0.000 OA
ATOM     19  C   UNL     1       4.965   6.483  16.399  0.00  0.00    +0.000 C 
ENDBRANCH  14  18
BRANCH  15  20
ATOM     20  O   UNL     1       4.218   2.958  18.554  0.00  0.00    +0.000 OA
ATOM     21  C   UNL     1       3.473   1.862  18.054  0.00  0.00    +0.000 C 
ENDBRANCH  15  20
ENDBRANCH   1  12
BRANCH   6  22
ATOM     22  N   UNL     1      -0.483  12.596  22.297  0.00  0.00    +0.000 N 
ATOM     23  C   UNL     1      -1.805  12.802  22.680  0.00  0.00    +0.000 C 
ATOM     24  O   UNL     1      -2.770  12.218  22.195  0.00  0.00    +0.000 OA
ATOM     25  H   UNL     1       0.178  13.176  22.797  0.00  0.00    +0.000 HD
BRANCH  23  26
ATOM     26  C   UNL     1      -1.972  13.790  23.731  0.00  0.00    +0.000 A 
ATOM     27  C   UNL     1      -3.113  14.185  24.405  0.00  0.00    +0.000 A 
ATOM     28  C   UNL     1      -2.719  15.175  25.333  0.00  0.00    +0.000 A 
ATOM     29  C   UNL     1      -1.364  15.332  25.167  0.00  0.00    +0.000 A 
ATOM     30  O   UNL     1      -0.896  14.499  24.197  0.00  0.00    +0.000 OA
ENDBRANCH  23  26
ENDBRANCH   6  22
TORSDOF 6
ENDMDL
MODEL 2
REMARK VINA RESULT:      -7.5      1.783      2.323
REMARK  Name = 
REMARK  9 active torsions:
REMARK  status: ('A' for Active; 'I' for Inactive)
REMARK    1  A    between atoms: C_1  and  O_2
REMARK    2  A    between atoms: O_2  and  C_3
REMARK    3  A    between atoms: C_5  and  C_6
REMARK    4  A    between atoms: C_11  and  N_12
REMARK    5  A    between atoms: C_13  and  C_15
REMARK    6  A    between atoms: C_24  and  O_25
REMARK    7  A    between atoms: O_25  and  C_26
REMARK    8  A    between atoms: C_27  and  O_28
REMARK    9  A    between atoms: O_28  and  C_29
REMARK                            x       y       z     vdW  Elec       q    Type
REMARK                         _______ _______ _______ _____ _____    ______ ____
ROOT
ATOM      1  C   UNL     1       2.240   8.067  18.525  0.00  0.00    +0.000 A 
ATOM      2  N   UNL     1       1.961   9.115  17.681  0.00  0.00    +0.000 NA
ATOM      3  C   UNL     1       1.125   9.851  18.375  0.00  0.00    +0.000 A 
ATOM      4  C   UNL     1       0.486  11.081  18.093  0.00  0.00    +0.000 A 
ATOM      5  C   UNL     1      -0.316  11.644  19.017  0.00  0.00    +0.000 A 
ATOM      6  C   UNL     1      -0.562  11.028  20.320  0.00  0.00    +0.000 A 
ATOM      7  C   UNL     1       0.049   9.852  20.574  0.00  0.00    +0.000 A 
ATOM      8  N   UNL     1       0.884   9.267  19.614  0.00  0.00    +0.000 N 
ATOM      9  N   UNL     1       1.589   8.113  19.699  0.00  0.00    +0.000 NA
ENDROOT
BRANCH   1  12
ATOM     10  C   UNL     1       3.871   4.711  17.956  0.00  0.00    +0.000 A 
ATOM     11  C   UNL     1       3.008   5.711  18.440  0.00  0.00    +0.000 A 
ATOM     12  C   UNL     1       3.247   7.063  18.185  0.00  0.00    +0.000 A 
ATOM     13  C   UNL     1       4.424   7.409  17.526  0.00  0.00    +0.000 A 
ATOM     14  C   UNL     1       5.346   6.436  17.107  0.00  0.00    +0.000 A 
ATOM     15  C   UNL     1       5.081   5.064  17.321  0.00  0.00    +0.000 A 
BRANCH  10  17
ATOM     16  C   UNL     1       2.457   2.936  17.284  0.00  0.00    +0.000 C 
ATOM     17  O   UNL     1       3.534   3.388  18.110  0.00  0.00    +0.000 OA
ENDBRANCH  10  17
BRANCH  14  18
ATOM     18  O   UNL     1       6.423   7.018  16.483  0.00  0.00    +0.000 OA
ATOM     19  C   UNL     1       7.529   7.463  17.252  0.00  0.00    +0.000 C 
ENDBRANCH  14  18
BRANCH  15  20
ATOM     20  O   UNL     1       6.039   4.200  16.870  0.00  0.00    +0.000 OA
ATOM     21  C   UNL     1       6.069   3.747  15.528  0.00  0.00    +0.000 C 
ENDBRANCH  15  20
ENDBRANCH   1  12
BRANCH   6  22
ATOM     22  N   UNL     1      -1.380  11.604  21.269  0.00  0.00    +0.000 N 
ATOM     23  C   UNL     1      -1.279  11.551  22.656  0.00  0.00    +0.000 C 
ATOM     24  O   UNL     1      -0.428  10.913  23.268  0.00  0.00    +0.000 OA
ATOM     25  H   UNL     1      -2.152  12.170  20.941  0.00  0.00    +0.000 HD
BRANCH  23  26
ATOM     26  C   UNL     1      -2.284  12.332  23.355  0.00  0.00    +0.000 A 
ATOM     27  C   UNL     1      -2.299  13.677  23.675  0.00  0.00    +0.000 A 
ATOM     28  C   UNL     1      -3.514  13.924  24.354  0.00  0.00    +0.000 A 
ATOM     29  C   UNL     1      -4.165  12.715  24.414  0.00  0.00    +0.000 A 
ATOM     30  O   UNL     1      -3.431  11.739  23.814  0.00  0.00    +0.000 OA
ENDBRANCH  23  26
ENDBRANCH   6  22
TORSDOF 6
ENDMDL
MODEL 3
REMARK VINA RESULT:      -7.5      1.703      2.219
REMARK  Name = 
REMARK  9 active torsions:
REMARK  status: ('A' for Active; 'I' for Inactive)
REMARK    1  A    between atoms: C_1  and  O_2
REMARK    2  A    between atoms: O_2  and  C_3
REMARK    3  A    between atoms: C_5  and  C_6
REMARK    4  A    between atoms: C_11  and  N_12
REMARK    5  A    between atoms: C_13  and  C_15
REMARK    6  A    between atoms: C_24  and  O_25
REMARK    7  A    between atoms: O_25  and  C_26
REMARK    8  A    between atoms: C_27  and  O_28
REMARK    9  A    between atoms: O_28  and  C_29
REMARK                            x       y       z     vdW  Elec       q    Type
REMARK                         _______ _______ _______ _____ _____    ______ ____
ROOT
ATOM      1  C   UNL     1       2.218   7.898  18.409  0.00  0.00    +0.000 A 
ATOM      2  N   UNL     1       1.697   8.810  17.524  0.00  0.00    +0.000 NA
ATOM      3  C   UNL     1       0.971   9.594  18.285  0.00  0.00    +0.000 A 
ATOM      4  C   UNL     1       0.201  10.746  17.999  0.00  0.00    +0.000 A 
ATOM      5  C   UNL     1      -0.432  11.390  18.997  0.00  0.00    +0.000 A 
ATOM      6  C   UNL     1      -0.361  10.944  20.387  0.00  0.00    +0.000 A 
ATOM      7  C   UNL     1       0.372   9.840  20.645  0.00  0.00    +0.000 A 
ATOM      8  N   UNL     1       1.032   9.171  19.609  0.00  0.00    +0.000 N 
ATOM      9  N   UNL     1       1.820   8.070  19.680  0.00  0.00    +0.000 NA
ENDROOT
BRANCH   1  12
ATOM     10  C   UNL     1       3.737   4.583  17.431  0.00  0.00    +0.000 A 
ATOM     11  C   UNL     1       2.884   5.544  18.005  0.00  0.00    +0.000 A 
ATOM     12  C   UNL     1       3.203   6.903  17.986  0.00  0.00    +0.000 A 
ATOM     13  C   UNL     1       4.444   7.280  17.478  0.00  0.00    +0.000 A 
ATOM     14  C   UNL     1       5.352   6.333  16.978  0.00  0.00    +0.000 A 
ATOM     15  C   UNL     1       5.009   4.962  16.950  0.00  0.00    +0.000 A 
BRANCH  10  17
ATOM     16  C   UNL     1       2.154   2.955  18.096  0.00  0.00    +0.000 C 
ATOM     17  O   UNL     1       3.330   3.274  17.347  0.00  0.00    +0.000 OA
ENDBRANCH  10  17
BRANCH  14  18
ATOM     18  O   UNL     1       6.501   6.942  16.534  0.00  0.00    +0.000 OA
ATOM     19  C   UNL     1       7.460   7.407  17.470  0.00  0.00    +0.000 C 
ENDBRANCH  14  18
BRANCH  15  20
ATOM     20  O   UNL     1       5.960   4.125  16.437  0.00  0.00    +0.000 OA
ATOM     21  C   UNL     1       6.102   3.914  15.044  0.00  0.00    +0.000 C 
ENDBRANCH  15  20
ENDBRANCH   1  12
BRANCH   6  22
ATOM     22  N   UNL     1      -1.005  11.603  21.411  0.00  0.00    +0.000 N 
ATOM     23  C   UNL     1      -0.585  12.716  22.134  0.00  0.00    +0.000 C 
ATOM     24  O   UNL     1       0.498  13.273  21.987  0.00  0.00    +0.000 OA
ATOM     25  H   UNL     1      -1.924  11.271  21.678  0.00  0.00    +0.000 HD
BRANCH  23  26
ATOM     26  C   UNL     1      -1.552  13.191  23.109  0.00  0.00    +0.000 A 
ATOM     27  C   UNL     1      -2.802  12.698  23.433  0.00  0.00    +0.000 A 
ATOM     28  C   UNL     1      -3.320  13.530  24.450  0.00  0.00    +0.000 A 
ATOM     29  C   UNL     1      -2.360  14.486  24.683  0.00  0.00    +0.000 A 
ATOM     30  O   UNL     1      -1.282  14.295  23.876  0.00  0.00    +0.000 OA
ENDBRANCH  23  26
ENDBRANCH   6  22
TORSDOF 6
ENDMDL
MODEL 4
REMARK VINA RESULT:      -7.4      1.648      2.992
REMARK  Name = 
REMARK  9 active torsions:
REMARK  status: ('A' for Active; 'I' for Inactive)
REMARK    1  A    between atoms: C_1  and  O_2
REMARK    2  A    between atoms: O_2  and  C_3
REMARK    3  A    between atoms: C_5  and  C_6
REMARK    4  A    between atoms: C_11  and  N_12
REMARK    5  A    between atoms: C_13  and  C_15
REMARK    6  A    between atoms: C_24  and  O_25
REMARK    7  A    between atoms: O_25  and  C_26
REMARK    8  A    between atoms: C_27  and  O_28
REMARK    9  A    between atoms: O_28  and  C_29
REMARK                            x       y       z     vdW  Elec       q    Type
REMARK                         _______ _______ _______ _____ _____    ______ ____
ROOT
ATOM      1  C   UNL     1       2.184   8.296  18.365  0.00  0.00    +0.000 A 
ATOM      2  N   UNL     1       2.138   9.518  17.737  0.00  0.00    +0.000 NA
ATOM      3  C   UNL     1       1.353  10.229  18.510  0.00  0.00    +0.000 A 
ATOM      4  C   UNL     1       0.925  11.576  18.446  0.00  0.00    +0.000 A 
ATOM      5  C   UNL     1       0.126  12.070  19.410  0.00  0.00    +0.000 A 
ATOM      6  C   UNL     1      -0.330  11.262  20.540  0.00  0.00    +0.000 A 
ATOM      7  C   UNL     1       0.081   9.977  20.587  0.00  0.00    +0.000 A 
ATOM      8  N   UNL     1       0.913   9.464  19.585  0.00  0.00    +0.000 N 
ATOM      9  N   UNL     1       1.435   8.218  19.477  0.00  0.00    +0.000 NA
ENDROOT
BRANCH   1  12
ATOM     10  C   UNL     1       5.227   6.544  16.980  0.00  0.00    +0.000 A 
ATOM     11  C   UNL     1       4.278   7.541  17.274  0.00  0.00    +0.000 A 
ATOM     12  C   UNL     1       3.066   7.230  17.893  0.00  0.00    +0.000 A 
ATOM     13  C   UNL     1       2.768   5.888  18.120  0.00  0.00    +0.000 A 
ATOM     14  C   UNL     1       3.660   4.866  17.758  0.00  0.00    +0.000 A 
ATOM     15  C   UNL     1       4.909   5.183  17.177  0.00  0.00    +0.000 A 
BRANCH  10  17
ATOM     16  C   UNL     1       7.444   7.192  17.493  0.00  0.00    +0.000 C 
ATOM     17  O   UNL     1       6.461   6.901  16.495  0.00  0.00    +0.000 OA
ENDBRANCH  10  17
BRANCH  14  18
ATOM     18  O   UNL     1       3.149   3.632  18.080  0.00  0.00    +0.000 OA
ATOM     19  C   UNL     1       1.756   3.392  17.959  0.00  0.00    +0.000 C 
ENDBRANCH  14  18
BRANCH  15  20
ATOM     20  O   UNL     1       5.705   4.115  16.868  0.00  0.00    +0.000 OA
ATOM     21  C   UNL     1       5.982   3.749  15.528  0.00  0.00    +0.000 C 
ENDBRANCH  15  20
ENDBRANCH   1  12
BRANCH   6  22
ATOM     22  N   UNL     1      -1.145  11.766  21.531  0.00  0.00    +0.000 N 
ATOM     23  C   UNL     1      -0.899  12.809  22.418  0.00  0.00    +0.000 C 
ATOM     24  O   UNL     1       0.154  13.436  22.480  0.00  0.00    +0.000 OA
ATOM     25  H   UNL     1      -2.066  11.357  21.632  0.00  0.00    +0.000 HD
BRANCH  23  26
ATOM     26  C   UNL     1      -2.013  13.118  23.296  0.00  0.00    +0.000 A 
ATOM     27  C   UNL     1      -3.205  12.445  23.490  0.00  0.00    +0.000 A 
ATOM     28  C   UNL     1      -3.934  13.171  24.458  0.00  0.00    +0.000 A 
ATOM     29  C   UNL     1      -3.149  14.248  24.794  0.00  0.00    +0.000 A 
ATOM     30  O   UNL     1      -1.981  14.231  24.096  0.00  0.00    +0.000 OA
ENDBRANCH  23  26
ENDBRANCH   6  22
TORSDOF 6
ENDMDL
MODEL 5
REMARK VINA RESULT:      -7.4      0.344      2.434
REMARK  Name = 
REMARK  9 active torsions:
REMARK  status: ('A' for Active; 'I' for Inactive)
REMARK    1  A    between atoms: C_1  and  O_2
REMARK    2  A    between atoms: O_2  and  C_3
REMARK    3  A    between atoms: C_5  and  C_6
REMARK    4  A    between atoms: C_11  and  N_12
REMARK    5  A    between atoms: C_13  and  C_15
REMARK    6  A    between atoms: C_24  and  O_25
REMARK    7  A    between atoms: O_25  and  C_26
REMARK    8  A    between atoms: C_27  and  O_28
REMARK    9  A    between atoms: O_28  and  C_29
REMARK                            x       y       z     vdW  Elec       q    Type
REMARK                         _______ _______ _______ _____ _____    ______ ____
ROOT
ATOM      1  C   UNL     1       1.651   7.892  19.984  0.00  0.00    +0.000 A 
ATOM      2  N   UNL     1       1.545   8.835  18.990  0.00  0.00    +0.000 NA
ATOM      3  C   UNL     1       1.036   9.874  19.609  0.00  0.00    +0.000 A 
ATOM      4  C   UNL     1       0.712  11.178  19.164  0.00  0.00    +0.000 A 
ATOM      5  C   UNL     1       0.222  12.078  20.036  0.00  0.00    +0.000 A 
ATOM      6  C   UNL     1       0.004  11.764  21.447  0.00  0.00    +0.000 A 
ATOM      7  C   UNL     1       0.313  10.516  21.858  0.00  0.00    +0.000 A 
ATOM      8  N   UNL     1       0.823   9.579  20.951  0.00  0.00    +0.000 N 
ATOM      9  N   UNL     1       1.203   8.299  21.183  0.00  0.00    +0.000 NA
ENDROOT
BRANCH   1  12
ATOM     10  C   UNL     1       3.953   5.282  18.522  0.00  0.00    +0.000 A 
ATOM     11  C   UNL     1       3.174   6.445  18.668  0.00  0.00    +0.000 A 
ATOM     12  C   UNL     1       2.301   6.604  19.745  0.00  0.00    +0.000 A 
ATOM     13  C   UNL     1       2.136   5.535  20.622  0.00  0.00    +0.000 A 
ATOM     14  C   UNL     1       2.836   4.329  20.451  0.00  0.00    +0.000 A 
ATOM     15  C   UNL     1       3.759   4.185  19.390  0.00  0.00    +0.000 A 
BRANCH  10  17
ATOM     16  C   UNL     1       4.823   6.255  16.548  0.00  0.00    +0.000 C 
ATOM     17  O   UNL     1       4.898   5.215  17.528  0.00  0.00    +0.000 OA
ENDBRANCH  10  17
BRANCH  14  18
ATOM     18  O   UNL     1       2.509   3.429  21.436  0.00  0.00    +0.000 OA
ATOM     19  C   UNL     1       1.287   2.714  21.362  0.00  0.00    +0.000 C 
ENDBRANCH  14  18
BRANCH  15  20
ATOM     20  O   UNL     1       4.391   2.976  19.317  0.00  0.00    +0.000 OA
ATOM     21  C   UNL     1       3.799   1.857  18.682  0.00  0.00    +0.000 C 
ENDBRANCH  15  20
ENDBRANCH   1  12
BRANCH   6  22
ATOM     22  N   UNL     1      -0.493  12.685  22.344  0.00  0.00    +0.000 N 
ATOM     23  C   UNL     1      -1.802  12.854  22.787  0.00  0.00    +0.000 C 
ATOM     24  O   UNL     1      -2.762  12.202  22.386  0.00  0.00    +0.000 OA
ATOM     25  H   UNL     1       0.165  13.320  22.777  0.00  0.00    +0.000 HD
BRANCH  23  26
ATOM     26  C   UNL     1      -1.960  13.890  23.791  0.00  0.00    +0.000 A 
ATOM     27  C   UNL     1      -3.106  14.376  24.393  0.00  0.00    +0.000 A 
ATOM     28  C   UNL     1      -2.699  15.378  25.302  0.00  0.00    +0.000 A 
ATOM     29  C   UNL     1      -1.331  15.451  25.197  0.00  0.00    +0.000 A 
ATOM     30  O   UNL     1      -0.867  14.556  24.284  0.00  0.00    +0.000 OA
ENDBRANCH  23  26
ENDBRANCH   6  22
TORSDOF 6
ENDMDL
MODEL 6
REMARK VINA RESULT:      -7.3      2.206      3.640
REMARK  Name = 
REMARK  9 active torsions:
REMARK  status: ('A' for Active; 'I' for Inactive)
REMARK    1  A    between atoms: C_1  and  O_2
REMARK    2  A    between atoms: O_2  and  C_3
REMARK    3  A    between atoms: C_5  and  C_6
REMARK    4  A    between atoms: C_11  and  N_12
REMARK    5  A    between atoms: C_13  and  C_15
REMARK    6  A    between atoms: C_24  and  O_25
REMARK    7  A    between atoms: O_25  and  C_26
REMARK    8  A    between atoms: C_27  and  O_28
REMARK    9  A    between atoms: O_28  and  C_29
REMARK                            x       y       z     vdW  Elec       q    Type
REMARK                         _______ _______ _______ _____ _____    ______ ____
ROOT
ATOM      1  C   UNL     1       2.589   7.439  18.819  0.00  0.00    +0.000 A 
ATOM      2  N   UNL     1       2.201   7.094  20.091  0.00  0.00    +0.000 NA
ATOM      3  C   UNL     1       1.410   8.078  20.446  0.00  0.00    +0.000 A 
ATOM      4  C   UNL     1       0.660   8.315  21.622  0.00  0.00    +0.000 A 
ATOM      5  C   UNL     1      -0.110   9.415  21.713  0.00  0.00    +0.000 A 
ATOM      6  C   UNL     1      -0.205  10.396  20.633  0.00  0.00    +0.000 A 
ATOM      7  C   UNL     1       0.520  10.162  19.519  0.00  0.00    +0.000 A 
ATOM      8  N   UNL     1       1.320   9.017  19.423  0.00  0.00    +0.000 N 
ATOM      9  N   UNL     1       2.093   8.610  18.387  0.00  0.00    +0.000 NA
ENDROOT
BRANCH   1  12
ATOM     10  C   UNL     1       5.470   6.071  16.799  0.00  0.00    +0.000 A 
ATOM     11  C   UNL     1       4.592   6.968  17.436  0.00  0.00    +0.000 A 
ATOM     12  C   UNL     1       3.389   6.534  17.995  0.00  0.00    +0.000 A 
ATOM     13  C   UNL     1       3.023   5.202  17.814  0.00  0.00    +0.000 A 
ATOM     14  C   UNL     1       3.840   4.304  17.107  0.00  0.00    +0.000 A 
ATOM     15  C   UNL     1       5.082   4.731  16.585  0.00  0.00    +0.000 A 
BRANCH  10  17
ATOM     16  C   UNL     1       7.487   7.164  17.383  0.00  0.00    +0.000 C 
ATOM     17  O   UNL     1       6.704   6.507  16.381  0.00  0.00    +0.000 OA
ENDBRANCH  10  17
BRANCH  14  18
ATOM     18  O   UNL     1       3.270   3.055  17.062  0.00  0.00    +0.000 OA
ATOM     19  C   UNL     1       3.174   2.280  18.246  0.00  0.00    +0.000 C 
ENDBRANCH  14  18
BRANCH  15  20
ATOM     20  O   UNL     1       5.802   3.778  15.920  0.00  0.00    +0.000 OA
ATOM     21  C   UNL     1       6.051   3.862  14.529  0.00  0.00    +0.000 C 
ENDBRANCH  15  20
ENDBRANCH   1  12
BRANCH   6  22
ATOM     22  N   UNL     1      -0.995  11.522  20.721  0.00  0.00    +0.000 N 
ATOM     23  C   UNL     1      -0.718  12.736  21.343  0.00  0.00    +0.000 C 
ATOM     24  O   UNL     1       0.305  12.977  21.976  0.00  0.00    +0.000 OA
ATOM     25  H   UNL     1      -1.894  11.501  20.256  0.00  0.00    +0.000 HD
BRANCH  23  26
ATOM     26  C   UNL     1      -1.760  13.736  21.185  0.00  0.00    +0.000 A 
ATOM     27  C   UNL     1      -1.673  15.052  20.773  0.00  0.00    +0.000 A 
ATOM     28  C   UNL     1      -2.985  15.577  20.793  0.00  0.00    +0.000 A 
ATOM     29  C   UNL     1      -3.795  14.553  21.222  0.00  0.00    +0.000 A 
ATOM     30  O   UNL     1      -3.067  13.430  21.466  0.00  0.00    +0.000 OA
ENDBRANCH  23  26
ENDBRANCH   6  22
TORSDOF 6
ENDMDL
MODEL 7
REMARK VINA RESULT:      -7.3      2.391      3.684
REMARK  Name = 
REMARK  9 active torsions:
REMARK  status: ('A' for Active; 'I' for Inactive)
REMARK    1  A    between atoms: C_1  and  O_2
REMARK    2  A    between atoms: O_2  and  C_3
REMARK    3  A    between atoms: C_5  and  C_6
REMARK    4  A    between atoms: C_11  and  N_12
REMARK    5  A    between atoms: C_13  and  C_15
REMARK    6  A    between atoms: C_24  and  O_25
REMARK    7  A    between atoms: O_25  and  C_26
REMARK    8  A    between atoms: C_27  and  O_28
REMARK    9  A    between atoms: O_28  and  C_29
REMARK                            x       y       z     vdW  Elec       q    Type
REMARK                         _______ _______ _______ _____ _____    ______ ____
ROOT
ATOM      1  C   UNL     1       2.573   7.483  18.812  0.00  0.00    +0.000 A 
ATOM      2  N   UNL     1       2.146   7.119  20.066  0.00  0.00    +0.000 NA
ATOM      3  C   UNL     1       1.372   8.115  20.425  0.00  0.00    +0.000 A 
ATOM      4  C   UNL     1       0.599   8.343  21.589  0.00  0.00    +0.000 A 
ATOM      5  C   UNL     1      -0.146   9.460  21.686  0.00  0.00    +0.000 A 
ATOM      6  C   UNL     1      -0.192  10.467  20.627  0.00  0.00    +0.000 A 
ATOM      7  C   UNL     1       0.554  10.239  19.525  0.00  0.00    +0.000 A 
ATOM      8  N   UNL     1       1.328   9.078  19.422  0.00  0.00    +0.000 N 
ATOM      9  N   UNL     1       2.115   8.675  18.396  0.00  0.00    +0.000 NA
ENDROOT
BRANCH   1  12
ATOM     10  C   UNL     1       5.440   6.121  16.770  0.00  0.00    +0.000 A 
ATOM     11  C   UNL     1       4.563   7.016  17.409  0.00  0.00    +0.000 A 
ATOM     12  C   UNL     1       3.370   6.577  17.986  0.00  0.00    +0.000 A 
ATOM     13  C   UNL     1       3.013   5.241  17.822  0.00  0.00    +0.000 A 
ATOM     14  C   UNL     1       3.829   4.343  17.114  0.00  0.00    +0.000 A 
ATOM     15  C   UNL     1       5.061   4.775  16.572  0.00  0.00    +0.000 A 
BRANCH  10  17
ATOM     16  C   UNL     1       7.482   7.175  17.335  0.00  0.00    +0.000 C 
ATOM     17  O   UNL     1       6.665   6.562  16.333  0.00  0.00    +0.000 OA
ENDBRANCH  10  17
BRANCH  14  18
ATOM     18  O   UNL     1       3.269   3.089  17.087  0.00  0.00    +0.000 OA
ATOM     19  C   UNL     1       3.217   2.313  18.273  0.00  0.00    +0.000 C 
ENDBRANCH  14  18
BRANCH  15  20
ATOM     20  O   UNL     1       5.781   3.822  15.908  0.00  0.00    +0.000 OA
ATOM     21  C   UNL     1       6.002   3.888  14.510  0.00  0.00    +0.000 C 
ENDBRANCH  15  20
ENDBRANCH   1  12
BRANCH   6  22
ATOM     22  N   UNL     1      -0.956  11.610  20.722  0.00  0.00    +0.000 N 
ATOM     23  C   UNL     1      -2.026  12.014  19.929  0.00  0.00    +0.000 C 
ATOM     24  O   UNL     1      -2.436  11.400  18.949  0.00  0.00    +0.000 OA
ATOM     25  H   UNL     1      -0.751  12.248  21.481  0.00  0.00    +0.000 HD
BRANCH  23  26
ATOM     26  C   UNL     1      -2.647  13.255  20.356  0.00  0.00    +0.000 A 
ATOM     27  C   UNL     1      -3.965  13.525  20.674  0.00  0.00    +0.000 A 
ATOM     28  C   UNL     1      -4.030  14.891  21.030  0.00  0.00    +0.000 A 
ATOM     29  C   UNL     1      -2.751  15.376  20.902  0.00  0.00    +0.000 A 
ATOM     30  O   UNL     1      -1.900  14.397  20.492  0.00  0.00    +0.000 OA
ENDBRANCH  23  26
ENDBRANCH   6  22
TORSDOF 6
ENDMDL
MODEL 8
REMARK VINA RESULT:      -7.3      1.696      3.056
REMARK  Name = 
REMARK  9 active torsions:
REMARK  status: ('A' for Active; 'I' for Inactive)
REMARK    1  A    between atoms: C_1  and  O_2
REMARK    2  A    between atoms: O_2  and  C_3
REMARK    3  A    between atoms: C_5  and  C_6
REMARK    4  A    between atoms: C_11  and  N_12
REMARK    5  A    between atoms: C_13  and  C_15
REMARK    6  A    between atoms: C_24  and  O_25
REMARK    7  A    between atoms: O_25  and  C_26
REMARK    8  A    between atoms: C_27  and  O_28
REMARK    9  A    between atoms: O_28  and  C_29
REMARK                            x       y       z     vdW  Elec       q    Type
REMARK                         _______ _______ _______ _____ _____    ______ ____
ROOT
ATOM      1  C   UNL     1       2.160   8.354  18.378  0.00  0.00    +0.000 A 
ATOM      2  N   UNL     1       2.145   9.580  17.757  0.00  0.00    +0.000 NA
ATOM      3  C   UNL     1       1.381  10.307  18.536  0.00  0.00    +0.000 A 
ATOM      4  C   UNL     1       0.989  11.665  18.480  0.00  0.00    +0.000 A 
ATOM      5  C   UNL     1       0.206  12.175  19.449  0.00  0.00    +0.000 A 
ATOM      6  C   UNL     1      -0.268  11.373  20.576  0.00  0.00    +0.000 A 
ATOM      7  C   UNL     1       0.109  10.077  20.615  0.00  0.00    +0.000 A 
ATOM      8  N   UNL     1       0.924   9.547  19.608  0.00  0.00    +0.000 N 
ATOM      9  N   UNL     1       1.413   8.289  19.492  0.00  0.00    +0.000 NA
ENDROOT
BRANCH   1  12
ATOM     10  C   UNL     1       5.157   6.526  16.990  0.00  0.00    +0.000 A 
ATOM     11  C   UNL     1       4.237   7.548  17.291  0.00  0.00    +0.000 A 
ATOM     12  C   UNL     1       3.012   7.267  17.897  0.00  0.00    +0.000 A 
ATOM     13  C   UNL     1       2.671   5.932  18.104  0.00  0.00    +0.000 A 
ATOM     14  C   UNL     1       3.534   4.887  17.733  0.00  0.00    +0.000 A 
ATOM     15  C   UNL     1       4.796   5.173  17.166  0.00  0.00    +0.000 A 
BRANCH  10  17
ATOM     16  C   UNL     1       7.393   7.083  17.528  0.00  0.00    +0.000 C 
ATOM     17  O   UNL     1       6.406   6.851  16.519  0.00  0.00    +0.000 OA
ENDBRANCH  10  17
BRANCH  14  18
ATOM     18  O   UNL     1       2.982   3.666  18.035  0.00  0.00    +0.000 OA
ATOM     19  C   UNL     1       1.882   3.589  18.927  0.00  0.00    +0.000 C 
ENDBRANCH  14  18
BRANCH  15  20
ATOM     20  O   UNL     1       5.561   4.086  16.848  0.00  0.00    +0.000 OA
ATOM     21  C   UNL     1       5.867   3.751  15.506  0.00  0.00    +0.000 C 
ENDBRANCH  15  20
ENDBRANCH   1  12
BRANCH   6  22
ATOM     22  N   UNL     1      -1.067  11.892  21.572  0.00  0.00    +0.000 N 
ATOM     23  C   UNL     1      -2.328  12.469  21.468  0.00  0.00    +0.000 C 
ATOM     24  O   UNL     1      -2.926  12.651  20.411  0.00  0.00    +0.000 OA
ATOM     25  H   UNL     1      -0.725  11.835  22.524  0.00  0.00    +0.000 HD
BRANCH  23  26
ATOM     26  C   UNL     1      -2.913  12.855  22.740  0.00  0.00    +0.000 A 
ATOM     27  C   UNL     1      -2.814  14.044  23.439  0.00  0.00    +0.000 A 
ATOM     28  C   UNL     1      -3.578  13.893  24.617  0.00  0.00    +0.000 A 
ATOM     29  C   UNL     1      -4.094  12.620  24.573  0.00  0.00    +0.000 A 
ATOM     30  O   UNL     1      -3.697  11.976  23.441  0.00  0.00    +0.000 OA
ENDBRANCH  23  26
ENDBRANCH   6  22
TORSDOF 6
ENDMDL
MODEL 9
REMARK VINA RESULT:      -7.2      0.717      1.070
REMARK  Name = 
REMARK  9 active torsions:
REMARK  status: ('A' for Active; 'I' for Inactive)
REMARK    1  A    between atoms: C_1  and  O_2
REMARK    2  A    between atoms: O_2  and  C_3
REMARK    3  A    between atoms: C_5  and  C_6
REMARK    4  A    between atoms: C_11  and  N_12
REMARK    5  A    between atoms: C_13  and  C_15
REMARK    6  A    between atoms: C_24  and  O_25
REMARK    7  A    between atoms: O_25  and  C_26
REMARK    8  A    between atoms: C_27  and  O_28
REMARK    9  A    between atoms: O_28  and  C_29
REMARK                            x       y       z     vdW  Elec       q    Type
REMARK                         _______ _______ _______ _____ _____    ______ ____
ROOT
ATOM      1  C   UNL     1       1.678   7.943  19.777  0.00  0.00    +0.000 A 
ATOM      2  N   UNL     1       1.574   8.961  18.860  0.00  0.00    +0.000 NA
ATOM      3  C   UNL     1       0.965   9.912  19.527  0.00  0.00    +0.000 A 
ATOM      4  C   UNL     1       0.588  11.228  19.171  0.00  0.00    +0.000 A 
ATOM      5  C   UNL     1      -0.010  12.021  20.081  0.00  0.00    +0.000 A 
ATOM      6  C   UNL     1      -0.294  11.573  21.444  0.00  0.00    +0.000 A 
ATOM      7  C   UNL     1       0.066  10.314  21.769  0.00  0.00    +0.000 A 
ATOM      8  N   UNL     1       0.689   9.490  20.824  0.00  0.00    +0.000 N 
ATOM      9  N   UNL     1       1.133   8.218  20.973  0.00  0.00    +0.000 NA
ENDROOT
BRANCH   1  12
ATOM     10  C   UNL     1       2.887   4.373  19.974  0.00  0.00    +0.000 A 
ATOM     11  C   UNL     1       2.340   5.619  20.331  0.00  0.00    +0.000 A 
ATOM     12  C   UNL     1       2.420   6.720  19.476  0.00  0.00    +0.000 A 
ATOM     13  C   UNL     1       3.151   6.586  18.298  0.00  0.00    +0.000 A 
ATOM     14  C   UNL     1       3.782   5.378  17.958  0.00  0.00    +0.000 A 
ATOM     15  C   UNL     1       3.659   4.248  18.798  0.00  0.00    +0.000 A 
BRANCH  10  17
ATOM     16  C   UNL     1       1.307   3.047  21.133  0.00  0.00    +0.000 C 
ATOM     17  O   UNL     1       2.673   3.279  20.777  0.00  0.00    +0.000 OA
ENDBRANCH  10  17
BRANCH  14  18
ATOM     18  O   UNL     1       4.439   5.490  16.756  0.00  0.00    +0.000 OA
ATOM     19  C   UNL     1       5.716   6.105  16.705  0.00  0.00    +0.000 C 
ENDBRANCH  14  18
BRANCH  15  20
ATOM     20  O   UNL     1       4.305   3.121  18.372  0.00  0.00    +0.000 OA
ATOM     21  C   UNL     1       3.607   2.021  17.817  0.00  0.00    +0.000 C 
ENDBRANCH  15  20
ENDBRANCH   1  12
BRANCH   6  22
ATOM     22  N   UNL     1      -0.902  12.383  22.378  0.00  0.00    +0.000 N 
ATOM     23  C   UNL     1      -0.505  13.634  22.840  0.00  0.00    +0.000 C 
ATOM     24  O   UNL     1       0.523  14.209  22.497  0.00  0.00    +0.000 OA
ATOM     25  H   UNL     1      -1.773  12.061  22.782  0.00  0.00    +0.000 HD
BRANCH  23  26
ATOM     26  C   UNL     1      -1.425  14.237  23.789  0.00  0.00    +0.000 A 
ATOM     27  C   UNL     1      -1.224  15.267  24.689  0.00  0.00    +0.000 A 
ATOM     28  C   UNL     1      -2.447  15.463  25.368  0.00  0.00    +0.000 A 
ATOM     29  C   UNL     1      -3.321  14.538  24.849  0.00  0.00    +0.000 A 
ATOM     30  O   UNL     1      -2.715  13.785  23.891  0.00  0.00    +0.000 OA
ENDBRANCH  23  26
ENDBRANCH   6  22
TORSDOF 6
ENDMDL
