MODEL 1
REMARK VINA RESULT:      -8.7      0.000      0.000
REMARK  Name = 
REMARK  5 active torsions:
REMARK  status: ('A' for Active; 'I' for Inactive)
REMARK    1  A    between atoms: C_1  and  C_2
REMARK    2  A    between atoms: C_6  and  N_7
REMARK    3  A    between atoms: N_14  and  C_15
REMARK    4  A    between atoms: C_18  and  S_19
REMARK    5  A    between atoms: S_19  and  N_20
REMARK                            x       y       z     vdW  Elec       q    Type
REMARK                         _______ _______ _______ _____ _____    ______ ____
ROOT
ATOM      1  N   UNL     1       1.244  10.817  18.518  0.00  0.00    +0.000 N 
ATOM      2  C   UNL     1       1.162   9.881  19.552  0.00  0.00    +0.000 A 
ATOM      3  N   UNL     1       0.692  10.200  20.742  0.00  0.00    +0.000 NA
ATOM      4  C   UNL     1       0.738   9.221  21.630  0.00  0.00    +0.000 A 
ATOM      5 CL   UNL     1       0.202   9.622  23.202  0.00  0.00    +0.000 Cl
ATOM      6  N   UNL     1       1.200   7.994  21.463  0.00  0.00    +0.000 NA
ATOM      7  C   UNL     1       1.662   7.779  20.247  0.00  0.00    +0.000 A 
ATOM      8  N   UNL     1       2.197   6.514  20.000  0.00  0.00    +0.000 N 
ATOM      9  N   UNL     1       1.643   8.680  19.265  0.00  0.00    +0.000 NA
ATOM     10  H   UNL     1       1.723  10.395  17.733  0.00  0.00    +0.000 HD
ATOM     11  H   UNL     1       2.147   5.954  20.843  0.00  0.00    +0.000 HD
ENDROOT
BRANCH   1  17
ATOM     12  C   UNL     1       3.797  15.049  18.154  0.00  0.00    +0.000 C 
ATOM     13  C   UNL     1       2.498  14.345  18.404  0.00  0.00    +0.000 A 
ATOM     14  C   UNL     1       1.305  15.039  18.604  0.00  0.00    +0.000 A 
ATOM     15  C   UNL     1       0.122  14.338  18.828  0.00  0.00    +0.000 A 
ATOM     16  C   UNL     1       0.120  12.939  18.827  0.00  0.00    +0.000 A 
ATOM     17  C   UNL     1       1.296  12.218  18.584  0.00  0.00    +0.000 A 
ATOM     18  C   UNL     1       2.481  12.945  18.419  0.00  0.00    +0.000 A 
ENDBRANCH   1  17
BRANCH   8  19
ATOM     19  C   UNL     1       3.278   6.190  19.164  0.00  0.00    +0.000 A 
ATOM     20  C   UNL     1       3.452   6.761  17.894  0.00  0.00    +0.000 A 
ATOM     21  C   UNL     1       4.545   6.419  17.096  0.00  0.00    +0.000 A 
ATOM     22  C   UNL     1       5.474   5.494  17.569  0.00  0.00    +0.000 A 
ATOM     23  C   UNL     1       5.309   4.894  18.818  0.00  0.00    +0.000 A 
ATOM     24  C   UNL     1       4.219   5.255  19.615  0.00  0.00    +0.000 A 
BRANCH  22  25
ATOM     25  S   UNL     1       6.868   5.074  16.570  0.00  0.00    +0.000 S 
ATOM     26  O   UNL     1       6.492   4.042  15.634  0.00  0.00    +0.000 OA
ATOM     27  O   UNL     1       7.546   6.284  16.164  0.00  0.00    +0.000 OA
BRANCH  25  28
ATOM     28  N   UNL     1       7.868   4.339  17.698  0.00  0.00    +0.000 NA
ATOM     29  H   UNL     1       8.841   4.579  17.509  0.00  0.00    +0.000 HD
ATOM     30  H   UNL     1       7.557   4.563  18.643  0.00  0.00    +0.000 HD
ENDBRANCH  25  28
ENDBRANCH  22  25
ENDBRANCH   8  19
TORSDOF 4
ENDMDL
MODEL 2
REMARK VINA RESULT:      -8.7      0.374      1.629
REMARK  Name = 
REMARK  5 active torsions:
REMARK  status: ('A' for Active; 'I' for Inactive)
REMARK    1  A    between atoms: C_1  and  C_2
REMARK    2  A    between atoms: C_6  and  N_7
REMARK    3  A    between atoms: N_14  and  C_15
REMARK    4  A    between atoms: C_18  and  S_19
REMARK    5  A    between atoms: S_19  and  N_20
REMARK                            x       y       z     vdW  Elec       q    Type
REMARK                         _______ _______ _______ _____ _____    ______ ____
ROOT
ATOM      1  N   UNL     1       1.484  10.702  18.389  0.00  0.00    +0.000 N 
ATOM      2  C   UNL     1       1.337   9.776  19.425  0.00  0.00    +0.000 A 
ATOM      3  N   UNL     1       0.825  10.114  20.592  0.00  0.00    +0.000 NA
ATOM      4  C   UNL     1       0.812   9.142  21.487  0.00  0.00    +0.000 A 
ATOM      5 CL   UNL     1       0.220   9.566  23.032  0.00  0.00    +0.000 Cl
ATOM      6  N   UNL     1       1.254   7.904  21.348  0.00  0.00    +0.000 NA
ATOM      7  C   UNL     1       1.763   7.669  20.154  0.00  0.00    +0.000 A 
ATOM      8  N   UNL     1       2.280   6.392  19.938  0.00  0.00    +0.000 N 
ATOM      9  N   UNL     1       1.804   8.563  19.166  0.00  0.00    +0.000 NA
ATOM     10  H   UNL     1       1.986  10.264  17.628  0.00  0.00    +0.000 HD
ATOM     11  H   UNL     1       2.182   5.839  20.782  0.00  0.00    +0.000 HD
ENDROOT
BRANCH   1  17
ATOM     12  C   UNL     1      -0.598  15.092  19.366  0.00  0.00    +0.000 C 
ATOM     13  C   UNL     1       0.598  14.301  18.927  0.00  0.00    +0.000 A 
ATOM     14  C   UNL     1       1.829  14.903  18.667  0.00  0.00    +0.000 A 
ATOM     15  C   UNL     1       2.912  14.123  18.265  0.00  0.00    +0.000 A 
ATOM     16  C   UNL     1       2.778  12.735  18.148  0.00  0.00    +0.000 A 
ATOM     17  C   UNL     1       1.564  12.103  18.447  0.00  0.00    +0.000 A 
ATOM     18  C   UNL     1       0.476  12.913  18.792  0.00  0.00    +0.000 A 
ENDBRANCH   1  17
BRANCH   8  19
ATOM     19  C   UNL     1       3.388   6.038  19.151  0.00  0.00    +0.000 A 
ATOM     20  C   UNL     1       4.413   5.200  19.619  0.00  0.00    +0.000 A 
ATOM     21  C   UNL     1       5.495   4.864  18.803  0.00  0.00    +0.000 A 
ATOM     22  C   UNL     1       5.555   5.370  17.506  0.00  0.00    +0.000 A 
ATOM     23  C   UNL     1       4.560   6.224  17.027  0.00  0.00    +0.000 A 
ATOM     24  C   UNL     1       3.475   6.542  17.848  0.00  0.00    +0.000 A 
BRANCH  22  25
ATOM     25  S   UNL     1       6.912   4.931  16.465  0.00  0.00    +0.000 S 
ATOM     26  O   UNL     1       6.499   3.888  15.556  0.00  0.00    +0.000 OA
ATOM     27  O   UNL     1       7.581   6.131  16.019  0.00  0.00    +0.000 OA
BRANCH  25  28
ATOM     28  N   UNL     1       7.947   4.206  17.567  0.00  0.00    +0.000 NA
ATOM     29  H   UNL     1       7.419   3.870  18.372  0.00  0.00    +0.000 HD
ATOM     30  H   UNL     1       8.507   3.490  17.105  0.00  0.00    +0.000 HD
ENDBRANCH  25  28
ENDBRANCH  22  25
ENDBRANCH   8  19
TORSDOF 4
ENDMDL
MODEL 3
REMARK VINA RESULT:      -8.5      0.936      1.631
REMARK  Name = 
REMARK  5 active torsions:
REMARK  status: ('A' for Active; 'I' for Inactive)
REMARK    1  A    between atoms: C_1  and  C_2
REMARK    2  A    between atoms: C_6  and  N_7
REMARK    3  A    between atoms: N_14  and  C_15
REMARK    4  A    between atoms: C_18  and  S_19
REMARK    5  A    between atoms: S_19  and  N_20
REMARK                            x       y       z     vdW  Elec       q    Type
REMARK                         _______ _______ _______ _____ _____    ______ ____
ROOT
ATOM      1  N   UNL     1       1.457  10.508  18.298  0.00  0.00    +0.000 N 
ATOM      2  C   UNL     1       1.333   9.569  19.325  0.00  0.00    +0.000 A 
ATOM      3  N   UNL     1       0.848   9.891  20.508  0.00  0.00    +0.000 NA
ATOM      4  C   UNL     1       0.855   8.907  21.391  0.00  0.00    +0.000 A 
ATOM      5 CL   UNL     1       0.299   9.312  22.954  0.00  0.00    +0.000 Cl
ATOM      6  N   UNL     1       1.291   7.671  21.225  0.00  0.00    +0.000 NA
ATOM      7  C   UNL     1       1.771   7.451  20.016  0.00  0.00    +0.000 A 
ATOM      8  N   UNL     1       2.281   6.176  19.772  0.00  0.00    +0.000 N 
ATOM      9  N   UNL     1       1.791   8.358  19.040  0.00  0.00    +0.000 NA
ATOM     10  H   UNL     1       1.940  10.079  17.520  0.00  0.00    +0.000 HD
ATOM     11  H   UNL     1       2.202   5.613  20.610  0.00  0.00    +0.000 HD
ENDROOT
BRANCH   1  17
ATOM     12  C   UNL     1      -0.615  14.892  19.323  0.00  0.00    +0.000 C 
ATOM     13  C   UNL     1       0.579  14.103  18.878  0.00  0.00    +0.000 A 
ATOM     14  C   UNL     1       1.812  14.704  18.627  0.00  0.00    +0.000 A 
ATOM     15  C   UNL     1       2.894  13.926  18.218  0.00  0.00    +0.000 A 
ATOM     16  C   UNL     1       2.756  12.540  18.085  0.00  0.00    +0.000 A 
ATOM     17  C   UNL     1       1.540  11.908  18.374  0.00  0.00    +0.000 A 
ATOM     18  C   UNL     1       0.454  12.717  18.726  0.00  0.00    +0.000 A 
ENDBRANCH   1  17
BRANCH   8  19
ATOM     19  C   UNL     1       3.370   5.831  18.954  0.00  0.00    +0.000 A 
ATOM     20  C   UNL     1       3.224   5.501  17.598  0.00  0.00    +0.000 A 
ATOM     21  C   UNL     1       4.332   5.172  16.815  0.00  0.00    +0.000 A 
ATOM     22  C   UNL     1       5.601   5.169  17.394  0.00  0.00    +0.000 A 
ATOM     23  C   UNL     1       5.768   5.469  18.747  0.00  0.00    +0.000 A 
ATOM     24  C   UNL     1       4.653   5.812  19.516  0.00  0.00    +0.000 A 
BRANCH  22  25
ATOM     25  S   UNL     1       7.006   4.772  16.402  0.00  0.00    +0.000 S 
ATOM     26  O   UNL     1       7.245   5.840  15.461  0.00  0.00    +0.000 OA
ATOM     27  O   UNL     1       8.047   4.230  17.244  0.00  0.00    +0.000 OA
BRANCH  25  28
ATOM     28  N   UNL     1       6.418   3.483  15.504  0.00  0.00    +0.000 NA
ATOM     29  H   UNL     1       5.423   3.609  15.325  0.00  0.00    +0.000 HD
ATOM     30  H   UNL     1       6.982   3.353  14.665  0.00  0.00    +0.000 HD
ENDBRANCH  25  28
ENDBRANCH  22  25
ENDBRANCH   8  19
TORSDOF 4
ENDMDL
MODEL 4
REMARK VINA RESULT:      -8.4      4.778      8.570
REMARK  Name = 
REMARK  5 active torsions:
REMARK  status: ('A' for Active; 'I' for Inactive)
REMARK    1  A    between atoms: C_1  and  C_2
REMARK    2  A    between atoms: C_6  and  N_7
REMARK    3  A    between atoms: N_14  and  C_15
REMARK    4  A    between atoms: C_18  and  S_19
REMARK    5  A    between atoms: S_19  and  N_20
REMARK                            x       y       z     vdW  Elec       q    Type
REMARK                         _______ _______ _______ _____ _____    ______ ____
ROOT
ATOM      1  N   UNL     1       5.669   5.431  16.294  0.00  0.00    +0.000 N 
ATOM      2  C   UNL     1       4.893   4.798  17.269  0.00  0.00    +0.000 A 
ATOM      3  N   UNL     1       4.743   3.489  17.297  0.00  0.00    +0.000 NA
ATOM      4  C   UNL     1       3.928   3.050  18.241  0.00  0.00    +0.000 A 
ATOM      5 CL   UNL     1       3.657   1.364  18.259  0.00  0.00    +0.000 Cl
ATOM      6  N   UNL     1       3.256   3.761  19.129  0.00  0.00    +0.000 NA
ATOM      7  C   UNL     1       3.458   5.060  19.009  0.00  0.00    +0.000 A 
ATOM      8  N   UNL     1       2.759   5.882  19.892  0.00  0.00    +0.000 N 
ATOM      9  N   UNL     1       4.277   5.613  18.115  0.00  0.00    +0.000 NA
ATOM     10  H   UNL     1       5.567   6.432  16.395  0.00  0.00    +0.000 HD
ATOM     11  H   UNL     1       2.178   5.314  20.497  0.00  0.00    +0.000 HD
ENDROOT
BRANCH   1  17
ATOM     12  C   UNL     1       4.534   3.212  12.012  0.00  0.00    +0.000 C 
ATOM     13  C   UNL     1       5.543   3.906  12.876  0.00  0.00    +0.000 A 
ATOM     14  C   UNL     1       6.825   4.210  12.420  0.00  0.00    +0.000 A 
ATOM     15  C   UNL     1       7.726   4.860  13.262  0.00  0.00    +0.000 A 
ATOM     16  C   UNL     1       7.341   5.233  14.554  0.00  0.00    +0.000 A 
ATOM     17  C   UNL     1       6.044   4.979  15.020  0.00  0.00    +0.000 A 
ATOM     18  C   UNL     1       5.178   4.274  14.177  0.00  0.00    +0.000 A 
ENDBRANCH   1  17
BRANCH   8  19
ATOM     19  C   UNL     1       2.239   7.162  19.641  0.00  0.00    +0.000 A 
ATOM     20  C   UNL     1       2.328   7.784  18.386  0.00  0.00    +0.000 A 
ATOM     21  C   UNL     1       1.790   9.054  18.173  0.00  0.00    +0.000 A 
ATOM     22  C   UNL     1       1.158   9.714  19.226  0.00  0.00    +0.000 A 
ATOM     23  C   UNL     1       1.080   9.127  20.490  0.00  0.00    +0.000 A 
ATOM     24  C   UNL     1       1.608   7.848  20.687  0.00  0.00    +0.000 A 
BRANCH  22  25
ATOM     25  S   UNL     1       0.460  11.313  18.955  0.00  0.00    +0.000 S 
ATOM     26  O   UNL     1      -0.735  11.184  18.156  0.00  0.00    +0.000 OA
ATOM     27  O   UNL     1       0.495  12.064  20.189  0.00  0.00    +0.000 OA
BRANCH  25  28
ATOM     28  N   UNL     1       1.616  12.008  17.957  0.00  0.00    +0.000 NA
ATOM     29  H   UNL     1       1.468  11.709  16.993  0.00  0.00    +0.000 HD
ATOM     30  H   UNL     1       1.628  13.020  18.085  0.00  0.00    +0.000 HD
ENDBRANCH  25  28
ENDBRANCH  22  25
ENDBRANCH   8  19
TORSDOF 4
ENDMDL
MODEL 5
REMARK VINA RESULT:      -8.4      0.716      1.235
REMARK  Name = 
REMARK  5 active torsions:
REMARK  status: ('A' for Active; 'I' for Inactive)
REMARK    1  A    between atoms: C_1  and  C_2
REMARK    2  A    between atoms: C_6  and  N_7
REMARK    3  A    between atoms: N_14  and  C_15
REMARK    4  A    between atoms: C_18  and  S_19
REMARK    5  A    between atoms: S_19  and  N_20
REMARK                            x       y       z     vdW  Elec       q    Type
REMARK                         _______ _______ _______ _____ _____    ______ ____
ROOT
ATOM      1  N   UNL     1       1.441  10.812  18.483  0.00  0.00    +0.000 N 
ATOM      2  C   UNL     1       1.279   9.885  19.517  0.00  0.00    +0.000 A 
ATOM      3  N   UNL     1       0.770  10.227  20.684  0.00  0.00    +0.000 NA
ATOM      4  C   UNL     1       0.741   9.253  21.577  0.00  0.00    +0.000 A 
ATOM      5 CL   UNL     1       0.152   9.683  23.122  0.00  0.00    +0.000 Cl
ATOM      6  N   UNL     1       1.164   8.009  21.436  0.00  0.00    +0.000 NA
ATOM      7  C   UNL     1       1.671   7.770  20.241  0.00  0.00    +0.000 A 
ATOM      8  N   UNL     1       2.169   6.485  20.024  0.00  0.00    +0.000 N 
ATOM      9  N   UNL     1       1.728   8.665  19.256  0.00  0.00    +0.000 NA
ATOM     10  H   UNL     1       1.938  10.367  17.722  0.00  0.00    +0.000 HD
ATOM     11  H   UNL     1       2.061   5.932  20.866  0.00  0.00    +0.000 HD
ENDROOT
BRANCH   1  17
ATOM     12  C   UNL     1       4.104  14.960  17.974  0.00  0.00    +0.000 C 
ATOM     13  C   UNL     1       2.799  14.297  18.297  0.00  0.00    +0.000 A 
ATOM     14  C   UNL     1       1.643  15.030  18.564  0.00  0.00    +0.000 A 
ATOM     15  C   UNL     1       0.452  14.366  18.856  0.00  0.00    +0.000 A 
ATOM     16  C   UNL     1       0.405  12.968  18.855  0.00  0.00    +0.000 A 
ATOM     17  C   UNL     1       1.542  12.210  18.546  0.00  0.00    +0.000 A 
ATOM     18  C   UNL     1       2.738  12.899  18.314  0.00  0.00    +0.000 A 
ENDBRANCH   1  17
BRANCH   8  19
ATOM     19  C   UNL     1       3.273   6.116  19.237  0.00  0.00    +0.000 A 
ATOM     20  C   UNL     1       4.252   5.214  19.682  0.00  0.00    +0.000 A 
ATOM     21  C   UNL     1       5.330   4.865  18.867  0.00  0.00    +0.000 A 
ATOM     22  C   UNL     1       5.434   5.425  17.595  0.00  0.00    +0.000 A 
ATOM     23  C   UNL     1       4.487   6.343  17.140  0.00  0.00    +0.000 A 
ATOM     24  C   UNL     1       3.404   6.674  17.959  0.00  0.00    +0.000 A 
BRANCH  22  25
ATOM     25  S   UNL     1       6.787   4.970  16.554  0.00  0.00    +0.000 S 
ATOM     26  O   UNL     1       6.933   5.950  15.504  0.00  0.00    +0.000 OA
ATOM     27  O   UNL     1       7.895   4.536  17.374  0.00  0.00    +0.000 OA
BRANCH  25  28
ATOM     28  N   UNL     1       6.184   3.587  15.821  0.00  0.00    +0.000 NA
ATOM     29  H   UNL     1       6.030   3.759  14.828  0.00  0.00    +0.000 HD
ATOM     30  H   UNL     1       6.790   2.791  16.020  0.00  0.00    +0.000 HD
ENDBRANCH  25  28
ENDBRANCH  22  25
ENDBRANCH   8  19
TORSDOF 4
ENDMDL
MODEL 6
REMARK VINA RESULT:      -7.7      4.382      8.207
REMARK  Name = 
REMARK  5 active torsions:
REMARK  status: ('A' for Active; 'I' for Inactive)
REMARK    1  A    between atoms: C_1  and  C_2
REMARK    2  A    between atoms: C_6  and  N_7
REMARK    3  A    between atoms: N_14  and  C_15
REMARK    4  A    between atoms: C_18  and  S_19
REMARK    5  A    between atoms: S_19  and  N_20
REMARK                            x       y       z     vdW  Elec       q    Type
REMARK                         _______ _______ _______ _____ _____    ______ ____
ROOT
ATOM      1  N   UNL     1       4.863   6.156  18.751  0.00  0.00    +0.000 N 
ATOM      2  C   UNL     1       3.681   5.804  19.408  0.00  0.00    +0.000 A 
ATOM      3  N   UNL     1       3.269   4.554  19.475  0.00  0.00    +0.000 NA
ATOM      4  C   UNL     1       2.102   4.392  20.075  0.00  0.00    +0.000 A 
ATOM      5 CL   UNL     1       1.506   2.792  20.115  0.00  0.00    +0.000 Cl
ATOM      6  N   UNL     1       1.319   5.322  20.593  0.00  0.00    +0.000 NA
ATOM      7  C   UNL     1       1.810   6.540  20.462  0.00  0.00    +0.000 A 
ATOM      8  N   UNL     1       1.026   7.582  20.957  0.00  0.00    +0.000 N 
ATOM      9  N   UNL     1       2.986   6.820  19.901  0.00  0.00    +0.000 NA
ATOM     10  H   UNL     1       4.937   7.165  18.732  0.00  0.00    +0.000 HD
ATOM     11  H   UNL     1       0.167   7.208  21.340  0.00  0.00    +0.000 HD
ENDROOT
BRANCH   1  17
ATOM     12  C   UNL     1       5.109   4.363  14.138  0.00  0.00    +0.000 C 
ATOM     13  C   UNL     1       5.754   4.576  15.475  0.00  0.00    +0.000 A 
ATOM     14  C   UNL     1       7.073   4.203  15.728  0.00  0.00    +0.000 A 
ATOM     15  C   UNL     1       7.629   4.426  16.987  0.00  0.00    +0.000 A 
ATOM     16  C   UNL     1       6.877   5.048  17.990  0.00  0.00    +0.000 A 
ATOM     17  C   UNL     1       5.564   5.472  17.746  0.00  0.00    +0.000 A 
ATOM     18  C   UNL     1       5.010   5.184  16.493  0.00  0.00    +0.000 A 
ENDBRANCH   1  17
BRANCH   8  19
ATOM     19  C   UNL     1       0.900   8.881  20.436  0.00  0.00    +0.000 A 
ATOM     20  C   UNL     1       1.069   9.170  19.073  0.00  0.00    +0.000 A 
ATOM     21  C   UNL     1       0.927  10.473  18.592  0.00  0.00    +0.000 A 
ATOM     22  C   UNL     1       0.613  11.499  19.482  0.00  0.00    +0.000 A 
ATOM     23  C   UNL     1       0.465  11.240  20.845  0.00  0.00    +0.000 A 
ATOM     24  C   UNL     1       0.595   9.930  21.313  0.00  0.00    +0.000 A 
BRANCH  22  25
ATOM     25  S   UNL     1       0.413  13.144  18.874  0.00  0.00    +0.000 S 
ATOM     26  O   UNL     1      -0.152  13.973  19.912  0.00  0.00    +0.000 OA
ATOM     27  O   UNL     1       1.591  13.525  18.129  0.00  0.00    +0.000 OA
BRANCH  25  28
ATOM     28  N   UNL     1      -0.802  12.926  17.738  0.00  0.00    +0.000 NA
ATOM     29  H   UNL     1      -0.507  13.299  16.836  0.00  0.00    +0.000 HD
ATOM     30  H   UNL     1      -1.089  11.948  17.713  0.00  0.00    +0.000 HD
ENDBRANCH  25  28
ENDBRANCH  22  25
ENDBRANCH   8  19
TORSDOF 4
ENDMDL
MODEL 7
REMARK VINA RESULT:      -7.6      4.676      8.423
REMARK  Name = 
REMARK  5 active torsions:
REMARK  status: ('A' for Active; 'I' for Inactive)
REMARK    1  A    between atoms: C_1  and  C_2
REMARK    2  A    between atoms: C_6  and  N_7
REMARK    3  A    between atoms: N_14  and  C_15
REMARK    4  A    between atoms: C_18  and  S_19
REMARK    5  A    between atoms: S_19  and  N_20
REMARK                            x       y       z     vdW  Elec       q    Type
REMARK                         _______ _______ _______ _____ _____    ______ ____
ROOT
ATOM      1  N   UNL     1       5.576   5.586  16.545  0.00  0.00    +0.000 N 
ATOM      2  C   UNL     1       4.801   4.949  17.518  0.00  0.00    +0.000 A 
ATOM      3  N   UNL     1       4.669   3.638  17.554  0.00  0.00    +0.000 NA
ATOM      4  C   UNL     1       3.854   3.194  18.494  0.00  0.00    +0.000 A 
ATOM      5 CL   UNL     1       3.607   1.504  18.521  0.00  0.00    +0.000 Cl
ATOM      6  N   UNL     1       3.166   3.901  19.373  0.00  0.00    +0.000 NA
ATOM      7  C   UNL     1       3.351   5.202  19.247  0.00  0.00    +0.000 A 
ATOM      8  N   UNL     1       2.634   6.019  20.120  0.00  0.00    +0.000 N 
ATOM      9  N   UNL     1       4.168   5.761  18.355  0.00  0.00    +0.000 NA
ATOM     10  H   UNL     1       5.458   6.587  16.638  0.00  0.00    +0.000 HD
ATOM     11  H   UNL     1       2.057   5.447  20.724  0.00  0.00    +0.000 HD
ENDROOT
BRANCH   1  17
ATOM     12  C   UNL     1       8.727   5.683  12.722  0.00  0.00    +0.000 C 
ATOM     13  C   UNL     1       7.493   5.121  13.362  0.00  0.00    +0.000 A 
ATOM     14  C   UNL     1       6.766   4.083  12.782  0.00  0.00    +0.000 A 
ATOM     15  C   UNL     1       5.627   3.592  13.419  0.00  0.00    +0.000 A 
ATOM     16  C   UNL     1       5.226   4.118  14.651  0.00  0.00    +0.000 A 
ATOM     17  C   UNL     1       5.966   5.132  15.275  0.00  0.00    +0.000 A 
ATOM     18  C   UNL     1       7.071   5.646  14.589  0.00  0.00    +0.000 A 
ENDBRANCH   1  17
BRANCH   8  19
ATOM     19  C   UNL     1       2.098   7.291  19.857  0.00  0.00    +0.000 A 
ATOM     20  C   UNL     1       2.195   7.909  18.601  0.00  0.00    +0.000 A 
ATOM     21  C   UNL     1       1.642   9.171  18.376  0.00  0.00    +0.000 A 
ATOM     22  C   UNL     1       0.985   9.824  19.419  0.00  0.00    +0.000 A 
ATOM     23  C   UNL     1       0.898   9.240  20.683  0.00  0.00    +0.000 A 
ATOM     24  C   UNL     1       1.443   7.970  20.892  0.00  0.00    +0.000 A 
BRANCH  22  25
ATOM     25  S   UNL     1       0.267  11.411  19.132  0.00  0.00    +0.000 S 
ATOM     26  O   UNL     1      -0.571  11.767  20.253  0.00  0.00    +0.000 OA
ATOM     27  O   UNL     1       1.272  12.301  18.598  0.00  0.00    +0.000 OA
BRANCH  25  28
ATOM     28  N   UNL     1      -0.774  11.073  17.861  0.00  0.00    +0.000 NA
ATOM     29  H   UNL     1      -0.364  10.363  17.255  0.00  0.00    +0.000 HD
ATOM     30  H   UNL     1      -1.700  10.836  18.218  0.00  0.00    +0.000 HD
ENDBRANCH  25  28
ENDBRANCH  22  25
ENDBRANCH   8  19
TORSDOF 4
ENDMDL
MODEL 8
REMARK VINA RESULT:      -7.6      4.501      8.131
REMARK  Name = 
REMARK  5 active torsions:
REMARK  status: ('A' for Active; 'I' for Inactive)
REMARK    1  A    between atoms: C_1  and  C_2
REMARK    2  A    between atoms: C_6  and  N_7
REMARK    3  A    between atoms: N_14  and  C_15
REMARK    4  A    between atoms: C_18  and  S_19
REMARK    5  A    between atoms: S_19  and  N_20
REMARK                            x       y       z     vdW  Elec       q    Type
REMARK                         _______ _______ _______ _____ _____    ______ ____
ROOT
ATOM      1  N   UNL     1       4.904   6.059  18.741  0.00  0.00    +0.000 N 
ATOM      2  C   UNL     1       3.698   5.729  19.364  0.00  0.00    +0.000 A 
ATOM      3  N   UNL     1       3.235   4.495  19.372  0.00  0.00    +0.000 NA
ATOM      4  C   UNL     1       2.052   4.356  19.946  0.00  0.00    +0.000 A 
ATOM      5 CL   UNL     1       1.392   2.781  19.911  0.00  0.00    +0.000 Cl
ATOM      6  N   UNL     1       1.298   5.296  20.490  0.00  0.00    +0.000 NA
ATOM      7  C   UNL     1       1.839   6.497  20.417  0.00  0.00    +0.000 A 
ATOM      8  N   UNL     1       1.089   7.550  20.941  0.00  0.00    +0.000 N 
ATOM      9  N   UNL     1       3.035   6.751  19.886  0.00  0.00    +0.000 NA
ATOM     10  H   UNL     1       5.019   7.064  18.764  0.00  0.00    +0.000 HD
ATOM     11  H   UNL     1       0.208   7.195  21.295  0.00  0.00    +0.000 HD
ENDROOT
BRANCH   1  17
ATOM     12  C   UNL     1       5.086   4.285  14.117  0.00  0.00    +0.000 C 
ATOM     13  C   UNL     1       5.754   4.502  15.442  0.00  0.00    +0.000 A 
ATOM     14  C   UNL     1       7.083   4.147  15.669  0.00  0.00    +0.000 A 
ATOM     15  C   UNL     1       7.659   4.374  16.918  0.00  0.00    +0.000 A 
ATOM     16  C   UNL     1       6.918   4.981  17.937  0.00  0.00    +0.000 A 
ATOM     17  C   UNL     1       5.595   5.388  17.720  0.00  0.00    +0.000 A 
ATOM     18  C   UNL     1       5.022   5.097  16.477  0.00  0.00    +0.000 A 
ENDBRANCH   1  17
BRANCH   8  19
ATOM     19  C   UNL     1       1.023   8.872  20.472  0.00  0.00    +0.000 A 
ATOM     20  C   UNL     1       0.746   9.961  21.313  0.00  0.00    +0.000 A 
ATOM     21  C   UNL     1       0.698  11.262  20.811  0.00  0.00    +0.000 A 
ATOM     22  C   UNL     1       0.928  11.480  19.453  0.00  0.00    +0.000 A 
ATOM     23  C   UNL     1       1.181  10.410  18.593  0.00  0.00    +0.000 A 
ATOM     24  C   UNL     1       1.241   9.113  19.110  0.00  0.00    +0.000 A 
BRANCH  22  25
ATOM     25  S   UNL     1       0.887  13.127  18.818  0.00  0.00    +0.000 S 
ATOM     26  O   UNL     1      -0.363  13.344  18.131  0.00  0.00    +0.000 OA
ATOM     27  O   UNL     1       1.393  14.037  19.821  0.00  0.00    +0.000 OA
BRANCH  25  28
ATOM     28  N   UNL     1       2.066  13.048  17.628  0.00  0.00    +0.000 NA
ATOM     29  H   UNL     1       2.150  13.950  17.161  0.00  0.00    +0.000 HD
ATOM     30  H   UNL     1       2.939  12.697  18.022  0.00  0.00    +0.000 HD
ENDBRANCH  25  28
ENDBRANCH  22  25
ENDBRANCH   8  19
TORSDOF 4
ENDMDL
MODEL 9
REMARK VINA RESULT:      -7.6      4.772      8.375
REMARK  Name = 
REMARK  5 active torsions:
REMARK  status: ('A' for Active; 'I' for Inactive)
REMARK    1  A    between atoms: C_1  and  C_2
REMARK    2  A    between atoms: C_6  and  N_7
REMARK    3  A    between atoms: N_14  and  C_15
REMARK    4  A    between atoms: C_18  and  S_19
REMARK    5  A    between atoms: S_19  and  N_20
REMARK                            x       y       z     vdW  Elec       q    Type
REMARK                         _______ _______ _______ _____ _____    ______ ____
ROOT
ATOM      1  N   UNL     1       5.554   5.544  16.604  0.00  0.00    +0.000 N 
ATOM      2  C   UNL     1       4.780   4.890  17.566  0.00  0.00    +0.000 A 
ATOM      3  N   UNL     1       4.643   3.579  17.574  0.00  0.00    +0.000 NA
ATOM      4  C   UNL     1       3.829   3.118  18.508  0.00  0.00    +0.000 A 
ATOM      5 CL   UNL     1       3.574   1.429  18.500  0.00  0.00    +0.000 Cl
ATOM      6  N   UNL     1       3.147   3.810  19.404  0.00  0.00    +0.000 NA
ATOM      7  C   UNL     1       3.337   5.112  19.304  0.00  0.00    +0.000 A 
ATOM      8  N   UNL     1       2.627   5.914  20.197  0.00  0.00    +0.000 N 
ATOM      9  N   UNL     1       4.154   5.686  18.421  0.00  0.00    +0.000 NA
ATOM     10  H   UNL     1       5.442   6.543  16.718  0.00  0.00    +0.000 HD
ATOM     11  H   UNL     1       2.049   5.331  20.791  0.00  0.00    +0.000 HD
ENDROOT
BRANCH   1  17
ATOM     12  C   UNL     1       8.691   5.711  12.771  0.00  0.00    +0.000 C 
ATOM     13  C   UNL     1       7.458   5.140  13.404  0.00  0.00    +0.000 A 
ATOM     14  C   UNL     1       6.726   4.115  12.806  0.00  0.00    +0.000 A 
ATOM     15  C   UNL     1       5.588   3.615  13.437  0.00  0.00    +0.000 A 
ATOM     16  C   UNL     1       5.193   4.117  14.681  0.00  0.00    +0.000 A 
ATOM     17  C   UNL     1       5.938   5.115  15.323  0.00  0.00    +0.000 A 
ATOM     18  C   UNL     1       7.042   5.640  14.643  0.00  0.00    +0.000 A 
ENDBRANCH   1  17
BRANCH   8  19
ATOM     19  C   UNL     1       2.095   7.193  19.963  0.00  0.00    +0.000 A 
ATOM     20  C   UNL     1       1.436   7.933  20.957  0.00  0.00    +0.000 A 
ATOM     21  C   UNL     1       0.929   9.205  20.689  0.00  0.00    +0.000 A 
ATOM     22  C   UNL     1       1.079   9.745  19.412  0.00  0.00    +0.000 A 
ATOM     23  C   UNL     1       1.708   9.018  18.400  0.00  0.00    +0.000 A 
ATOM     24  C   UNL     1       2.226   7.751  18.685  0.00  0.00    +0.000 A 
BRANCH  22  25
ATOM     25  S   UNL     1       0.456  11.362  19.075  0.00  0.00    +0.000 S 
ATOM     26  O   UNL     1      -0.752  11.256  18.291  0.00  0.00    +0.000 OA
ATOM     27  O   UNL     1       0.538  12.165  20.273  0.00  0.00    +0.000 OA
BRANCH  25  28
ATOM     28  N   UNL     1       1.633  11.956  18.038  0.00  0.00    +0.000 NA
ATOM     29  H   UNL     1       1.295  12.798  17.573  0.00  0.00    +0.000 HD
ATOM     30  H   UNL     1       2.513  12.080  18.540  0.00  0.00    +0.000 HD
ENDBRANCH  25  28
ENDBRANCH  22  25
ENDBRANCH   8  19
TORSDOF 4
ENDMDL
