MODEL 1
REMARK VINA RESULT:      -7.1      0.000      0.000
REMARK  Name = 
REMARK  9 active torsions:
REMARK  status: ('A' for Active; 'I' for Inactive)
REMARK    1  A    between atoms: C_1  and  C_2
REMARK    2  A    between atoms: C_2  and  C_3
REMARK    3  A    between atoms: C_3  and  C_4
REMARK    4  A    between atoms: C_4  and  C_5
REMARK    5  A    between atoms: C_6  and  C_7
REMARK    6  A    between atoms: C_10  and  O_11
REMARK    7  A    between atoms: N_15  and  C_16
REMARK    8  A    between atoms: C_22  and  C_23
REMARK    9  A    between atoms: C_26  and  O_27
REMARK                            x       y       z     vdW  Elec       q    Type
REMARK                         _______ _______ _______ _____ _____    ______ ____
ROOT
ATOM      1  C   UNL     1       2.437   5.950  19.334  0.00  0.00    +0.000 A 
ATOM      2  C   UNL     1       2.472   7.285  18.814  0.00  0.00    +0.000 A 
ATOM      3  N   UNL     1       3.484   7.423  17.944  0.00  0.00    +0.000 NA
ATOM      4  N   UNL     1       3.984   6.179  17.745  0.00  0.00    +0.000 N 
ATOM      5  C   UNL     1       3.398   5.243  18.601  0.00  0.00    +0.000 A 
ENDROOT
BRANCH   2   6
ATOM      6  C   UNL     1       1.619   8.445  19.151  0.00  0.00    +0.000 A 
ATOM      7  C   UNL     1       1.272   8.717  20.485  0.00  0.00    +0.000 A 
ATOM      8  C   UNL     1       0.448   9.805  20.809  0.00  0.00    +0.000 A 
ATOM      9  C   UNL     1      -0.035  10.625  19.796  0.00  0.00    +0.000 A 
ATOM     10  C   UNL     1       0.316  10.393  18.476  0.00  0.00    +0.000 A 
ATOM     11  C   UNL     1       1.161   9.325  18.159  0.00  0.00    +0.000 A 
BRANCH   9  12
ATOM     12  O   UNL     1      -0.855  11.682  20.059  0.00  0.00    +0.000 OA
ATOM     13  H   UNL     1      -0.476  12.197  20.791  0.00  0.00    +0.000 HD
ENDBRANCH   9  12
ENDBRANCH   2   6
BRANCH   4  14
ATOM     14  C   UNL     1       5.050   5.982  16.811  0.00  0.00    +0.000 A 
ATOM     15  C   UNL     1       6.365   6.265  17.183  0.00  0.00    +0.000 A 
ATOM     16  C   UNL     1       7.430   5.845  16.370  0.00  0.00    +0.000 A 
ATOM     17  C   UNL     1       7.176   5.170  15.176  0.00  0.00    +0.000 A 
ATOM     18  C   UNL     1       5.865   4.962  14.756  0.00  0.00    +0.000 A 
ATOM     19  C   UNL     1       4.805   5.398  15.554  0.00  0.00    +0.000 A 
ENDBRANCH   4  14
BRANCH   5  20
ATOM     20  C   UNL     1       3.831   3.840  18.764  0.00  0.00    +0.000 A 
ATOM     21  C   UNL     1       3.387   2.829  17.895  0.00  0.00    +0.000 A 
ATOM     22  C   UNL     1       3.691   1.487  18.138  0.00  0.00    +0.000 A 
ATOM     23  C   UNL     1       4.530   1.162  19.195  0.00  0.00    +0.000 A 
ATOM     24  C   UNL     1       5.071   2.154  20.004  0.00  0.00    +0.000 A 
ATOM     25  C   UNL     1       4.700   3.486  19.805  0.00  0.00    +0.000 A 
BRANCH  23  26
ATOM     26  O   UNL     1       4.840  -0.133  19.482  0.00  0.00    +0.000 OA
ATOM     27  H   UNL     1       4.068  -0.550  19.895  0.00  0.00    +0.000 HD
ENDBRANCH  23  26
ENDBRANCH   5  20
BRANCH   1  28
ATOM     28  C   UNL     1       1.610   5.415  20.469  0.00  0.00    +0.000 C 
BRANCH  28  29
ATOM     29  C   UNL     1       0.725   4.238  20.055  0.00  0.00    +0.000 C 
BRANCH  29  31
ATOM     30  C   UNL     1       2.033   3.269  21.947  0.00  0.00    +0.000 C 
ATOM     31  C   UNL     1       1.068   2.958  20.811  0.00  0.00    +0.000 C 
ENDBRANCH  29  31
ENDBRANCH  28  29
ENDBRANCH   1  28
TORSDOF 8
ENDMDL
MODEL 2
REMARK VINA RESULT:      -6.9      0.677      1.137
REMARK  Name = 
REMARK  9 active torsions:
REMARK  status: ('A' for Active; 'I' for Inactive)
REMARK    1  A    between atoms: C_1  and  C_2
REMARK    2  A    between atoms: C_2  and  C_3
REMARK    3  A    between atoms: C_3  and  C_4
REMARK    4  A    between atoms: C_4  and  C_5
REMARK    5  A    between atoms: C_6  and  C_7
REMARK    6  A    between atoms: C_10  and  O_11
REMARK    7  A    between atoms: N_15  and  C_16
REMARK    8  A    between atoms: C_22  and  C_23
REMARK    9  A    between atoms: C_26  and  O_27
REMARK                            x       y       z     vdW  Elec       q    Type
REMARK                         _______ _______ _______ _____ _____    ______ ____
ROOT
ATOM      1  C   UNL     1       2.091   6.450  19.178  0.00  0.00    +0.000 A 
ATOM      2  C   UNL     1       2.287   7.809  18.767  0.00  0.00    +0.000 A 
ATOM      3  N   UNL     1       3.402   7.918  18.028  0.00  0.00    +0.000 NA
ATOM      4  N   UNL     1       3.826   6.653  17.793  0.00  0.00    +0.000 N 
ATOM      5  C   UNL     1       3.074   5.714  18.505  0.00  0.00    +0.000 A 
ENDROOT
BRANCH   2   6
ATOM      6  C   UNL     1       1.492   9.012  19.094  0.00  0.00    +0.000 A 
ATOM      7  C   UNL     1       1.112   9.282  20.419  0.00  0.00    +0.000 A 
ATOM      8  C   UNL     1       0.342  10.412  20.733  0.00  0.00    +0.000 A 
ATOM      9  C   UNL     1      -0.054  11.275  19.717  0.00  0.00    +0.000 A 
ATOM     10  C   UNL     1       0.331  11.044  18.407  0.00  0.00    +0.000 A 
ATOM     11  C   UNL     1       1.124   9.933  18.102  0.00  0.00    +0.000 A 
BRANCH   9  12
ATOM     12  O   UNL     1      -0.820  12.374  19.970  0.00  0.00    +0.000 OA
ATOM     13  H   UNL     1      -0.264  13.167  19.892  0.00  0.00    +0.000 HD
ENDBRANCH   9  12
ENDBRANCH   2   6
BRANCH   4  14
ATOM     14  C   UNL     1       4.976   6.429  16.971  0.00  0.00    +0.000 A 
ATOM     15  C   UNL     1       6.249   6.735  17.454  0.00  0.00    +0.000 A 
ATOM     16  C   UNL     1       7.387   6.292  16.761  0.00  0.00    +0.000 A 
ATOM     17  C   UNL     1       7.249   5.572  15.574  0.00  0.00    +0.000 A 
ATOM     18  C   UNL     1       5.985   5.340  15.042  0.00  0.00    +0.000 A 
ATOM     19  C   UNL     1       4.853   5.797  15.720  0.00  0.00    +0.000 A 
ENDBRANCH   4  14
BRANCH   5  20
ATOM     20  C   UNL     1       3.377   4.272  18.608  0.00  0.00    +0.000 A 
ATOM     21  C   UNL     1       4.368   3.791  19.480  0.00  0.00    +0.000 A 
ATOM     22  C   UNL     1       4.741   2.444  19.470  0.00  0.00    +0.000 A 
ATOM     23  C   UNL     1       4.049   1.553  18.661  0.00  0.00    +0.000 A 
ATOM     24  C   UNL     1       2.991   1.987  17.870  0.00  0.00    +0.000 A 
ATOM     25  C   UNL     1       2.675   3.346  17.823  0.00  0.00    +0.000 A 
BRANCH  23  26
ATOM     26  O   UNL     1       4.388   0.236  18.604  0.00  0.00    +0.000 OA
ATOM     27  H   UNL     1       4.479  -0.019  17.672  0.00  0.00    +0.000 HD
ENDBRANCH  23  26
ENDBRANCH   5  20
BRANCH   1  28
ATOM     28  C   UNL     1       1.098   5.913  20.170  0.00  0.00    +0.000 C 
BRANCH  28  29
ATOM     29  C   UNL     1       1.706   4.871  21.113  0.00  0.00    +0.000 C 
BRANCH  29  31
ATOM     30  C   UNL     1       1.810   2.467  21.777  0.00  0.00    +0.000 C 
ATOM     31  C   UNL     1       1.035   3.507  20.982  0.00  0.00    +0.000 C 
ENDBRANCH  29  31
ENDBRANCH  28  29
ENDBRANCH   1  28
TORSDOF 8
ENDMDL
MODEL 3
REMARK VINA RESULT:      -6.7      0.626      1.408
REMARK  Name = 
REMARK  9 active torsions:
REMARK  status: ('A' for Active; 'I' for Inactive)
REMARK    1  A    between atoms: C_1  and  C_2
REMARK    2  A    between atoms: C_2  and  C_3
REMARK    3  A    between atoms: C_3  and  C_4
REMARK    4  A    between atoms: C_4  and  C_5
REMARK    5  A    between atoms: C_6  and  C_7
REMARK    6  A    between atoms: C_10  and  O_11
REMARK    7  A    between atoms: N_15  and  C_16
REMARK    8  A    between atoms: C_22  and  C_23
REMARK    9  A    between atoms: C_26  and  O_27
REMARK                            x       y       z     vdW  Elec       q    Type
REMARK                         _______ _______ _______ _____ _____    ______ ____
ROOT
ATOM      1  C   UNL     1       2.702   5.695  19.362  0.00  0.00    +0.000 A 
ATOM      2  C   UNL     1       2.757   6.934  18.643  0.00  0.00    +0.000 A 
ATOM      3  N   UNL     1       3.709   6.886  17.699  0.00  0.00    +0.000 NA
ATOM      4  N   UNL     1       4.139   5.602  17.660  0.00  0.00    +0.000 N 
ATOM      5  C   UNL     1       3.576   4.835  18.684  0.00  0.00    +0.000 A 
ENDROOT
BRANCH   2   6
ATOM      6  C   UNL     1       1.982   8.175  18.855  0.00  0.00    +0.000 A 
ATOM      7  C   UNL     1       1.514   8.520  20.134  0.00  0.00    +0.000 A 
ATOM      8  C   UNL     1       0.763   9.686  20.338  0.00  0.00    +0.000 A 
ATOM      9  C   UNL     1       0.474  10.513  19.258  0.00  0.00    +0.000 A 
ATOM     10  C   UNL     1       0.948  10.209  17.992  0.00  0.00    +0.000 A 
ATOM     11  C   UNL     1       1.722   9.060  17.798  0.00  0.00    +0.000 A 
BRANCH   9  12
ATOM     12  O   UNL     1      -0.270  11.647  19.402  0.00  0.00    +0.000 OA
ATOM     13  H   UNL     1      -0.411  11.809  20.349  0.00  0.00    +0.000 HD
ENDBRANCH   9  12
ENDBRANCH   2   6
BRANCH   4  14
ATOM     14  C   UNL     1       5.125   5.211  16.699  0.00  0.00    +0.000 A 
ATOM     15  C   UNL     1       4.733   4.598  15.508  0.00  0.00    +0.000 A 
ATOM     16  C   UNL     1       5.659   4.440  14.463  0.00  0.00    +0.000 A 
ATOM     17  C   UNL     1       6.977   4.867  14.624  0.00  0.00    +0.000 A 
ATOM     18  C   UNL     1       7.395   5.399  15.840  0.00  0.00    +0.000 A 
ATOM     19  C   UNL     1       6.481   5.538  16.886  0.00  0.00    +0.000 A 
ENDBRANCH   4  14
BRANCH   5  20
ATOM     20  C   UNL     1       3.958   3.451  19.029  0.00  0.00    +0.000 A 
ATOM     21  C   UNL     1       4.648   3.154  20.217  0.00  0.00    +0.000 A 
ATOM     22  C   UNL     1       5.124   1.865  20.468  0.00  0.00    +0.000 A 
ATOM     23  C   UNL     1       4.819   0.843  19.579  0.00  0.00    +0.000 A 
ATOM     24  C   UNL     1       4.045   1.090  18.451  0.00  0.00    +0.000 A 
ATOM     25  C   UNL     1       3.639   2.395  18.164  0.00  0.00    +0.000 A 
BRANCH  23  26
ATOM     26  O   UNL     1       5.276  -0.425  19.772  0.00  0.00    +0.000 OA
ATOM     27  H   UNL     1       5.115  -0.674  20.696  0.00  0.00    +0.000 HD
ENDBRANCH  23  26
ENDBRANCH   5  20
BRANCH   1  28
ATOM     28  C   UNL     1       1.937   5.380  20.616  0.00  0.00    +0.000 C 
BRANCH  28  29
ATOM     29  C   UNL     1       0.659   4.580  20.346  0.00  0.00    +0.000 C 
BRANCH  29  31
ATOM     30  C   UNL     1       1.491   2.689  21.746  0.00  0.00    +0.000 C 
ATOM     31  C   UNL     1       0.895   3.074  20.400  0.00  0.00    +0.000 C 
ENDBRANCH  29  31
ENDBRANCH  28  29
ENDBRANCH   1  28
TORSDOF 8
ENDMDL
MODEL 4
REMARK VINA RESULT:      -6.6      1.365      2.235
REMARK  Name = 
REMARK  9 active torsions:
REMARK  status: ('A' for Active; 'I' for Inactive)
REMARK    1  A    between atoms: C_1  and  C_2
REMARK    2  A    between atoms: C_2  and  C_3
REMARK    3  A    between atoms: C_3  and  C_4
REMARK    4  A    between atoms: C_4  and  C_5
REMARK    5  A    between atoms: C_6  and  C_7
REMARK    6  A    between atoms: C_10  and  O_11
REMARK    7  A    between atoms: N_15  and  C_16
REMARK    8  A    between atoms: C_22  and  C_23
REMARK    9  A    between atoms: C_26  and  O_27
REMARK                            x       y       z     vdW  Elec       q    Type
REMARK                         _______ _______ _______ _____ _____    ______ ____
ROOT
ATOM      1  C   UNL     1       2.182   6.848  18.643  0.00  0.00    +0.000 A 
ATOM      2  C   UNL     1       2.467   8.125  18.060  0.00  0.00    +0.000 A 
ATOM      3  N   UNL     1       3.598   8.070  17.340  0.00  0.00    +0.000 NA
ATOM      4  N   UNL     1       3.947   6.762  17.284  0.00  0.00    +0.000 N 
ATOM      5  C   UNL     1       3.129   5.972  18.097  0.00  0.00    +0.000 A 
ENDROOT
BRANCH   2   6
ATOM      6  C   UNL     1       1.741   9.405  18.206  0.00  0.00    +0.000 A 
ATOM      7  C   UNL     1       2.441  10.610  18.394  0.00  0.00    +0.000 A 
ATOM      8  C   UNL     1       1.758  11.824  18.552  0.00  0.00    +0.000 A 
ATOM      9  C   UNL     1       0.368  11.837  18.524  0.00  0.00    +0.000 A 
ATOM     10  C   UNL     1      -0.344  10.667  18.313  0.00  0.00    +0.000 A 
ATOM     11  C   UNL     1       0.342   9.462  18.126  0.00  0.00    +0.000 A 
BRANCH   9  12
ATOM     12  O   UNL     1      -0.342  12.989  18.693  0.00  0.00    +0.000 OA
ATOM     13  H   UNL     1      -0.336  13.224  19.636  0.00  0.00    +0.000 HD
ENDBRANCH   9  12
ENDBRANCH   2   6
BRANCH   4  14
ATOM     14  C   UNL     1       5.094   6.364  16.525  0.00  0.00    +0.000 A 
ATOM     15  C   UNL     1       6.372   6.511  17.065  0.00  0.00    +0.000 A 
ATOM     16  C   UNL     1       7.472   5.901  16.440  0.00  0.00    +0.000 A 
ATOM     17  C   UNL     1       7.294   5.173  15.264  0.00  0.00    +0.000 A 
ATOM     18  C   UNL     1       6.036   5.095  14.674  0.00  0.00    +0.000 A 
ATOM     19  C   UNL     1       4.945   5.718  15.284  0.00  0.00    +0.000 A 
ENDBRANCH   4  14
BRANCH   5  20
ATOM     20  C   UNL     1       3.342   4.542  18.397  0.00  0.00    +0.000 A 
ATOM     21  C   UNL     1       4.178   4.129  19.447  0.00  0.00    +0.000 A 
ATOM     22  C   UNL     1       4.481   2.778  19.635  0.00  0.00    +0.000 A 
ATOM     23  C   UNL     1       3.862   1.825  18.837  0.00  0.00    +0.000 A 
ATOM     24  C   UNL     1       2.946   2.202  17.862  0.00  0.00    +0.000 A 
ATOM     25  C   UNL     1       2.708   3.558  17.624  0.00  0.00    +0.000 A 
BRANCH  23  26
ATOM     26  O   UNL     1       4.139   0.498  18.972  0.00  0.00    +0.000 OA
ATOM     27  H   UNL     1       3.449   0.094  19.522  0.00  0.00    +0.000 HD
ENDBRANCH  23  26
ENDBRANCH   5  20
BRANCH   1  28
ATOM     28  C   UNL     1       1.144   6.506  19.674  0.00  0.00    +0.000 C 
BRANCH  28  29
ATOM     29  C   UNL     1       1.439   7.128  21.042  0.00  0.00    +0.000 C 
BRANCH  29  31
ATOM     30  C   UNL     1       1.088   9.451  21.885  0.00  0.00    +0.000 C 
ATOM     31  C   UNL     1       0.398   8.169  21.442  0.00  0.00    +0.000 C 
ENDBRANCH  29  31
ENDBRANCH  28  29
ENDBRANCH   1  28
TORSDOF 8
ENDMDL
MODEL 5
REMARK VINA RESULT:      -6.5      1.983      3.508
REMARK  Name = 
REMARK  9 active torsions:
REMARK  status: ('A' for Active; 'I' for Inactive)
REMARK    1  A    between atoms: C_1  and  C_2
REMARK    2  A    between atoms: C_2  and  C_3
REMARK    3  A    between atoms: C_3  and  C_4
REMARK    4  A    between atoms: C_4  and  C_5
REMARK    5  A    between atoms: C_6  and  C_7
REMARK    6  A    between atoms: C_10  and  O_11
REMARK    7  A    between atoms: N_15  and  C_16
REMARK    8  A    between atoms: C_22  and  C_23
REMARK    9  A    between atoms: C_26  and  O_27
REMARK                            x       y       z     vdW  Elec       q    Type
REMARK                         _______ _______ _______ _____ _____    ______ ____
ROOT
ATOM      1  C   UNL     1       1.109   8.009  19.845  0.00  0.00    +0.000 A 
ATOM      2  C   UNL     1       1.498   9.009  18.895  0.00  0.00    +0.000 A 
ATOM      3  N   UNL     1       2.467   8.542  18.093  0.00  0.00    +0.000 NA
ATOM      4  N   UNL     1       2.582   7.220  18.369  0.00  0.00    +0.000 N 
ATOM      5  C   UNL     1       1.793   6.848  19.461  0.00  0.00    +0.000 A 
ENDROOT
BRANCH   2   6
ATOM      6  C   UNL     1       1.028  10.404  18.757  0.00  0.00    +0.000 A 
ATOM      7  C   UNL     1       1.944  11.470  18.719  0.00  0.00    +0.000 A 
ATOM      8  C   UNL     1       1.503  12.796  18.607  0.00  0.00    +0.000 A 
ATOM      9  C   UNL     1       0.140  13.061  18.535  0.00  0.00    +0.000 A 
ATOM     10  C   UNL     1      -0.781  12.026  18.542  0.00  0.00    +0.000 A 
ATOM     11  C   UNL     1      -0.336  10.703  18.625  0.00  0.00    +0.000 A 
BRANCH   9  12
ATOM     12  O   UNL     1      -0.338  14.335  18.445  0.00  0.00    +0.000 OA
ATOM     13  H   UNL     1      -0.322  14.610  17.513  0.00  0.00    +0.000 HD
ENDBRANCH   9  12
ENDBRANCH   2   6
BRANCH   4  14
ATOM     14  C   UNL     1       3.503   6.416  17.625  0.00  0.00    +0.000 A 
ATOM     15  C   UNL     1       4.688   6.975  17.146  0.00  0.00    +0.000 A 
ATOM     16  C   UNL     1       5.701   6.145  16.639  0.00  0.00    +0.000 A 
ATOM     17  C   UNL     1       5.514   4.764  16.585  0.00  0.00    +0.000 A 
ATOM     18  C   UNL     1       4.301   4.208  16.980  0.00  0.00    +0.000 A 
ATOM     19  C   UNL     1       3.286   5.035  17.466  0.00  0.00    +0.000 A 
ENDBRANCH   4  14
BRANCH   5  20
ATOM     20  C   UNL     1       1.815   5.530  20.127  0.00  0.00    +0.000 A 
ATOM     21  C   UNL     1       0.947   4.496  19.736  0.00  0.00    +0.000 A 
ATOM     22  C   UNL     1       0.880   3.303  20.459  0.00  0.00    +0.000 A 
ATOM     23  C   UNL     1       1.759   3.098  21.515  0.00  0.00    +0.000 A 
ATOM     24  C   UNL     1       2.701   4.062  21.852  0.00  0.00    +0.000 A 
ATOM     25  C   UNL     1       2.711   5.285  21.178  0.00  0.00    +0.000 A 
BRANCH  23  26
ATOM     26  O   UNL     1       1.719   1.958  22.260  0.00  0.00    +0.000 OA
ATOM     27  H   UNL     1       2.181   1.256  21.774  0.00  0.00    +0.000 HD
ENDBRANCH  23  26
ENDBRANCH   5  20
BRANCH   1  28
ATOM     28  C   UNL     1       0.217   8.162  21.044  0.00  0.00    +0.000 C 
BRANCH  28  29
ATOM     29  C   UNL     1       0.895   8.907  22.197  0.00  0.00    +0.000 C 
BRANCH  29  31
ATOM     30  C   UNL     1      -0.664  10.851  22.336  0.00  0.00    +0.000 C 
ATOM     31  C   UNL     1      -0.106   9.646  23.079  0.00  0.00    +0.000 C 
ENDBRANCH  29  31
ENDBRANCH  28  29
ENDBRANCH   1  28
TORSDOF 8
ENDMDL
MODEL 6
REMARK VINA RESULT:      -6.4      2.083      7.055
REMARK  Name = 
REMARK  9 active torsions:
REMARK  status: ('A' for Active; 'I' for Inactive)
REMARK    1  A    between atoms: C_1  and  C_2
REMARK    2  A    between atoms: C_2  and  C_3
REMARK    3  A    between atoms: C_3  and  C_4
REMARK    4  A    between atoms: C_4  and  C_5
REMARK    5  A    between atoms: C_6  and  C_7
REMARK    6  A    between atoms: C_10  and  O_11
REMARK    7  A    between atoms: N_15  and  C_16
REMARK    8  A    between atoms: C_22  and  C_23
REMARK    9  A    between atoms: C_26  and  O_27
REMARK                            x       y       z     vdW  Elec       q    Type
REMARK                         _______ _______ _______ _____ _____    ______ ____
ROOT
ATOM      1  C   UNL     1       2.540   6.779  19.467  0.00  0.00    +0.000 A 
ATOM      2  C   UNL     1       3.067   6.883  18.138  0.00  0.00    +0.000 A 
ATOM      3  N   UNL     1       2.680   8.036  17.570  0.00  0.00    +0.000 NA
ATOM      4  N   UNL     1       2.083   8.758  18.549  0.00  0.00    +0.000 N 
ATOM      5  C   UNL     1       1.941   8.018  19.726  0.00  0.00    +0.000 A 
ENDROOT
BRANCH   2   6
ATOM      6  C   UNL     1       3.873   5.910  17.370  0.00  0.00    +0.000 A 
ATOM      7  C   UNL     1       3.597   4.534  17.443  0.00  0.00    +0.000 A 
ATOM      8  C   UNL     1       4.369   3.605  16.731  0.00  0.00    +0.000 A 
ATOM      9  C   UNL     1       5.425   4.051  15.944  0.00  0.00    +0.000 A 
ATOM     10  C   UNL     1       5.700   5.405  15.835  0.00  0.00    +0.000 A 
ATOM     11  C   UNL     1       4.908   6.331  16.523  0.00  0.00    +0.000 A 
BRANCH   9  12
ATOM     12  O   UNL     1       6.218   3.185  15.250  0.00  0.00    +0.000 OA
ATOM     13  H   UNL     1       5.961   2.276  15.479  0.00  0.00    +0.000 HD
ENDBRANCH   9  12
ENDBRANCH   2   6
BRANCH   4  14
ATOM     14  C   UNL     1       1.609  10.080  18.269  0.00  0.00    +0.000 A 
ATOM     15  C   UNL     1       0.239  10.348  18.287  0.00  0.00    +0.000 A 
ATOM     16  C   UNL     1      -0.216  11.676  18.262  0.00  0.00    +0.000 A 
ATOM     17  C   UNL     1       0.697  12.728  18.188  0.00  0.00    +0.000 A 
ATOM     18  C   UNL     1       2.060  12.464  18.081  0.00  0.00    +0.000 A 
ATOM     19  C   UNL     1       2.512  11.143  18.086  0.00  0.00    +0.000 A 
ENDBRANCH   4  14
BRANCH   5  20
ATOM     20  C   UNL     1       1.185   8.444  20.921  0.00  0.00    +0.000 A 
ATOM     21  C   UNL     1      -0.194   8.202  21.043  0.00  0.00    +0.000 A 
ATOM     22  C   UNL     1      -0.924   8.728  22.111  0.00  0.00    +0.000 A 
ATOM     23  C   UNL     1      -0.257   9.410  23.120  0.00  0.00    +0.000 A 
ATOM     24  C   UNL     1       1.124   9.568  23.077  0.00  0.00    +0.000 A 
ATOM     25  C   UNL     1       1.838   9.110  21.968  0.00  0.00    +0.000 A 
BRANCH  23  26
ATOM     26  O   UNL     1      -0.928   9.956  24.172  0.00  0.00    +0.000 OA
ATOM     27  H   UNL     1      -0.616   9.534  24.988  0.00  0.00    +0.000 HD
ENDBRANCH  23  26
ENDBRANCH   5  20
BRANCH   1  28
ATOM     28  C   UNL     1       2.551   5.586  20.381  0.00  0.00    +0.000 C 
BRANCH  28  29
ATOM     29  C   UNL     1       1.210   4.849  20.410  0.00  0.00    +0.000 C 
BRANCH  29  31
ATOM     30  C   UNL     1       1.703   2.714  21.607  0.00  0.00    +0.000 C 
ATOM     31  C   UNL     1       1.375   3.339  20.259  0.00  0.00    +0.000 C 
ENDBRANCH  29  31
ENDBRANCH  28  29
ENDBRANCH   1  28
TORSDOF 8
ENDMDL
MODEL 7
REMARK VINA RESULT:      -6.4      2.156      4.731
REMARK  Name = 
REMARK  9 active torsions:
REMARK  status: ('A' for Active; 'I' for Inactive)
REMARK    1  A    between atoms: C_1  and  C_2
REMARK    2  A    between atoms: C_2  and  C_3
REMARK    3  A    between atoms: C_3  and  C_4
REMARK    4  A    between atoms: C_4  and  C_5
REMARK    5  A    between atoms: C_6  and  C_7
REMARK    6  A    between atoms: C_10  and  O_11
REMARK    7  A    between atoms: N_15  and  C_16
REMARK    8  A    between atoms: C_22  and  C_23
REMARK    9  A    between atoms: C_26  and  O_27
REMARK                            x       y       z     vdW  Elec       q    Type
REMARK                         _______ _______ _______ _____ _____    ______ ____
ROOT
ATOM      1  C   UNL     1       2.681   7.352  18.930  0.00  0.00    +0.000 A 
ATOM      2  C   UNL     1       1.926   7.037  20.106  0.00  0.00    +0.000 A 
ATOM      3  N   UNL     1       1.903   5.711  20.308  0.00  0.00    +0.000 NA
ATOM      4  N   UNL     1       2.769   5.177  19.413  0.00  0.00    +0.000 N 
ATOM      5  C   UNL     1       3.249   6.139  18.520  0.00  0.00    +0.000 A 
ENDROOT
BRANCH   2   6
ATOM      6  C   UNL     1       1.182   7.939  21.012  0.00  0.00    +0.000 A 
ATOM      7  C   UNL     1      -0.217   7.854  21.118  0.00  0.00    +0.000 A 
ATOM      8  C   UNL     1      -0.930   8.719  21.961  0.00  0.00    +0.000 A 
ATOM      9  C   UNL     1      -0.244   9.675  22.701  0.00  0.00    +0.000 A 
ATOM     10  C   UNL     1       1.137   9.760  22.634  0.00  0.00    +0.000 A 
ATOM     11  C   UNL     1       1.847   8.876  21.814  0.00  0.00    +0.000 A 
BRANCH   9  12
ATOM     12  O   UNL     1      -0.895  10.552  23.518  0.00  0.00    +0.000 OA
ATOM     13  H   UNL     1      -0.285  11.271  23.753  0.00  0.00    +0.000 HD
ENDBRANCH   9  12
ENDBRANCH   2   6
BRANCH   4  14
ATOM     14  C   UNL     1       3.016   3.767  19.415  0.00  0.00    +0.000 A 
ATOM     15  C   UNL     1       2.124   2.902  18.780  0.00  0.00    +0.000 A 
ATOM     16  C   UNL     1       2.481   1.561  18.564  0.00  0.00    +0.000 A 
ATOM     17  C   UNL     1       3.713   1.084  19.008  0.00  0.00    +0.000 A 
ATOM     18  C   UNL     1       4.571   1.919  19.719  0.00  0.00    +0.000 A 
ATOM     19  C   UNL     1       4.208   3.247  19.952  0.00  0.00    +0.000 A 
ENDBRANCH   4  14
BRANCH   5  20
ATOM     20  C   UNL     1       4.071   5.865  17.324  0.00  0.00    +0.000 A 
ATOM     21  C   UNL     1       4.103   4.592  16.730  0.00  0.00    +0.000 A 
ATOM     22  C   UNL     1       4.986   4.308  15.686  0.00  0.00    +0.000 A 
ATOM     23  C   UNL     1       5.768   5.328  15.160  0.00  0.00    +0.000 A 
ATOM     24  C   UNL     1       5.675   6.622  15.659  0.00  0.00    +0.000 A 
ATOM     25  C   UNL     1       4.850   6.884  16.755  0.00  0.00    +0.000 A 
BRANCH  23  26
ATOM     26  O   UNL     1       6.656   5.095  14.154  0.00  0.00    +0.000 OA
ATOM     27  H   UNL     1       6.188   5.169  13.307  0.00  0.00    +0.000 HD
ENDBRANCH  23  26
ENDBRANCH   5  20
BRANCH   1  28
ATOM     28  C   UNL     1       2.797   8.674  18.225  0.00  0.00    +0.000 C 
BRANCH  28  29
ATOM     29  C   UNL     1       1.441   9.236  17.791  0.00  0.00    +0.000 C 
BRANCH  29  31
ATOM     30  C   UNL     1      -0.402  10.641  18.718  0.00  0.00    +0.000 C 
ATOM     31  C   UNL     1       1.101  10.543  18.499  0.00  0.00    +0.000 C 
ENDBRANCH  29  31
ENDBRANCH  28  29
ENDBRANCH   1  28
TORSDOF 8
ENDMDL
MODEL 8
REMARK VINA RESULT:      -6.4      0.576      1.383
REMARK  Name = 
REMARK  9 active torsions:
REMARK  status: ('A' for Active; 'I' for Inactive)
REMARK    1  A    between atoms: C_1  and  C_2
REMARK    2  A    between atoms: C_2  and  C_3
REMARK    3  A    between atoms: C_3  and  C_4
REMARK    4  A    between atoms: C_4  and  C_5
REMARK    5  A    between atoms: C_6  and  C_7
REMARK    6  A    between atoms: C_10  and  O_11
REMARK    7  A    between atoms: N_15  and  C_16
REMARK    8  A    between atoms: C_22  and  C_23
REMARK    9  A    between atoms: C_26  and  O_27
REMARK                            x       y       z     vdW  Elec       q    Type
REMARK                         _______ _______ _______ _____ _____    ______ ____
ROOT
ATOM      1  C   UNL     1       2.743   5.639  19.319  0.00  0.00    +0.000 A 
ATOM      2  C   UNL     1       2.748   6.899  18.635  0.00  0.00    +0.000 A 
ATOM      3  N   UNL     1       3.691   6.910  17.681  0.00  0.00    +0.000 NA
ATOM      4  N   UNL     1       4.164   5.642  17.601  0.00  0.00    +0.000 N 
ATOM      5  C   UNL     1       3.638   4.829  18.609  0.00  0.00    +0.000 A 
ENDROOT
BRANCH   2   6
ATOM      6  C   UNL     1       1.934   8.107  18.889  0.00  0.00    +0.000 A 
ATOM      7  C   UNL     1       1.582   8.969  17.836  0.00  0.00    +0.000 A 
ATOM      8  C   UNL     1       0.826  10.126  18.074  0.00  0.00    +0.000 A 
ATOM      9  C   UNL     1       0.420  10.426  19.369  0.00  0.00    +0.000 A 
ATOM     10  C   UNL     1       0.731   9.577  20.419  0.00  0.00    +0.000 A 
ATOM     11  C   UNL     1       1.461   8.409  20.174  0.00  0.00    +0.000 A 
BRANCH   9  12
ATOM     12  O   UNL     1      -0.299  11.549  19.653  0.00  0.00    +0.000 OA
ATOM     13  H   UNL     1      -1.233  11.304  19.757  0.00  0.00    +0.000 HD
ENDBRANCH   9  12
ENDBRANCH   2   6
BRANCH   4  14
ATOM     14  C   UNL     1       5.152   5.312  16.620  0.00  0.00    +0.000 A 
ATOM     15  C   UNL     1       4.793   4.580  15.488  0.00  0.00    +0.000 A 
ATOM     16  C   UNL     1       5.689   4.467  14.412  0.00  0.00    +0.000 A 
ATOM     17  C   UNL     1       6.949   5.060  14.484  0.00  0.00    +0.000 A 
ATOM     18  C   UNL     1       7.346   5.718  15.645  0.00  0.00    +0.000 A 
ATOM     19  C   UNL     1       6.463   5.813  16.723  0.00  0.00    +0.000 A 
ENDBRANCH   4  14
BRANCH   5  20
ATOM     20  C   UNL     1       4.069   3.449  18.911  0.00  0.00    +0.000 A 
ATOM     21  C   UNL     1       3.659   2.362  18.121  0.00  0.00    +0.000 A 
ATOM     22  C   UNL     1       3.959   1.049  18.494  0.00  0.00    +0.000 A 
ATOM     23  C   UNL     1       4.762   0.825  19.604  0.00  0.00    +0.000 A 
ATOM     24  C   UNL     1       5.271   1.889  20.339  0.00  0.00    +0.000 A 
ATOM     25  C   UNL     1       4.903   3.196  20.010  0.00  0.00    +0.000 A 
BRANCH  23  26
ATOM     26  O   UNL     1       5.066  -0.437  20.016  0.00  0.00    +0.000 OA
ATOM     27  H   UNL     1       4.983  -1.037  19.258  0.00  0.00    +0.000 HD
ENDBRANCH  23  26
ENDBRANCH   5  20
BRANCH   1  28
ATOM     28  C   UNL     1       2.002   5.264  20.571  0.00  0.00    +0.000 C 
BRANCH  28  29
ATOM     29  C   UNL     1       0.815   4.335  20.302  0.00  0.00    +0.000 C 
BRANCH  29  31
ATOM     30  C   UNL     1       2.013   2.906  21.960  0.00  0.00    +0.000 C 
ATOM     31  C   UNL     1       1.082   2.904  20.756  0.00  0.00    +0.000 C 
ENDBRANCH  29  31
ENDBRANCH  28  29
ENDBRANCH   1  28
TORSDOF 8
ENDMDL
MODEL 9
REMARK VINA RESULT:      -6.3      1.969      3.726
REMARK  Name = 
REMARK  9 active torsions:
REMARK  status: ('A' for Active; 'I' for Inactive)
REMARK    1  A    between atoms: C_1  and  C_2
REMARK    2  A    between atoms: C_2  and  C_3
REMARK    3  A    between atoms: C_3  and  C_4
REMARK    4  A    between atoms: C_4  and  C_5
REMARK    5  A    between atoms: C_6  and  C_7
REMARK    6  A    between atoms: C_10  and  O_11
REMARK    7  A    between atoms: N_15  and  C_16
REMARK    8  A    between atoms: C_22  and  C_23
REMARK    9  A    between atoms: C_26  and  O_27
REMARK                            x       y       z     vdW  Elec       q    Type
REMARK                         _______ _______ _______ _____ _____    ______ ____
ROOT
ATOM      1  C   UNL     1       1.043   8.058  19.945  0.00  0.00    +0.000 A 
ATOM      2  C   UNL     1       1.446   9.037  18.979  0.00  0.00    +0.000 A 
ATOM      3  N   UNL     1       2.432   8.556  18.206  0.00  0.00    +0.000 NA
ATOM      4  N   UNL     1       2.547   7.242  18.516  0.00  0.00    +0.000 N 
ATOM      5  C   UNL     1       1.740   6.892  19.602  0.00  0.00    +0.000 A 
ENDROOT
BRANCH   2   6
ATOM      6  C   UNL     1       0.973  10.426  18.799  0.00  0.00    +0.000 A 
ATOM      7  C   UNL     1       1.887  11.488  18.692  0.00  0.00    +0.000 A 
ATOM      8  C   UNL     1       1.444  12.810  18.540  0.00  0.00    +0.000 A 
ATOM      9  C   UNL     1       0.079  13.074  18.496  0.00  0.00    +0.000 A 
ATOM     10  C   UNL     1      -0.841  12.042  18.571  0.00  0.00    +0.000 A 
ATOM     11  C   UNL     1      -0.394  10.722  18.693  0.00  0.00    +0.000 A 
BRANCH   9  12
ATOM     12  O   UNL     1      -0.400  14.344  18.369  0.00  0.00    +0.000 OA
ATOM     13  H   UNL     1      -1.308  14.371  18.717  0.00  0.00    +0.000 HD
ENDBRANCH   9  12
ENDBRANCH   2   6
BRANCH   4  14
ATOM     14  C   UNL     1       3.486   6.424  17.810  0.00  0.00    +0.000 A 
ATOM     15  C   UNL     1       3.256   5.054  17.677  0.00  0.00    +0.000 A 
ATOM     16  C   UNL     1       4.031   4.296  16.785  0.00  0.00    +0.000 A 
ATOM     17  C   UNL     1       5.050   4.903  16.051  0.00  0.00    +0.000 A 
ATOM     18  C   UNL     1       5.341   6.251  16.243  0.00  0.00    +0.000 A 
ATOM     19  C   UNL     1       4.584   7.001  17.146  0.00  0.00    +0.000 A 
ENDBRANCH   4  14
BRANCH   5  20
ATOM     20  C   UNL     1       1.754   5.590  20.299  0.00  0.00    +0.000 A 
ATOM     21  C   UNL     1       2.703   5.301  21.294  0.00  0.00    +0.000 A 
ATOM     22  C   UNL     1       2.796   4.021  21.848  0.00  0.00    +0.000 A 
ATOM     23  C   UNL     1       1.868   3.054  21.484  0.00  0.00    +0.000 A 
ATOM     24  C   UNL     1       0.852   3.349  20.582  0.00  0.00    +0.000 A 
ATOM     25  C   UNL     1       0.812   4.604  19.971  0.00  0.00    +0.000 A 
BRANCH  23  26
ATOM     26  O   UNL     1       1.929   1.789  21.984  0.00  0.00    +0.000 OA
ATOM     27  H   UNL     1       2.344   1.824  22.861  0.00  0.00    +0.000 HD
ENDBRANCH  23  26
ENDBRANCH   5  20
BRANCH   1  28
ATOM     28  C   UNL     1       0.128   8.235  21.123  0.00  0.00    +0.000 C 
BRANCH  28  29
ATOM     29  C   UNL     1       0.775   9.024  22.264  0.00  0.00    +0.000 C 
BRANCH  29  31
ATOM     30  C   UNL     1      -0.795  10.956  22.442  0.00  0.00    +0.000 C 
ATOM     31  C   UNL     1      -0.256   9.720  23.147  0.00  0.00    +0.000 C 
ENDBRANCH  29  31
ENDBRANCH  28  29
ENDBRANCH   1  28
TORSDOF 8
ENDMDL
