MODEL 1
REMARK VINA RESULT:      -8.6      0.000      0.000
REMARK  Name = 
REMARK  6 active torsions:
REMARK  status: ('A' for Active; 'I' for Inactive)
REMARK    1  A    between atoms: C_2  and  C_28
REMARK    2  A    between atoms: N_3  and  C_4
REMARK    3  A    between atoms: C_8  and  C_9
REMARK    4  A    between atoms: C_9  and  C_11
REMARK    5  A    between atoms: C_15  and  C_16
REMARK    6  A    between atoms: N_17  and  N_18
REMARK                            x       y       z     vdW  Elec       q    Type
REMARK                         _______ _______ _______ _____ _____    ______ ____
ROOT
ATOM      1  C   UNL     1       2.705   5.648  19.283  0.00  0.00    +0.000 C 
ATOM      2  O   UNL     1       2.031   4.715  19.717  0.00  0.00    +0.000 OA
ENDROOT
BRANCH   1   3
ATOM      3  C   UNL     1       2.178   7.027  19.416  0.00  0.00    +0.000 A 
ATOM      4  C   UNL     1       1.638   7.338  20.664  0.00  0.00    +0.000 A 
ATOM      5  C   UNL     1       1.088   8.590  20.900  0.00  0.00    +0.000 A 
ATOM      6  C   UNL     1       1.074   9.547  19.870  0.00  0.00    +0.000 A 
ATOM      7  C   UNL     1       0.574  10.877  19.736  0.00  0.00    +0.000 A 
ATOM      8  N   UNL     1       0.815  11.369  18.511  0.00  0.00    +0.000 NA
ATOM      9  N   UNL     1       1.423  10.346  17.866  0.00  0.00    +0.000 N 
ATOM     10  C   UNL     1       1.607   9.221  18.631  0.00  0.00    +0.000 A 
ATOM     11  C   UNL     1       2.162   7.960  18.358  0.00  0.00    +0.000 A 
ATOM     12  H   UNL     1       1.682  10.480  16.894  0.00  0.00    +0.000 HD
BRANCH   7  13
ATOM     13  C   UNL     1      -0.163  11.616  20.757  0.00  0.00    +0.000 C 
ATOM     14  N   UNL     1       0.384  12.725  21.123  0.00  0.00    +0.000 NA
BRANCH  14  15
ATOM     15  N   UNL     1      -0.120  13.467  22.120  0.00  0.00    +0.000 N 
ATOM     16  C   UNL     1      -1.030  13.219  23.107  0.00  0.00    +0.000 A 
ATOM     17  N   UNL     1      -1.145  14.270  23.891  0.00  0.00    +0.000 NA
ATOM     18  N   UNL     1      -0.297  15.243  23.414  0.00  0.00    +0.000 NA
ATOM     19  C   UNL     1       0.303  14.749  22.359  0.00  0.00    +0.000 A 
ENDBRANCH  14  15
ENDBRANCH   7  13
ENDBRANCH   1   3
BRANCH   1  24
ATOM     20  C   UNL     1       5.391   4.559  16.839  0.00  0.00    +0.000 A 
ATOM     21  C   UNL     1       6.523   4.761  17.631  0.00  0.00    +0.000 A 
ATOM     22  C   UNL     1       6.409   5.270  18.925  0.00  0.00    +0.000 A 
ATOM     23  C   UNL     1       5.156   5.557  19.443  0.00  0.00    +0.000 A 
ATOM     24  C   UNL     1       4.013   5.349  18.664  0.00  0.00    +0.000 A 
ATOM     25  C   UNL     1       4.133   4.901  17.343  0.00  0.00    +0.000 A 
BRANCH  20  28
ATOM     26  O   UNL     1       6.859   5.556  14.502  0.00  0.00    +0.000 OA
ATOM     27  C   UNL     1       6.142   4.564  14.471  0.00  0.00    +0.000 C 
ATOM     28  N   UNL     1       5.450   4.016  15.539  0.00  0.00    +0.000 N 
ATOM     29  H   UNL     1       5.092   3.076  15.421  0.00  0.00    +0.000 HD
BRANCH  27  30
ATOM     30  C   UNL     1       6.054   3.798  13.200  0.00  0.00    +0.000 A 
ATOM     31  C   UNL     1       4.783   3.540  12.671  0.00  0.00    +0.000 A 
ATOM     32  C   UNL     1       4.655   2.820  11.484  0.00  0.00    +0.000 A 
ATOM     33  C   UNL     1       5.794   2.351  10.829  0.00  0.00    +0.000 A 
ATOM     34  C   UNL     1       7.060   2.593  11.361  0.00  0.00    +0.000 A 
ATOM     35  C   UNL     1       7.196   3.314  12.549  0.00  0.00    +0.000 A 
ENDBRANCH  27  30
ENDBRANCH  20  28
ENDBRANCH   1  24
TORSDOF 6
ENDMDL
MODEL 2
REMARK VINA RESULT:      -8.5      0.561      1.025
REMARK  Name = 
REMARK  6 active torsions:
REMARK  status: ('A' for Active; 'I' for Inactive)
REMARK    1  A    between atoms: C_2  and  C_28
REMARK    2  A    between atoms: N_3  and  C_4
REMARK    3  A    between atoms: C_8  and  C_9
REMARK    4  A    between atoms: C_9  and  C_11
REMARK    5  A    between atoms: C_15  and  C_16
REMARK    6  A    between atoms: N_17  and  N_18
REMARK                            x       y       z     vdW  Elec       q    Type
REMARK                         _______ _______ _______ _____ _____    ______ ____
ROOT
ATOM      1  C   UNL     1       3.316   5.489  19.511  0.00  0.00    +0.000 C 
ATOM      2  O   UNL     1       2.862   4.561  20.179  0.00  0.00    +0.000 OA
ENDROOT
BRANCH   1   3
ATOM      3  C   UNL     1       2.606   6.789  19.528  0.00  0.00    +0.000 A 
ATOM      4  C   UNL     1       1.940   7.086  20.717  0.00  0.00    +0.000 A 
ATOM      5  C   UNL     1       1.216   8.264  20.843  0.00  0.00    +0.000 A 
ATOM      6  C   UNL     1       1.153   9.158  19.760  0.00  0.00    +0.000 A 
ATOM      7  C   UNL     1       0.495  10.401  19.516  0.00  0.00    +0.000 A 
ATOM      8  N   UNL     1       0.758  10.859  18.282  0.00  0.00    +0.000 NA
ATOM      9  N   UNL     1       1.539   9.897  17.740  0.00  0.00    +0.000 N 
ATOM     10  C   UNL     1       1.812   8.846  18.579  0.00  0.00    +0.000 A 
ATOM     11  C   UNL     1       2.545   7.658  18.418  0.00  0.00    +0.000 A 
ATOM     12  H   UNL     1       1.848  10.016  16.780  0.00  0.00    +0.000 HD
BRANCH   7  13
ATOM     13  C   UNL     1      -0.404  11.085  20.441  0.00  0.00    +0.000 C 
ATOM     14  N   UNL     1       0.127  12.066  21.086  0.00  0.00    +0.000 NA
BRANCH  14  15
ATOM     15  N   UNL     1      -0.541  12.728  22.042  0.00  0.00    +0.000 N 
ATOM     16  C   UNL     1      -1.535  12.375  22.909  0.00  0.00    +0.000 A 
ATOM     17  N   UNL     1      -1.817  13.381  23.708  0.00  0.00    +0.000 NA
ATOM     18  N   UNL     1      -0.997  14.431  23.365  0.00  0.00    +0.000 NA
ATOM     19  C   UNL     1      -0.245  14.026  22.371  0.00  0.00    +0.000 A 
ENDBRANCH  14  15
ENDBRANCH   7  13
ENDBRANCH   1   3
BRANCH   1  24
ATOM     20  C   UNL     1       5.746   4.524  16.766  0.00  0.00    +0.000 A 
ATOM     21  C   UNL     1       6.952   4.825  17.405  0.00  0.00    +0.000 A 
ATOM     22  C   UNL     1       6.963   5.360  18.693  0.00  0.00    +0.000 A 
ATOM     23  C   UNL     1       5.767   5.573  19.361  0.00  0.00    +0.000 A 
ATOM     24  C   UNL     1       4.554   5.265  18.737  0.00  0.00    +0.000 A 
ATOM     25  C   UNL     1       4.541   4.790  17.419  0.00  0.00    +0.000 A 
BRANCH  20  28
ATOM     26  O   UNL     1       6.985   5.465  14.278  0.00  0.00    +0.000 OA
ATOM     27  C   UNL     1       6.268   4.474  14.338  0.00  0.00    +0.000 C 
ATOM     28  N   UNL     1       5.682   3.951  15.479  0.00  0.00    +0.000 N 
ATOM     29  H   UNL     1       5.315   3.010  15.418  0.00  0.00    +0.000 HD
BRANCH  27  30
ATOM     30  C   UNL     1       6.061   3.679  13.098  0.00  0.00    +0.000 A 
ATOM     31  C   UNL     1       7.191   3.178  12.439  0.00  0.00    +0.000 A 
ATOM     32  C   UNL     1       7.043   2.434  11.270  0.00  0.00    +0.000 A 
ATOM     33  C   UNL     1       5.769   2.194  10.755  0.00  0.00    +0.000 A 
ATOM     34  C   UNL     1       4.643   2.705  11.400  0.00  0.00    +0.000 A 
ATOM     35  C   UNL     1       4.784   3.451  12.572  0.00  0.00    +0.000 A 
ENDBRANCH  27  30
ENDBRANCH  20  28
ENDBRANCH   1  24
TORSDOF 6
ENDMDL
MODEL 3
REMARK VINA RESULT:      -8.5      4.608     10.362
REMARK  Name = 
REMARK  6 active torsions:
REMARK  status: ('A' for Active; 'I' for Inactive)
REMARK    1  A    between atoms: C_2  and  C_28
REMARK    2  A    between atoms: N_3  and  C_4
REMARK    3  A    between atoms: C_8  and  C_9
REMARK    4  A    between atoms: C_9  and  C_11
REMARK    5  A    between atoms: C_15  and  C_16
REMARK    6  A    between atoms: N_17  and  N_18
REMARK                            x       y       z     vdW  Elec       q    Type
REMARK                         _______ _______ _______ _____ _____    ______ ____
ROOT
ATOM      1  C   UNL     1       0.397  11.051  19.115  0.00  0.00    +0.000 C 
ATOM      2  O   UNL     1      -0.693  11.134  18.551  0.00  0.00    +0.000 OA
ENDROOT
BRANCH   1   3
ATOM      3  C   UNL     1       1.115   9.755  19.084  0.00  0.00    +0.000 A 
ATOM      4  C   UNL     1       1.762   9.464  17.883  0.00  0.00    +0.000 A 
ATOM      5  C   UNL     1       2.445   8.266  17.724  0.00  0.00    +0.000 A 
ATOM      6  C   UNL     1       2.478   7.341  18.783  0.00  0.00    +0.000 A 
ATOM      7  C   UNL     1       3.026   6.036  18.965  0.00  0.00    +0.000 A 
ATOM      8  N   UNL     1       2.770   5.564  20.195  0.00  0.00    +0.000 NA
ATOM      9  N   UNL     1       2.033   6.544  20.768  0.00  0.00    +0.000 N 
ATOM     10  C   UNL     1       1.823   7.640  19.969  0.00  0.00    +0.000 A 
ATOM     11  C   UNL     1       1.115   8.839  20.157  0.00  0.00    +0.000 A 
ATOM     12  H   UNL     1       1.695   6.396  21.714  0.00  0.00    +0.000 HD
BRANCH   7  13
ATOM     13  C   UNL     1       3.727   5.257  17.947  0.00  0.00    +0.000 C 
ATOM     14  N   UNL     1       4.911   5.681  17.662  0.00  0.00    +0.000 NA
BRANCH  14  15
ATOM     15  N   UNL     1       5.640   5.132  16.680  0.00  0.00    +0.000 N 
ATOM     16  C   UNL     1       5.333   4.335  15.615  0.00  0.00    +0.000 A 
ATOM     17  N   UNL     1       6.409   4.109  14.893  0.00  0.00    +0.000 NA
ATOM     18  N   UNL     1       7.460   4.766  15.491  0.00  0.00    +0.000 NA
ATOM     19  C   UNL     1       6.986   5.368  16.554  0.00  0.00    +0.000 A 
ENDBRANCH  14  15
ENDBRANCH   7  13
ENDBRANCH   1   3
BRANCH   1  24
ATOM     20  C   UNL     1       2.653  13.929  20.115  0.00  0.00    +0.000 A 
ATOM     21  C   UNL     1       1.894  14.469  21.157  0.00  0.00    +0.000 A 
ATOM     22  C   UNL     1       0.659  13.919  21.501  0.00  0.00    +0.000 A 
ATOM     23  C   UNL     1       0.187  12.808  20.820  0.00  0.00    +0.000 A 
ATOM     24  C   UNL     1       0.942  12.250  19.783  0.00  0.00    +0.000 A 
ATOM     25  C   UNL     1       2.150  12.843  19.394  0.00  0.00    +0.000 A 
BRANCH  20  28
ATOM     26  O   UNL     1       3.365  15.639  17.839  0.00  0.00    +0.000 OA
ATOM     27  C   UNL     1       4.188  15.206  18.636  0.00  0.00    +0.000 C 
ATOM     28  N   UNL     1       3.921  14.427  19.750  0.00  0.00    +0.000 N 
ATOM     29  H   UNL     1       4.659  14.339  20.438  0.00  0.00    +0.000 HD
BRANCH  27  30
ATOM     30  C   UNL     1       5.608  15.611  18.472  0.00  0.00    +0.000 A 
ATOM     31  C   UNL     1       5.989  16.880  18.928  0.00  0.00    +0.000 A 
ATOM     32  C   UNL     1       7.310  17.303  18.787  0.00  0.00    +0.000 A 
ATOM     33  C   UNL     1       8.249  16.464  18.187  0.00  0.00    +0.000 A 
ATOM     34  C   UNL     1       7.870  15.206  17.718  0.00  0.00    +0.000 A 
ATOM     35  C   UNL     1       6.548  14.776  17.856  0.00  0.00    +0.000 A 
ENDBRANCH  27  30
ENDBRANCH  20  28
ENDBRANCH   1  24
TORSDOF 6
ENDMDL
MODEL 4
REMARK VINA RESULT:      -8.4      3.925     12.262
REMARK  Name = 
REMARK  6 active torsions:
REMARK  status: ('A' for Active; 'I' for Inactive)
REMARK    1  A    between atoms: C_2  and  C_28
REMARK    2  A    between atoms: N_3  and  C_4
REMARK    3  A    between atoms: C_8  and  C_9
REMARK    4  A    between atoms: C_9  and  C_11
REMARK    5  A    between atoms: C_15  and  C_16
REMARK    6  A    between atoms: N_17  and  N_18
REMARK                            x       y       z     vdW  Elec       q    Type
REMARK                         _______ _______ _______ _____ _____    ______ ____
ROOT
ATOM      1  C   UNL     1       0.457  11.142  18.923  0.00  0.00    +0.000 C 
ATOM      2  O   UNL     1       1.123  12.169  19.047  0.00  0.00    +0.000 OA
ENDROOT
BRANCH   1   3
ATOM      3  C   UNL     1       1.151   9.834  18.979  0.00  0.00    +0.000 A 
ATOM      4  C   UNL     1       1.886   9.503  17.841  0.00  0.00    +0.000 A 
ATOM      5  C   UNL     1       2.557   8.290  17.765  0.00  0.00    +0.000 A 
ATOM      6  C   UNL     1       2.488   7.391  18.844  0.00  0.00    +0.000 A 
ATOM      7  C   UNL     1       2.996   6.082  19.099  0.00  0.00    +0.000 A 
ATOM      8  N   UNL     1       2.633   5.645  20.315  0.00  0.00    +0.000 NA
ATOM      9  N   UNL     1       1.872   6.650  20.805  0.00  0.00    +0.000 N 
ATOM     10  C   UNL     1       1.746   7.729  19.967  0.00  0.00    +0.000 A 
ATOM     11  C   UNL     1       1.049   8.945  20.070  0.00  0.00    +0.000 A 
ATOM     12  H   UNL     1       1.457   6.532  21.724  0.00  0.00    +0.000 HD
BRANCH   7  13
ATOM     13  C   UNL     1       3.760   5.267  18.159  0.00  0.00    +0.000 C 
ATOM     14  N   UNL     1       4.978   5.650  17.976  0.00  0.00    +0.000 NA
BRANCH  14  15
ATOM     15  N   UNL     1       5.775   5.065  17.071  0.00  0.00    +0.000 N 
ATOM     16  C   UNL     1       5.544   4.453  15.872  0.00  0.00    +0.000 A 
ATOM     17  N   UNL     1       6.683   4.087  15.324  0.00  0.00    +0.000 NA
ATOM     18  N   UNL     1       7.697   4.459  16.176  0.00  0.00    +0.000 NA
ATOM     19  C   UNL     1       7.140   5.038  17.211  0.00  0.00    +0.000 A 
ENDBRANCH  14  15
ENDBRANCH   7  13
ENDBRANCH   1   3
BRANCH   1  24
ATOM     20  C   UNL     1      -3.196  12.016  19.433  0.00  0.00    +0.000 A 
ATOM     21  C   UNL     1      -3.748  11.369  18.324  0.00  0.00    +0.000 A 
ATOM     22  C   UNL     1      -2.936  10.689  17.416  0.00  0.00    +0.000 A 
ATOM     23  C   UNL     1      -1.568  10.630  17.628  0.00  0.00    +0.000 A 
ATOM     24  C   UNL     1      -1.004  11.264  18.739  0.00  0.00    +0.000 A 
ATOM     25  C   UNL     1      -1.811  12.003  19.613  0.00  0.00    +0.000 A 
BRANCH  20  28
ATOM     26  O   UNL     1      -2.827  14.711  20.535  0.00  0.00    +0.000 OA
ATOM     27  C   UNL     1      -3.720  13.955  20.896  0.00  0.00    +0.000 C 
ATOM     28  N   UNL     1      -3.977  12.688  20.397  0.00  0.00    +0.000 N 
ATOM     29  H   UNL     1      -4.875  12.279  20.621  0.00  0.00    +0.000 HD
BRANCH  27  30
ATOM     30  C   UNL     1      -4.695  14.448  21.903  0.00  0.00    +0.000 A 
ATOM     31  C   UNL     1      -4.209  15.208  22.975  0.00  0.00    +0.000 A 
ATOM     32  C   UNL     1      -5.088  15.685  23.946  0.00  0.00    +0.000 A 
ATOM     33  C   UNL     1      -6.450  15.400  23.853  0.00  0.00    +0.000 A 
ATOM     34  C   UNL     1      -6.935  14.630  22.795  0.00  0.00    +0.000 A 
ATOM     35  C   UNL     1      -6.060  14.149  21.819  0.00  0.00    +0.000 A 
ENDBRANCH  27  30
ENDBRANCH  20  28
ENDBRANCH   1  24
TORSDOF 6
ENDMDL
MODEL 5
REMARK VINA RESULT:      -8.4      2.431      3.349
REMARK  Name = 
REMARK  6 active torsions:
REMARK  status: ('A' for Active; 'I' for Inactive)
REMARK    1  A    between atoms: C_2  and  C_28
REMARK    2  A    between atoms: N_3  and  C_4
REMARK    3  A    between atoms: C_8  and  C_9
REMARK    4  A    between atoms: C_9  and  C_11
REMARK    5  A    between atoms: C_15  and  C_16
REMARK    6  A    between atoms: N_17  and  N_18
REMARK                            x       y       z     vdW  Elec       q    Type
REMARK                         _______ _______ _______ _____ _____    ______ ____
ROOT
ATOM      1  C   UNL     1       1.929   8.947  18.307  0.00  0.00    +0.000 C 
ATOM      2  O   UNL     1       1.977   9.617  17.276  0.00  0.00    +0.000 OA
ENDROOT
BRANCH   1   3
ATOM      3  C   UNL     1       1.149   9.465  19.454  0.00  0.00    +0.000 A 
ATOM      4  C   UNL     1       0.375  10.594  19.185  0.00  0.00    +0.000 A 
ATOM      5  C   UNL     1      -0.378  11.187  20.189  0.00  0.00    +0.000 A 
ATOM      6  C   UNL     1      -0.354  10.644  21.486  0.00  0.00    +0.000 A 
ATOM      7  C   UNL     1      -0.946  10.994  22.737  0.00  0.00    +0.000 A 
ATOM      8  N   UNL     1      -0.596  10.131  23.703  0.00  0.00    +0.000 NA
ATOM      9  N   UNL     1       0.240   9.269  23.078  0.00  0.00    +0.000 N 
ATOM     10  C   UNL     1       0.426   9.525  21.742  0.00  0.00    +0.000 A 
ATOM     11  C   UNL     1       1.206   8.909  20.750  0.00  0.00    +0.000 A 
ATOM     12  H   UNL     1       0.659   8.526  23.628  0.00  0.00    +0.000 HD
BRANCH   7  13
ATOM     13  C   UNL     1      -1.778  12.168  22.986  0.00  0.00    +0.000 C 
ATOM     14  N   UNL     1      -2.979  11.906  23.377  0.00  0.00    +0.000 NA
BRANCH  14  15
ATOM     15  N   UNL     1      -3.892  12.872  23.551  0.00  0.00    +0.000 N 
ATOM     16  C   UNL     1      -5.233  12.951  23.308  0.00  0.00    +0.000 A 
ATOM     17  N   UNL     1      -5.699  14.113  23.714  0.00  0.00    +0.000 NA
ATOM     18  N   UNL     1      -4.646  14.828  24.236  0.00  0.00    +0.000 NA
ATOM     19  C   UNL     1      -3.578  14.076  24.130  0.00  0.00    +0.000 A 
ENDBRANCH  14  15
ENDBRANCH   7  13
ENDBRANCH   1   3
BRANCH   1  24
ATOM     20  C   UNL     1       3.946   5.894  17.315  0.00  0.00    +0.000 A 
ATOM     21  C   UNL     1       3.884   5.174  18.511  0.00  0.00    +0.000 A 
ATOM     22  C   UNL     1       3.221   5.694  19.624  0.00  0.00    +0.000 A 
ATOM     23  C   UNL     1       2.594   6.927  19.537  0.00  0.00    +0.000 A 
ATOM     24  C   UNL     1       2.640   7.652  18.343  0.00  0.00    +0.000 A 
ATOM     25  C   UNL     1       3.361   7.161  17.248  0.00  0.00    +0.000 A 
BRANCH  20  28
ATOM     26  O   UNL     1       6.687   6.359  16.374  0.00  0.00    +0.000 OA
ATOM     27  C   UNL     1       5.868   5.691  15.754  0.00  0.00    +0.000 C 
ATOM     28  N   UNL     1       4.574   5.399  16.153  0.00  0.00    +0.000 N 
ATOM     29  H   UNL     1       4.098   4.654  15.661  0.00  0.00    +0.000 HD
BRANCH  27  30
ATOM     30  C   UNL     1       6.303   5.040  14.491  0.00  0.00    +0.000 A 
ATOM     31  C   UNL     1       5.513   4.004  13.976  0.00  0.00    +0.000 A 
ATOM     32  C   UNL     1       5.888   3.362  12.797  0.00  0.00    +0.000 A 
ATOM     33  C   UNL     1       7.053   3.747  12.135  0.00  0.00    +0.000 A 
ATOM     34  C   UNL     1       7.851   4.768  12.653  0.00  0.00    +0.000 A 
ATOM     35  C   UNL     1       7.481   5.416  13.833  0.00  0.00    +0.000 A 
ENDBRANCH  27  30
ENDBRANCH  20  28
ENDBRANCH   1  24
TORSDOF 6
ENDMDL
MODEL 6
REMARK VINA RESULT:      -8.3      3.812     12.327
REMARK  Name = 
REMARK  6 active torsions:
REMARK  status: ('A' for Active; 'I' for Inactive)
REMARK    1  A    between atoms: C_2  and  C_28
REMARK    2  A    between atoms: N_3  and  C_4
REMARK    3  A    between atoms: C_8  and  C_9
REMARK    4  A    between atoms: C_9  and  C_11
REMARK    5  A    between atoms: C_15  and  C_16
REMARK    6  A    between atoms: N_17  and  N_18
REMARK                            x       y       z     vdW  Elec       q    Type
REMARK                         _______ _______ _______ _____ _____    ______ ____
ROOT
ATOM      1  C   UNL     1       0.507  10.553  20.362  0.00  0.00    +0.000 C 
ATOM      2  O   UNL     1       1.038  11.281  21.200  0.00  0.00    +0.000 OA
ENDROOT
BRANCH   1   3
ATOM      3  C   UNL     1       1.178   9.283  19.998  0.00  0.00    +0.000 A 
ATOM      4  C   UNL     1       1.718   9.244  18.713  0.00  0.00    +0.000 A 
ATOM      5  C   UNL     1       2.347   8.097  18.248  0.00  0.00    +0.000 A 
ATOM      6  C   UNL     1       2.434   6.968  19.082  0.00  0.00    +0.000 A 
ATOM      7  C   UNL     1       2.953   5.647  18.937  0.00  0.00    +0.000 A 
ATOM      8  N   UNL     1       2.780   4.928  20.058  0.00  0.00    +0.000 NA
ATOM      9  N   UNL     1       2.123   5.774  20.885  0.00  0.00    +0.000 N 
ATOM     10  C   UNL     1       1.886   7.018  20.356  0.00  0.00    +0.000 A 
ATOM     11  C   UNL     1       1.234   8.160  20.851  0.00  0.00    +0.000 A 
ATOM     12  H   UNL     1       1.857   5.434  21.804  0.00  0.00    +0.000 HD
BRANCH   7  13
ATOM     13  C   UNL     1       3.544   5.091  17.724  0.00  0.00    +0.000 C 
ATOM     14  N   UNL     1       4.807   5.312  17.587  0.00  0.00    +0.000 NA
BRANCH  14  15
ATOM     15  N   UNL     1       5.473   4.953  16.480  0.00  0.00    +0.000 N 
ATOM     16  C   UNL     1       5.657   3.761  15.841  0.00  0.00    +0.000 A 
ATOM     17  N   UNL     1       6.353   3.941  14.739  0.00  0.00    +0.000 NA
ATOM     18  N   UNL     1       6.644   5.282  14.641  0.00  0.00    +0.000 NA
ATOM     19  C   UNL     1       6.114   5.870  15.686  0.00  0.00    +0.000 A 
ENDBRANCH  14  15
ENDBRANCH   7  13
ENDBRANCH   1   3
BRANCH   1  24
ATOM     20  C   UNL     1      -2.762  12.361  19.718  0.00  0.00    +0.000 A 
ATOM     21  C   UNL     1      -3.221  11.630  18.620  0.00  0.00    +0.000 A 
ATOM     22  C   UNL     1      -2.461  10.589  18.086  0.00  0.00    +0.000 A 
ATOM     23  C   UNL     1      -1.246  10.257  18.667  0.00  0.00    +0.000 A 
ATOM     24  C   UNL     1      -0.781  10.974  19.774  0.00  0.00    +0.000 A 
ATOM     25  C   UNL     1      -1.513  12.061  20.267  0.00  0.00    +0.000 A 
BRANCH  20  28
ATOM     26  O   UNL     1      -4.398  12.279  22.153  0.00  0.00    +0.000 OA
ATOM     27  C   UNL     1      -4.288  13.277  21.452  0.00  0.00    +0.000 C 
ATOM     28  N   UNL     1      -3.507  13.400  20.315  0.00  0.00    +0.000 N 
ATOM     29  H   UNL     1      -3.332  14.338  19.976  0.00  0.00    +0.000 HD
BRANCH  27  30
ATOM     30  C   UNL     1      -4.973  14.521  21.888  0.00  0.00    +0.000 A 
ATOM     31  C   UNL     1      -5.323  14.644  23.239  0.00  0.00    +0.000 A 
ATOM     32  C   UNL     1      -5.974  15.791  23.689  0.00  0.00    +0.000 A 
ATOM     33  C   UNL     1      -6.281  16.814  22.792  0.00  0.00    +0.000 A 
ATOM     34  C   UNL     1      -5.948  16.689  21.443  0.00  0.00    +0.000 A 
ATOM     35  C   UNL     1      -5.296  15.542  20.985  0.00  0.00    +0.000 A 
ENDBRANCH  27  30
ENDBRANCH  20  28
ENDBRANCH   1  24
TORSDOF 6
ENDMDL
MODEL 7
REMARK VINA RESULT:      -8.3      4.588     10.283
REMARK  Name = 
REMARK  6 active torsions:
REMARK  status: ('A' for Active; 'I' for Inactive)
REMARK    1  A    between atoms: C_2  and  C_28
REMARK    2  A    between atoms: N_3  and  C_4
REMARK    3  A    between atoms: C_8  and  C_9
REMARK    4  A    between atoms: C_9  and  C_11
REMARK    5  A    between atoms: C_15  and  C_16
REMARK    6  A    between atoms: N_17  and  N_18
REMARK                            x       y       z     vdW  Elec       q    Type
REMARK                         _______ _______ _______ _____ _____    ______ ____
ROOT
ATOM      1  C   UNL     1       0.063  10.958  19.752  0.00  0.00    +0.000 C 
ATOM      2  O   UNL     1      -1.056  10.804  20.239  0.00  0.00    +0.000 OA
ENDROOT
BRANCH   1   3
ATOM      3  C   UNL     1       0.899   9.761  19.504  0.00  0.00    +0.000 A 
ATOM      4  C   UNL     1       1.497   9.704  18.245  0.00  0.00    +0.000 A 
ATOM      5  C   UNL     1       2.282   8.617  17.886  0.00  0.00    +0.000 A 
ATOM      6  C   UNL     1       2.469   7.565  18.801  0.00  0.00    +0.000 A 
ATOM      7  C   UNL     1       3.150   6.312  18.771  0.00  0.00    +0.000 A 
ATOM      8  N   UNL     1       3.016   5.653  19.933  0.00  0.00    +0.000 NA
ATOM      9  N   UNL     1       2.225   6.464  20.673  0.00  0.00    +0.000 N 
ATOM     10  C   UNL     1       1.861   7.630  20.047  0.00  0.00    +0.000 A 
ATOM     11  C   UNL     1       1.054   8.712  20.436  0.00  0.00    +0.000 A 
ATOM     12  H   UNL     1       1.961   6.155  21.603  0.00  0.00    +0.000 HD
BRANCH   7  13
ATOM     13  C   UNL     1       3.860   5.756  17.622  0.00  0.00    +0.000 C 
ATOM     14  N   UNL     1       5.141   5.889  17.661  0.00  0.00    +0.000 NA
BRANCH  14  15
ATOM     15  N   UNL     1       5.923   5.519  16.636  0.00  0.00    +0.000 N 
ATOM     16  C   UNL     1       7.126   4.879  16.556  0.00  0.00    +0.000 A 
ATOM     17  N   UNL     1       7.455   4.691  15.296  0.00  0.00    +0.000 NA
ATOM     18  N   UNL     1       6.453   5.221  14.517  0.00  0.00    +0.000 NA
ATOM     19  C   UNL     1       5.550   5.712  15.330  0.00  0.00    +0.000 A 
ENDBRANCH  14  15
ENDBRANCH   7  13
ENDBRANCH   1   3
BRANCH   1  24
ATOM     20  C   UNL     1       2.221  14.015  19.147  0.00  0.00    +0.000 A 
ATOM     21  C   UNL     1       1.225  14.951  18.856  0.00  0.00    +0.000 A 
ATOM     22  C   UNL     1      -0.119  14.578  18.830  0.00  0.00    +0.000 A 
ATOM     23  C   UNL     1      -0.476  13.271  19.120  0.00  0.00    +0.000 A 
ATOM     24  C   UNL     1       0.510  12.327  19.424  0.00  0.00    +0.000 A 
ATOM     25  C   UNL     1       1.863  12.686  19.385  0.00  0.00    +0.000 A 
BRANCH  20  28
ATOM     26  O   UNL     1       3.876  15.405  17.161  0.00  0.00    +0.000 OA
ATOM     27  C   UNL     1       4.316  14.978  18.221  0.00  0.00    +0.000 C 
ATOM     28  N   UNL     1       3.590  14.348  19.219  0.00  0.00    +0.000 N 
ATOM     29  H   UNL     1       4.033  14.262  20.125  0.00  0.00    +0.000 HD
BRANCH  27  30
ATOM     30  C   UNL     1       5.747  15.226  18.539  0.00  0.00    +0.000 A 
ATOM     31  C   UNL     1       6.047  16.012  19.660  0.00  0.00    +0.000 A 
ATOM     32  C   UNL     1       7.376  16.275  19.990  0.00  0.00    +0.000 A 
ATOM     33  C   UNL     1       8.404  15.760  19.201  0.00  0.00    +0.000 A 
ATOM     34  C   UNL     1       8.108  14.989  18.076  0.00  0.00    +0.000 A 
ATOM     35  C   UNL     1       6.780  14.722  17.740  0.00  0.00    +0.000 A 
ENDBRANCH  27  30
ENDBRANCH  20  28
ENDBRANCH   1  24
TORSDOF 6
ENDMDL
MODEL 8
REMARK VINA RESULT:      -8.3      3.836      5.664
REMARK  Name = 
REMARK  6 active torsions:
REMARK  status: ('A' for Active; 'I' for Inactive)
REMARK    1  A    between atoms: C_2  and  C_28
REMARK    2  A    between atoms: N_3  and  C_4
REMARK    3  A    between atoms: C_8  and  C_9
REMARK    4  A    between atoms: C_9  and  C_11
REMARK    5  A    between atoms: C_15  and  C_16
REMARK    6  A    between atoms: N_17  and  N_18
REMARK                            x       y       z     vdW  Elec       q    Type
REMARK                         _______ _______ _______ _____ _____    ______ ____
ROOT
ATOM      1  C   UNL     1       3.270   5.894  17.909  0.00  0.00    +0.000 C 
ATOM      2  O   UNL     1       2.702   4.815  17.746  0.00  0.00    +0.000 OA
ENDROOT
BRANCH   1   3
ATOM      3  C   UNL     1       2.521   7.000  18.552  0.00  0.00    +0.000 A 
ATOM      4  C   UNL     1       2.208   8.070  17.715  0.00  0.00    +0.000 A 
ATOM      5  C   UNL     1       1.533   9.177  18.210  0.00  0.00    +0.000 A 
ATOM      6  C   UNL     1       1.168   9.216  19.568  0.00  0.00    +0.000 A 
ATOM      7  C   UNL     1       0.526  10.171  20.412  0.00  0.00    +0.000 A 
ATOM      8  N   UNL     1       0.416   9.717  21.670  0.00  0.00    +0.000 NA
ATOM      9  N   UNL     1       1.020   8.506  21.629  0.00  0.00    +0.000 N 
ATOM     10  C   UNL     1       1.494   8.148  20.392  0.00  0.00    +0.000 A 
ATOM     11  C   UNL     1       2.185   7.019  19.922  0.00  0.00    +0.000 A 
ATOM     12  H   UNL     1       1.082   7.974  22.491  0.00  0.00    +0.000 HD
BRANCH   7  13
ATOM     13  C   UNL     1       0.086  11.504  20.010  0.00  0.00    +0.000 C 
ATOM     14  N   UNL     1       1.039  12.333  19.753  0.00  0.00    +0.000 NA
BRANCH  14  15
ATOM     15  N   UNL     1       0.799  13.621  19.467  0.00  0.00    +0.000 N 
ATOM     16  C   UNL     1       1.605  14.692  19.207  0.00  0.00    +0.000 A 
ATOM     17  N   UNL     1       0.875  15.749  18.921  0.00  0.00    +0.000 NA
ATOM     18  N   UNL     1      -0.447  15.378  18.996  0.00  0.00    +0.000 NA
ATOM     19  C   UNL     1      -0.475  14.110  19.324  0.00  0.00    +0.000 A 
ENDBRANCH  14  15
ENDBRANCH   7  13
ENDBRANCH   1   3
BRANCH   1  24
ATOM     20  C   UNL     1       6.713   7.294  17.167  0.00  0.00    +0.000 A 
ATOM     21  C   UNL     1       7.287   6.184  16.543  0.00  0.00    +0.000 A 
ATOM     22  C   UNL     1       6.570   4.996  16.397  0.00  0.00    +0.000 A 
ATOM     23  C   UNL     1       5.263   4.921  16.853  0.00  0.00    +0.000 A 
ATOM     24  C   UNL     1       4.673   6.029  17.470  0.00  0.00    +0.000 A 
ATOM     25  C   UNL     1       5.416   7.198  17.676  0.00  0.00    +0.000 A 
BRANCH  20  28
ATOM     26  O   UNL     1       8.772   8.046  19.119  0.00  0.00    +0.000 OA
ATOM     27  C   UNL     1       8.326   8.821  18.283  0.00  0.00    +0.000 C 
ATOM     28  N   UNL     1       7.384   8.527  17.310  0.00  0.00    +0.000 N 
ATOM     29  H   UNL     1       7.284   9.189  16.551  0.00  0.00    +0.000 HD
BRANCH  27  30
ATOM     30  C   UNL     1       8.895  10.192  18.220  0.00  0.00    +0.000 A 
ATOM     31  C   UNL     1      10.138  10.420  18.826  0.00  0.00    +0.000 A 
ATOM     32  C   UNL     1      10.704  11.692  18.796  0.00  0.00    +0.000 A 
ATOM     33  C   UNL     1      10.031  12.740  18.169  0.00  0.00    +0.000 A 
ATOM     34  C   UNL     1       8.786  12.521  17.578  0.00  0.00    +0.000 A 
ATOM     35  C   UNL     1       8.212  11.248  17.603  0.00  0.00    +0.000 A 
ENDBRANCH  27  30
ENDBRANCH  20  28
ENDBRANCH   1  24
TORSDOF 6
ENDMDL
MODEL 9
REMARK VINA RESULT:      -8.3      0.983      1.123
REMARK  Name = 
REMARK  6 active torsions:
REMARK  status: ('A' for Active; 'I' for Inactive)
REMARK    1  A    between atoms: C_2  and  C_28
REMARK    2  A    between atoms: N_3  and  C_4
REMARK    3  A    between atoms: C_8  and  C_9
REMARK    4  A    between atoms: C_9  and  C_11
REMARK    5  A    between atoms: C_15  and  C_16
REMARK    6  A    between atoms: N_17  and  N_18
REMARK                            x       y       z     vdW  Elec       q    Type
REMARK                         _______ _______ _______ _____ _____    ______ ____
ROOT
ATOM      1  C   UNL     1       2.879   5.390  19.193  0.00  0.00    +0.000 C 
ATOM      2  O   UNL     1       2.219   4.421  19.566  0.00  0.00    +0.000 OA
ENDROOT
BRANCH   1   3
ATOM      3  C   UNL     1       2.323   6.748  19.399  0.00  0.00    +0.000 A 
ATOM      4  C   UNL     1       1.795   6.988  20.668  0.00  0.00    +0.000 A 
ATOM      5  C   UNL     1       1.220   8.215  20.970  0.00  0.00    +0.000 A 
ATOM      6  C   UNL     1       1.168   9.218  19.986  0.00  0.00    +0.000 A 
ATOM      7  C   UNL     1       0.637  10.541  19.922  0.00  0.00    +0.000 A 
ATOM      8  N   UNL     1       0.847  11.095  18.718  0.00  0.00    +0.000 NA
ATOM      9  N   UNL     1       1.468  10.118  18.017  0.00  0.00    +0.000 N 
ATOM     10  C   UNL     1       1.690   8.963  18.725  0.00  0.00    +0.000 A 
ATOM     11  C   UNL     1       2.269   7.729  18.386  0.00  0.00    +0.000 A 
ATOM     12  H   UNL     1       1.709  10.303  17.049  0.00  0.00    +0.000 HD
BRANCH   7  13
ATOM     13  C   UNL     1      -0.102  11.214  20.986  0.00  0.00    +0.000 C 
ATOM     14  N   UNL     1      -1.137  11.875  20.593  0.00  0.00    +0.000 NA
BRANCH  14  15
ATOM     15  N   UNL     1      -1.859  12.626  21.436  0.00  0.00    +0.000 N 
ATOM     16  C   UNL     1      -2.875  13.521  21.261  0.00  0.00    +0.000 A 
ATOM     17  N   UNL     1      -3.299  13.958  22.428  0.00  0.00    +0.000 NA
ATOM     18  N   UNL     1      -2.548  13.345  23.404  0.00  0.00    +0.000 NA
ATOM     19  C   UNL     1      -1.694  12.558  22.797  0.00  0.00    +0.000 A 
ENDBRANCH  14  15
ENDBRANCH   7  13
ENDBRANCH   1   3
BRANCH   1  24
ATOM     20  C   UNL     1       5.613   4.405  16.759  0.00  0.00    +0.000 A 
ATOM     21  C   UNL     1       6.735   4.686  17.542  0.00  0.00    +0.000 A 
ATOM     22  C   UNL     1       6.597   5.215  18.826  0.00  0.00    +0.000 A 
ATOM     23  C   UNL     1       5.331   5.441  19.344  0.00  0.00    +0.000 A 
ATOM     24  C   UNL     1       4.199   5.153  18.575  0.00  0.00    +0.000 A 
ATOM     25  C   UNL     1       4.340   4.685  17.262  0.00  0.00    +0.000 A 
BRANCH  20  28
ATOM     26  O   UNL     1       6.415   5.688  14.245  0.00  0.00    +0.000 OA
ATOM     27  C   UNL     1       6.054   4.519  14.317  0.00  0.00    +0.000 C 
ATOM     28  N   UNL     1       5.698   3.839  15.470  0.00  0.00    +0.000 N 
ATOM     29  H   UNL     1       5.649   2.830  15.412  0.00  0.00    +0.000 HD
BRANCH  27  30
ATOM     30  C   UNL     1       6.076   3.698  13.078  0.00  0.00    +0.000 A 
ATOM     31  C   UNL     1       4.850   3.337  12.504  0.00  0.00    +0.000 A 
ATOM     32  C   UNL     1       4.825   2.562  11.346  0.00  0.00    +0.000 A 
ATOM     33  C   UNL     1       6.020   2.142  10.763  0.00  0.00    +0.000 A 
ATOM     34  C   UNL     1       7.243   2.487  11.341  0.00  0.00    +0.000 A 
ATOM     35  C   UNL     1       7.275   3.263  12.501  0.00  0.00    +0.000 A 
ENDBRANCH  27  30
ENDBRANCH  20  28
ENDBRANCH   1  24
TORSDOF 6
ENDMDL
