MODEL 1
REMARK VINA RESULT:      -7.6      0.000      0.000
REMARK  Name = 
REMARK  7 active torsions:
REMARK  status: ('A' for Active; 'I' for Inactive)
REMARK    1  A    between atoms: C_2  and  C_4
REMARK    2  A    between atoms: C_4  and  O_5
REMARK    3  A    between atoms: O_5  and  C_6
REMARK    4  A    between atoms: C_6  and  C_8
REMARK    5  A    between atoms: C_10  and  O_11
REMARK    6  A    between atoms: N_13  and  S_14
REMARK    7  A    between atoms: S_14  and  C_17
REMARK                            x       y       z     vdW  Elec       q    Type
REMARK                         _______ _______ _______ _____ _____    ______ ____
ROOT
ATOM      1  C   UNL     1       4.272   3.997  19.444  0.00  0.00    +0.000 C 
ATOM      2  C   UNL     1       3.281   2.826  19.444  0.00  0.00    +0.000 C 
ATOM      3  C   UNL     1       2.077   3.300  20.245  0.00  0.00    +0.000 C 
ATOM      4  C   UNL     1       2.444   4.692  20.766  0.00  0.00    +0.000 C 
ATOM      5  N   UNL     1       3.477   5.215  19.824  0.00  0.00    +0.000 NA
ENDROOT
BRANCH   5   6
ATOM      6  S   UNL     1       2.905   6.197  18.561  0.00  0.00    +0.000 S 
ATOM      7  O   UNL     1       4.049   6.762  17.878  0.00  0.00    +0.000 OA
ATOM      8  O   UNL     1       1.907   5.436  17.843  0.00  0.00    +0.000 OA
BRANCH   6   9
ATOM      9  C   UNL     1       2.104   7.569  19.365  0.00  0.00    +0.000 A 
ATOM     10  C   UNL     1       1.702   7.472  20.702  0.00  0.00    +0.000 A 
ATOM     11  C   UNL     1       0.976   8.516  21.284  0.00  0.00    +0.000 A 
ATOM     12  C   UNL     1       0.664   9.653  20.537  0.00  0.00    +0.000 A 
ATOM     13  C   UNL     1       1.083   9.749  19.206  0.00  0.00    +0.000 A 
ATOM     14  C   UNL     1       1.772   8.696  18.604  0.00  0.00    +0.000 A 
ATOM     15  O   UNL     1       0.847  10.858  18.433  0.00  0.00    +0.000 OA
ATOM     16  C   UNL     1       0.593  11.999  19.263  0.00  0.00    +0.000 C 
ATOM     17  C   UNL     1      -0.478  11.673  20.290  0.00  0.00    +0.000 C 
ATOM     18  O   UNL     1      -0.037  10.640  21.182  0.00  0.00    +0.000 OA
ENDBRANCH   6   9
ENDBRANCH   5   6
BRANCH   1  19
ATOM     19  C   UNL     1       5.179   3.927  18.235  0.00  0.00    +0.000 C 
ATOM     20  O   UNL     1       4.796   3.545  17.135  0.00  0.00    +0.000 OA
BRANCH  19  21
ATOM     21  O   UNL     1       6.416   4.427  18.489  0.00  0.00    +0.000 OA
BRANCH  21  22
ATOM     22  C   UNL     1       7.230   4.652  17.335  0.00  0.00    +0.000 C 
BRANCH  22  24
ATOM     23  N   UNL     1       6.065   6.008  15.637  0.00  0.00    +0.000 N 
ATOM     24  C   UNL     1       7.039   5.969  16.584  0.00  0.00    +0.000 C 
ATOM     25  O   UNL     1       7.748   6.954  16.790  0.00  0.00    +0.000 OA
ATOM     26  H   UNL     1       5.960   6.845  15.083  0.00  0.00    +0.000 HD
ATOM     27  H   UNL     1       5.590   5.165  15.308  0.00  0.00    +0.000 HD
ENDBRANCH  22  24
ENDBRANCH  21  22
ENDBRANCH  19  21
ENDBRANCH   1  19
BRANCH   3  28
ATOM     28  O   UNL     1       1.766   2.394  21.295  0.00  0.00    +0.000 OA
ATOM     29  H   UNL     1       2.470   2.418  21.966  0.00  0.00    +0.000 HD
ENDBRANCH   3  28
TORSDOF 7
ENDMDL
MODEL 2
REMARK VINA RESULT:      -7.5      2.355      6.990
REMARK  Name = 
REMARK  7 active torsions:
REMARK  status: ('A' for Active; 'I' for Inactive)
REMARK    1  A    between atoms: C_2  and  C_4
REMARK    2  A    between atoms: C_4  and  O_5
REMARK    3  A    between atoms: O_5  and  C_6
REMARK    4  A    between atoms: C_6  and  C_8
REMARK    5  A    between atoms: C_10  and  O_11
REMARK    6  A    between atoms: N_13  and  S_14
REMARK    7  A    between atoms: S_14  and  C_17
REMARK                            x       y       z     vdW  Elec       q    Type
REMARK                         _______ _______ _______ _____ _____    ______ ____
ROOT
ATOM      1  C   UNL     1       2.132   5.257  18.853  0.00  0.00    +0.000 C 
ATOM      2  C   UNL     1       1.349   4.821  20.098  0.00  0.00    +0.000 C 
ATOM      3  C   UNL     1       1.482   3.307  20.163  0.00  0.00    +0.000 C 
ATOM      4  C   UNL     1       2.254   2.901  18.904  0.00  0.00    +0.000 C 
ATOM      5  N   UNL     1       3.036   4.108  18.506  0.00  0.00    +0.000 NA
ENDROOT
BRANCH   5   6
ATOM      6  S   UNL     1       4.637   4.178  19.068  0.00  0.00    +0.000 S 
ATOM      7  O   UNL     1       4.784   5.381  19.860  0.00  0.00    +0.000 OA
ATOM      8  O   UNL     1       4.956   2.878  19.618  0.00  0.00    +0.000 OA
BRANCH   6   9
ATOM      9  C   UNL     1       5.631   4.438  17.614  0.00  0.00    +0.000 A 
ATOM     10  C   UNL     1       6.842   5.135  17.698  0.00  0.00    +0.000 A 
ATOM     11  C   UNL     1       7.554   5.427  16.530  0.00  0.00    +0.000 A 
ATOM     12  C   UNL     1       7.064   5.015  15.289  0.00  0.00    +0.000 A 
ATOM     13  C   UNL     1       5.861   4.306  15.216  0.00  0.00    +0.000 A 
ATOM     14  C   UNL     1       5.122   4.045  16.370  0.00  0.00    +0.000 A 
ATOM     15  O   UNL     1       5.350   3.835  14.033  0.00  0.00    +0.000 OA
ATOM     16  C   UNL     1       6.386   3.732  13.048  0.00  0.00    +0.000 C 
ATOM     17  C   UNL     1       7.156   5.039  12.958  0.00  0.00    +0.000 C 
ATOM     18  O   UNL     1       7.828   5.326  14.193  0.00  0.00    +0.000 OA
ENDBRANCH   6   9
ENDBRANCH   5   6
BRANCH   1  19
ATOM     19  C   UNL     1       2.606   6.687  18.996  0.00  0.00    +0.000 C 
ATOM     20  O   UNL     1       3.128   7.311  18.079  0.00  0.00    +0.000 OA
BRANCH  19  21
ATOM     21  O   UNL     1       2.296   7.215  20.209  0.00  0.00    +0.000 OA
BRANCH  21  22
ATOM     22  C   UNL     1       1.536   8.425  20.169  0.00  0.00    +0.000 C 
BRANCH  22  24
ATOM     23  N   UNL     1      -0.385   8.472  21.717  0.00  0.00    +0.000 N 
ATOM     24  C   UNL     1       0.885   8.892  21.471  0.00  0.00    +0.000 C 
ATOM     25  O   UNL     1       1.458   9.640  22.263  0.00  0.00    +0.000 OA
ATOM     26  H   UNL     1      -0.858   8.817  22.538  0.00  0.00    +0.000 HD
ATOM     27  H   UNL     1      -0.954   8.013  21.003  0.00  0.00    +0.000 HD
ENDBRANCH  22  24
ENDBRANCH  21  22
ENDBRANCH  19  21
ENDBRANCH   1  19
BRANCH   3  28
ATOM     28  O   UNL     1       0.208   2.680  20.242  0.00  0.00    +0.000 OA
ATOM     29  H   UNL     1       0.251   1.800  19.830  0.00  0.00    +0.000 HD
ENDBRANCH   3  28
TORSDOF 7
ENDMDL
MODEL 3
REMARK VINA RESULT:      -7.5      0.829      1.573
REMARK  Name = 
REMARK  7 active torsions:
REMARK  status: ('A' for Active; 'I' for Inactive)
REMARK    1  A    between atoms: C_2  and  C_4
REMARK    2  A    between atoms: C_4  and  O_5
REMARK    3  A    between atoms: O_5  and  C_6
REMARK    4  A    between atoms: C_6  and  C_8
REMARK    5  A    between atoms: C_10  and  O_11
REMARK    6  A    between atoms: N_13  and  S_14
REMARK    7  A    between atoms: S_14  and  C_17
REMARK                            x       y       z     vdW  Elec       q    Type
REMARK                         _______ _______ _______ _____ _____    ______ ____
ROOT
ATOM      1  C   UNL     1       4.296   4.277  19.600  0.00  0.00    +0.000 C 
ATOM      2  C   UNL     1       3.387   3.042  19.595  0.00  0.00    +0.000 C 
ATOM      3  C   UNL     1       2.068   3.493  20.205  0.00  0.00    +0.000 C 
ATOM      4  C   UNL     1       2.283   4.947  20.634  0.00  0.00    +0.000 C 
ATOM      5  N   UNL     1       3.387   5.462  19.773  0.00  0.00    +0.000 NA
ENDROOT
BRANCH   5   6
ATOM      6  S   UNL     1       2.912   6.291  18.368  0.00  0.00    +0.000 S 
ATOM      7  O   UNL     1       4.099   6.831  17.741  0.00  0.00    +0.000 OA
ATOM      8  O   UNL     1       2.011   5.423  17.641  0.00  0.00    +0.000 OA
BRANCH   6   9
ATOM      9  C   UNL     1       1.994   7.702  18.948  0.00  0.00    +0.000 A 
ATOM     10  C   UNL     1       1.633   8.726  18.065  0.00  0.00    +0.000 A 
ATOM     11  C   UNL     1       1.011   9.877  18.557  0.00  0.00    +0.000 A 
ATOM     12  C   UNL     1       0.741   9.999  19.921  0.00  0.00    +0.000 A 
ATOM     13  C   UNL     1       1.091   8.964  20.795  0.00  0.00    +0.000 A 
ATOM     14  C   UNL     1       1.749   7.830  20.321  0.00  0.00    +0.000 A 
ATOM     15  O   UNL     1       0.813   9.004  22.138  0.00  0.00    +0.000 OA
ATOM     16  C   UNL     1      -0.247   9.932  22.401  0.00  0.00    +0.000 C 
ATOM     17  C   UNL     1       0.056  11.272  21.752  0.00  0.00    +0.000 C 
ATOM     18  O   UNL     1       0.115  11.151  20.325  0.00  0.00    +0.000 OA
ENDBRANCH   6   9
ENDBRANCH   5   6
BRANCH   1  19
ATOM     19  C   UNL     1       5.345   4.173  18.515  0.00  0.00    +0.000 C 
ATOM     20  O   UNL     1       5.116   3.691  17.410  0.00  0.00    +0.000 OA
BRANCH  19  21
ATOM     21  O   UNL     1       6.517   4.759  18.871  0.00  0.00    +0.000 OA
BRANCH  21  22
ATOM     22  C   UNL     1       7.509   4.810  17.843  0.00  0.00    +0.000 C 
BRANCH  22  24
ATOM     23  N   UNL     1       7.140   5.463  15.494  0.00  0.00    +0.000 N 
ATOM     24  C   UNL     1       7.355   5.886  16.768  0.00  0.00    +0.000 C 
ATOM     25  O   UNL     1       7.449   7.087  17.019  0.00  0.00    +0.000 OA
ATOM     26  H   UNL     1       7.098   6.150  14.756  0.00  0.00    +0.000 HD
ATOM     27  H   UNL     1       7.246   4.485  15.219  0.00  0.00    +0.000 HD
ENDBRANCH  22  24
ENDBRANCH  21  22
ENDBRANCH  19  21
ENDBRANCH   1  19
BRANCH   3  28
ATOM     28  O   UNL     1       1.691   2.658  21.292  0.00  0.00    +0.000 OA
ATOM     29  H   UNL     1       0.751   2.421  21.210  0.00  0.00    +0.000 HD
ENDBRANCH   3  28
TORSDOF 7
ENDMDL
MODEL 4
REMARK VINA RESULT:      -7.5      1.115      1.860
REMARK  Name = 
REMARK  7 active torsions:
REMARK  status: ('A' for Active; 'I' for Inactive)
REMARK    1  A    between atoms: C_2  and  C_4
REMARK    2  A    between atoms: C_4  and  O_5
REMARK    3  A    between atoms: O_5  and  C_6
REMARK    4  A    between atoms: C_6  and  C_8
REMARK    5  A    between atoms: C_10  and  O_11
REMARK    6  A    between atoms: N_13  and  S_14
REMARK    7  A    between atoms: S_14  and  C_17
REMARK                            x       y       z     vdW  Elec       q    Type
REMARK                         _______ _______ _______ _____ _____    ______ ____
ROOT
ATOM      1  C   UNL     1       4.417   4.509  19.803  0.00  0.00    +0.000 C 
ATOM      2  C   UNL     1       3.881   3.155  19.321  0.00  0.00    +0.000 C 
ATOM      3  C   UNL     1       2.369   3.226  19.480  0.00  0.00    +0.000 C 
ATOM      4  C   UNL     1       2.081   4.579  20.137  0.00  0.00    +0.000 C 
ATOM      5  N   UNL     1       3.244   5.449  19.792  0.00  0.00    +0.000 NA
ENDROOT
BRANCH   5   6
ATOM      6  S   UNL     1       3.052   6.441  18.427  0.00  0.00    +0.000 S 
ATOM      7  O   UNL     1       4.343   7.006  18.096  0.00  0.00    +0.000 OA
ATOM      8  O   UNL     1       2.294   5.689  17.452  0.00  0.00    +0.000 OA
BRANCH   6   9
ATOM      9  C   UNL     1       2.060   7.811  18.983  0.00  0.00    +0.000 A 
ATOM     10  C   UNL     1       1.687   8.825  18.093  0.00  0.00    +0.000 A 
ATOM     11  C   UNL     1       1.003   9.948  18.570  0.00  0.00    +0.000 A 
ATOM     12  C   UNL     1       0.684  10.050  19.925  0.00  0.00    +0.000 A 
ATOM     13  C   UNL     1       1.045   9.025  20.805  0.00  0.00    +0.000 A 
ATOM     14  C   UNL     1       1.764   7.921  20.347  0.00  0.00    +0.000 A 
ATOM     15  O   UNL     1       0.722   9.045  22.138  0.00  0.00    +0.000 OA
ATOM     16  C   UNL     1      -0.383   9.929  22.370  0.00  0.00    +0.000 C 
ATOM     17  C   UNL     1      -0.112  11.284  21.738  0.00  0.00    +0.000 C 
ATOM     18  O   UNL     1      -0.001  11.173  20.312  0.00  0.00    +0.000 OA
ENDBRANCH   6   9
ENDBRANCH   5   6
BRANCH   1  19
ATOM     19  C   UNL     1       5.747   4.818  19.152  0.00  0.00    +0.000 C 
ATOM     20  O   UNL     1       6.650   5.415  19.728  0.00  0.00    +0.000 OA
BRANCH  19  21
ATOM     21  O   UNL     1       5.854   4.273  17.912  0.00  0.00    +0.000 OA
BRANCH  21  22
ATOM     22  C   UNL     1       7.115   4.470  17.267  0.00  0.00    +0.000 C 
BRANCH  22  24
ATOM     23  N   UNL     1       7.101   6.888  16.780  0.00  0.00    +0.000 N 
ATOM     24  C   UNL     1       7.228   5.630  16.279  0.00  0.00    +0.000 C 
ATOM     25  O   UNL     1       7.397   5.454  15.072  0.00  0.00    +0.000 OA
ATOM     26  H   UNL     1       7.110   7.667  16.140  0.00  0.00    +0.000 HD
ATOM     27  H   UNL     1       6.774   7.065  17.731  0.00  0.00    +0.000 HD
ENDBRANCH  22  24
ENDBRANCH  21  22
ENDBRANCH  19  21
ENDBRANCH   1  19
BRANCH   3  28
ATOM     28  O   UNL     1       1.880   2.135  20.249  0.00  0.00    +0.000 OA
ATOM     29  H   UNL     1       1.082   1.771  19.829  0.00  0.00    +0.000 HD
ENDBRANCH   3  28
TORSDOF 7
ENDMDL
MODEL 5
REMARK VINA RESULT:      -7.5      0.891      1.109
REMARK  Name = 
REMARK  7 active torsions:
REMARK  status: ('A' for Active; 'I' for Inactive)
REMARK    1  A    between atoms: C_2  and  C_4
REMARK    2  A    between atoms: C_4  and  O_5
REMARK    3  A    between atoms: O_5  and  C_6
REMARK    4  A    between atoms: C_6  and  C_8
REMARK    5  A    between atoms: C_10  and  O_11
REMARK    6  A    between atoms: N_13  and  S_14
REMARK    7  A    between atoms: S_14  and  C_17
REMARK                            x       y       z     vdW  Elec       q    Type
REMARK                         _______ _______ _______ _____ _____    ______ ____
ROOT
ATOM      1  C   UNL     1       4.269   4.045  19.450  0.00  0.00    +0.000 C 
ATOM      2  C   UNL     1       3.804   2.810  18.669  0.00  0.00    +0.000 C 
ATOM      3  C   UNL     1       2.286   2.799  18.775  0.00  0.00    +0.000 C 
ATOM      4  C   UNL     1       1.923   3.969  19.694  0.00  0.00    +0.000 C 
ATOM      5  N   UNL     1       3.061   4.928  19.592  0.00  0.00    +0.000 NA
ENDROOT
BRANCH   5   6
ATOM      6  S   UNL     1       2.877   6.185  18.464  0.00  0.00    +0.000 S 
ATOM      7  O   UNL     1       4.195   6.667  18.108  0.00  0.00    +0.000 OA
ATOM      8  O   UNL     1       1.953   5.722  17.452  0.00  0.00    +0.000 OA
BRANCH   6   9
ATOM      9  C   UNL     1       2.111   7.514  19.367  0.00  0.00    +0.000 A 
ATOM     10  C   UNL     1       1.761   7.349  20.712  0.00  0.00    +0.000 A 
ATOM     11  C   UNL     1       1.060   8.362  21.374  0.00  0.00    +0.000 A 
ATOM     12  C   UNL     1       0.722   9.536  20.699  0.00  0.00    +0.000 A 
ATOM     13  C   UNL     1       1.089   9.699  19.360  0.00  0.00    +0.000 A 
ATOM     14  C   UNL     1       1.752   8.679  18.678  0.00  0.00    +0.000 A 
ATOM     15  O   UNL     1       0.826  10.846  18.654  0.00  0.00    +0.000 OA
ATOM     16  C   UNL     1       0.607  11.944  19.551  0.00  0.00    +0.000 C 
ATOM     17  C   UNL     1      -0.424  11.566  20.601  0.00  0.00    +0.000 C 
ATOM     18  O   UNL     1       0.049  10.488  21.421  0.00  0.00    +0.000 OA
ENDBRANCH   6   9
ENDBRANCH   5   6
BRANCH   1  19
ATOM     19  C   UNL     1       5.608   4.528  18.936  0.00  0.00    +0.000 C 
ATOM     20  O   UNL     1       6.408   5.143  19.633  0.00  0.00    +0.000 OA
BRANCH  19  21
ATOM     21  O   UNL     1       5.852   4.116  17.665  0.00  0.00    +0.000 OA
BRANCH  21  22
ATOM     22  C   UNL     1       7.030   4.659  17.064  0.00  0.00    +0.000 C 
BRANCH  22  24
ATOM     23  N   UNL     1       5.675   6.025  15.521  0.00  0.00    +0.000 N 
ATOM     24  C   UNL     1       6.865   5.407  15.741  0.00  0.00    +0.000 C 
ATOM     25  O   UNL     1       7.749   5.433  14.885  0.00  0.00    +0.000 OA
ATOM     26  H   UNL     1       5.519   6.472  14.630  0.00  0.00    +0.000 HD
ATOM     27  H   UNL     1       4.860   5.867  16.116  0.00  0.00    +0.000 HD
ENDBRANCH  22  24
ENDBRANCH  21  22
ENDBRANCH  19  21
ENDBRANCH   1  19
BRANCH   3  28
ATOM     28  O   UNL     1       1.813   1.553  19.273  0.00  0.00    +0.000 OA
ATOM     29  H   UNL     1       2.064   1.459  20.208  0.00  0.00    +0.000 HD
ENDBRANCH   3  28
TORSDOF 7
ENDMDL
MODEL 6
REMARK VINA RESULT:      -7.4      1.383      2.126
REMARK  Name = 
REMARK  7 active torsions:
REMARK  status: ('A' for Active; 'I' for Inactive)
REMARK    1  A    between atoms: C_2  and  C_4
REMARK    2  A    between atoms: C_4  and  O_5
REMARK    3  A    between atoms: O_5  and  C_6
REMARK    4  A    between atoms: C_6  and  C_8
REMARK    5  A    between atoms: C_10  and  O_11
REMARK    6  A    between atoms: N_13  and  S_14
REMARK    7  A    between atoms: S_14  and  C_17
REMARK                            x       y       z     vdW  Elec       q    Type
REMARK                         _______ _______ _______ _____ _____    ______ ____
ROOT
ATOM      1  C   UNL     1       5.093   4.954  19.351  0.00  0.00    +0.000 C 
ATOM      2  C   UNL     1       4.668   3.483  19.269  0.00  0.00    +0.000 C 
ATOM      3  C   UNL     1       3.271   3.420  19.869  0.00  0.00    +0.000 C 
ATOM      4  C   UNL     1       2.967   4.835  20.369  0.00  0.00    +0.000 C 
ATOM      5  N   UNL     1       3.830   5.742  19.556  0.00  0.00    +0.000 NA
ENDROOT
BRANCH   5   6
ATOM      6  S   UNL     1       3.105   6.426  18.181  0.00  0.00    +0.000 S 
ATOM      7  O   UNL     1       4.145   7.036  17.380  0.00  0.00    +0.000 OA
ATOM      8  O   UNL     1       2.220   5.428  17.621  0.00  0.00    +0.000 OA
BRANCH   6   9
ATOM      9  C   UNL     1       2.121   7.777  18.795  0.00  0.00    +0.000 A 
ATOM     10  C   UNL     1       1.766   8.836  17.953  0.00  0.00    +0.000 A 
ATOM     11  C   UNL     1       1.089   9.941  18.479  0.00  0.00    +0.000 A 
ATOM     12  C   UNL     1       0.759   9.980  19.834  0.00  0.00    +0.000 A 
ATOM     13  C   UNL     1       1.103   8.910  20.666  0.00  0.00    +0.000 A 
ATOM     14  C   UNL     1       1.815   7.822  20.161  0.00  0.00    +0.000 A 
ATOM     15  O   UNL     1       0.769   8.868  21.996  0.00  0.00    +0.000 OA
ATOM     16  C   UNL     1      -0.329   9.750  22.262  0.00  0.00    +0.000 C 
ATOM     17  C   UNL     1      -0.040  11.132  21.700  0.00  0.00    +0.000 C 
ATOM     18  O   UNL     1       0.082  11.090  20.271  0.00  0.00    +0.000 OA
ENDBRANCH   6   9
ENDBRANCH   5   6
BRANCH   1  19
ATOM     19  C   UNL     1       6.119   5.272  18.286  0.00  0.00    +0.000 C 
ATOM     20  O   UNL     1       7.003   6.108  18.439  0.00  0.00    +0.000 OA
BRANCH  19  21
ATOM     21  O   UNL     1       6.005   4.463  17.200  0.00  0.00    +0.000 OA
BRANCH  21  22
ATOM     22  C   UNL     1       7.124   4.474  16.312  0.00  0.00    +0.000 C 
BRANCH  22  24
ATOM     23  N   UNL     1       7.676   5.473  14.125  0.00  0.00    +0.000 N 
ATOM     24  C   UNL     1       6.839   4.658  14.821  0.00  0.00    +0.000 C 
ATOM     25  O   UNL     1       5.881   4.125  14.263  0.00  0.00    +0.000 OA
ATOM     26  H   UNL     1       7.473   5.660  13.155  0.00  0.00    +0.000 HD
ATOM     27  H   UNL     1       8.359   6.076  14.588  0.00  0.00    +0.000 HD
ENDBRANCH  22  24
ENDBRANCH  21  22
ENDBRANCH  19  21
ENDBRANCH   1  19
BRANCH   3  28
ATOM     28  O   UNL     1       3.199   2.452  20.909  0.00  0.00    +0.000 OA
ATOM     29  H   UNL     1       3.829   1.734  20.730  0.00  0.00    +0.000 HD
ENDBRANCH   3  28
TORSDOF 7
ENDMDL
MODEL 7
REMARK VINA RESULT:      -7.4      1.384      1.936
REMARK  Name = 
REMARK  7 active torsions:
REMARK  status: ('A' for Active; 'I' for Inactive)
REMARK    1  A    between atoms: C_2  and  C_4
REMARK    2  A    between atoms: C_4  and  O_5
REMARK    3  A    between atoms: O_5  and  C_6
REMARK    4  A    between atoms: C_6  and  C_8
REMARK    5  A    between atoms: C_10  and  O_11
REMARK    6  A    between atoms: N_13  and  S_14
REMARK    7  A    between atoms: S_14  and  C_17
REMARK                            x       y       z     vdW  Elec       q    Type
REMARK                         _______ _______ _______ _____ _____    ______ ____
ROOT
ATOM      1  C   UNL     1       4.244   4.160  19.603  0.00  0.00    +0.000 C 
ATOM      2  C   UNL     1       3.279   3.017  19.943  0.00  0.00    +0.000 C 
ATOM      3  C   UNL     1       2.113   3.663  20.676  0.00  0.00    +0.000 C 
ATOM      4  C   UNL     1       2.481   5.142  20.826  0.00  0.00    +0.000 C 
ATOM      5  N   UNL     1       3.448   5.429  19.726  0.00  0.00    +0.000 NA
ENDROOT
BRANCH   5   6
ATOM      6  S   UNL     1       2.786   6.075  18.301  0.00  0.00    +0.000 S 
ATOM      7  O   UNL     1       3.878   6.476  17.439  0.00  0.00    +0.000 OA
ATOM      8  O   UNL     1       1.771   5.153  17.841  0.00  0.00    +0.000 OA
BRANCH   6   9
ATOM      9  C   UNL     1       1.992   7.588  18.802  0.00  0.00    +0.000 A 
ATOM     10  C   UNL     1       1.771   8.614  17.875  0.00  0.00    +0.000 A 
ATOM     11  C   UNL     1       1.248   9.837  18.308  0.00  0.00    +0.000 A 
ATOM     12  C   UNL     1       0.938  10.028  19.655  0.00  0.00    +0.000 A 
ATOM     13  C   UNL     1       1.148   8.993  20.572  0.00  0.00    +0.000 A 
ATOM     14  C   UNL     1       1.707   7.784  20.158  0.00  0.00    +0.000 A 
ATOM     15  O   UNL     1       0.823   9.103  21.901  0.00  0.00    +0.000 OA
ATOM     16  C   UNL     1      -0.149  10.140  22.092  0.00  0.00    +0.000 C 
ATOM     17  C   UNL     1       0.313  11.422  21.419  0.00  0.00    +0.000 C 
ATOM     18  O   UNL     1       0.415  11.249  19.999  0.00  0.00    +0.000 OA
ENDBRANCH   6   9
ENDBRANCH   5   6
BRANCH   1  19
ATOM     19  C   UNL     1       5.082   3.807  18.393  0.00  0.00    +0.000 C 
ATOM     20  O   UNL     1       4.600   3.393  17.345  0.00  0.00    +0.000 OA
BRANCH  19  21
ATOM     21  O   UNL     1       6.397   4.096  18.574  0.00  0.00    +0.000 OA
BRANCH  21  22
ATOM     22  C   UNL     1       6.799   5.398  18.142  0.00  0.00    +0.000 C 
BRANCH  22  24
ATOM     23  N   UNL     1       8.237   5.536  20.141  0.00  0.00    +0.000 N 
ATOM     24  C   UNL     1       7.852   6.125  18.978  0.00  0.00    +0.000 C 
ATOM     25  O   UNL     1       8.322   7.213  18.645  0.00  0.00    +0.000 OA
ATOM     26  H   UNL     1       8.883   6.026  20.741  0.00  0.00    +0.000 HD
ATOM     27  H   UNL     1       7.736   4.740  20.540  0.00  0.00    +0.000 HD
ENDBRANCH  22  24
ENDBRANCH  21  22
ENDBRANCH  19  21
ENDBRANCH   1  19
BRANCH   3  28
ATOM     28  O   UNL     1       1.880   3.035  21.930  0.00  0.00    +0.000 OA
ATOM     29  H   UNL     1       2.716   2.676  22.275  0.00  0.00    +0.000 HD
ENDBRANCH   3  28
TORSDOF 7
ENDMDL
MODEL 8
REMARK VINA RESULT:      -7.3      1.708      3.628
REMARK  Name = 
REMARK  7 active torsions:
REMARK  status: ('A' for Active; 'I' for Inactive)
REMARK    1  A    between atoms: C_2  and  C_4
REMARK    2  A    between atoms: C_4  and  O_5
REMARK    3  A    between atoms: O_5  and  C_6
REMARK    4  A    between atoms: C_6  and  C_8
REMARK    5  A    between atoms: C_10  and  O_11
REMARK    6  A    between atoms: N_13  and  S_14
REMARK    7  A    between atoms: S_14  and  C_17
REMARK                            x       y       z     vdW  Elec       q    Type
REMARK                         _______ _______ _______ _____ _____    ______ ____
ROOT
ATOM      1  C   UNL     1       3.870   4.717  16.906  0.00  0.00    +0.000 C 
ATOM      2  C   UNL     1       5.393   4.590  17.047  0.00  0.00    +0.000 C 
ATOM      3  C   UNL     1       5.886   5.963  17.480  0.00  0.00    +0.000 C 
ATOM      4  C   UNL     1       4.650   6.868  17.484  0.00  0.00    +0.000 C 
ATOM      5  N   UNL     1       3.484   5.955  17.665  0.00  0.00    +0.000 NA
ENDROOT
BRANCH   5   6
ATOM      6  S   UNL     1       2.936   5.754  19.260  0.00  0.00    +0.000 S 
ATOM      7  O   UNL     1       1.858   4.788  19.247  0.00  0.00    +0.000 OA
ATOM      8  O   UNL     1       4.102   5.560  20.094  0.00  0.00    +0.000 OA
BRANCH   6   9
ATOM      9  C   UNL     1       2.180   7.307  19.693  0.00  0.00    +0.000 A 
ATOM     10  C   UNL     1       1.574   7.477  20.943  0.00  0.00    +0.000 A 
ATOM     11  C   UNL     1       0.889   8.664  21.224  0.00  0.00    +0.000 A 
ATOM     12  C   UNL     1       0.821   9.676  20.266  0.00  0.00    +0.000 A 
ATOM     13  C   UNL     1       1.443   9.505  19.025  0.00  0.00    +0.000 A 
ATOM     14  C   UNL     1       2.093   8.309  18.719  0.00  0.00    +0.000 A 
ATOM     15  O   UNL     1       1.450  10.479  18.059  0.00  0.00    +0.000 OA
ATOM     16  C   UNL     1       1.203  11.764  18.644  0.00  0.00    +0.000 C 
ATOM     17  C   UNL     1      -0.040  11.712  19.517  0.00  0.00    +0.000 C 
ATOM     18  O   UNL     1       0.145  10.816  20.622  0.00  0.00    +0.000 OA
ENDBRANCH   6   9
ENDBRANCH   5   6
BRANCH   1  19
ATOM     19  C   UNL     1       3.204   3.371  17.097  0.00  0.00    +0.000 C 
ATOM     20  O   UNL     1       2.052   3.142  16.745  0.00  0.00    +0.000 OA
BRANCH  19  21
ATOM     21  O   UNL     1       4.055   2.440  17.601  0.00  0.00    +0.000 OA
BRANCH  21  22
ATOM     22  C   UNL     1       3.551   1.692  18.709  0.00  0.00    +0.000 C 
BRANCH  22  24
ATOM     23  N   UNL     1       3.099   2.657  20.933  0.00  0.00    +0.000 N 
ATOM     24  C   UNL     1       4.021   2.096  20.106  0.00  0.00    +0.000 C 
ATOM     25  O   UNL     1       5.187   1.958  20.475  0.00  0.00    +0.000 OA
ATOM     26  H   UNL     1       3.398   2.990  21.837  0.00  0.00    +0.000 HD
ATOM     27  H   UNL     1       2.181   2.960  20.601  0.00  0.00    +0.000 HD
ENDBRANCH  22  24
ENDBRANCH  21  22
ENDBRANCH  19  21
ENDBRANCH   1  19
BRANCH   3  28
ATOM     28  O   UNL     1       6.905   6.442  16.612  0.00  0.00    +0.000 OA
ATOM     29  H   UNL     1       6.736   6.130  15.707  0.00  0.00    +0.000 HD
ENDBRANCH   3  28
TORSDOF 7
ENDMDL
MODEL 9
REMARK VINA RESULT:      -7.2      2.670      6.580
REMARK  Name = 
REMARK  7 active torsions:
REMARK  status: ('A' for Active; 'I' for Inactive)
REMARK    1  A    between atoms: C_2  and  C_4
REMARK    2  A    between atoms: C_4  and  O_5
REMARK    3  A    between atoms: O_5  and  C_6
REMARK    4  A    between atoms: C_6  and  C_8
REMARK    5  A    between atoms: C_10  and  O_11
REMARK    6  A    between atoms: N_13  and  S_14
REMARK    7  A    between atoms: S_14  and  C_17
REMARK                            x       y       z     vdW  Elec       q    Type
REMARK                         _______ _______ _______ _____ _____    ______ ____
ROOT
ATOM      1  C   UNL     1       1.774   4.685  19.297  0.00  0.00    +0.000 C 
ATOM      2  C   UNL     1       1.075   3.399  19.757  0.00  0.00    +0.000 C 
ATOM      3  C   UNL     1       1.437   2.339  18.728  0.00  0.00    +0.000 C 
ATOM      4  C   UNL     1       2.252   3.062  17.652  0.00  0.00    +0.000 C 
ATOM      5  N   UNL     1       2.839   4.257  18.328  0.00  0.00    +0.000 NA
ENDROOT
BRANCH   5   6
ATOM      6  S   UNL     1       4.415   4.071  18.932  0.00  0.00    +0.000 S 
ATOM      7  O   UNL     1       4.692   5.182  19.817  0.00  0.00    +0.000 OA
ATOM      8  O   UNL     1       4.542   2.704  19.388  0.00  0.00    +0.000 OA
BRANCH   6   9
ATOM      9  C   UNL     1       5.484   4.302  17.527  0.00  0.00    +0.000 A 
ATOM     10  C   UNL     1       6.757   4.860  17.688  0.00  0.00    +0.000 A 
ATOM     11  C   UNL     1       7.539   5.137  16.561  0.00  0.00    +0.000 A 
ATOM     12  C   UNL     1       7.054   4.847  15.285  0.00  0.00    +0.000 A 
ATOM     13  C   UNL     1       5.787   4.275  15.134  0.00  0.00    +0.000 A 
ATOM     14  C   UNL     1       4.983   4.033  16.247  0.00  0.00    +0.000 A 
ATOM     15  O   UNL     1       5.273   3.926  13.910  0.00  0.00    +0.000 OA
ATOM     16  C   UNL     1       6.329   3.766  12.953  0.00  0.00    +0.000 C 
ATOM     17  C   UNL     1       7.234   4.986  12.963  0.00  0.00    +0.000 C 
ATOM     18  O   UNL     1       7.886   5.133  14.232  0.00  0.00    +0.000 OA
ENDBRANCH   6   9
ENDBRANCH   5   6
BRANCH   1  19
ATOM     19  C   UNL     1       2.027   5.603  20.473  0.00  0.00    +0.000 C 
ATOM     20  O   UNL     1       2.121   5.200  21.627  0.00  0.00    +0.000 OA
BRANCH  19  21
ATOM     21  O   UNL     1       2.234   6.890  20.088  0.00  0.00    +0.000 OA
BRANCH  21  22
ATOM     22  C   UNL     1       1.720   7.230  18.799  0.00  0.00    +0.000 C 
BRANCH  22  24
ATOM     23  N   UNL     1       3.806   7.347  17.488  0.00  0.00    +0.000 N 
ATOM     24  C   UNL     1       2.651   7.972  17.841  0.00  0.00    +0.000 C 
ATOM     25  O   UNL     1       2.399   9.101  17.420  0.00  0.00    +0.000 OA
ATOM     26  H   UNL     1       4.466   7.841  16.907  0.00  0.00    +0.000 HD
ATOM     27  H   UNL     1       4.135   6.504  17.961  0.00  0.00    +0.000 HD
ENDBRANCH  22  24
ENDBRANCH  21  22
ENDBRANCH  19  21
ENDBRANCH   1  19
BRANCH   3  28
ATOM     28  O   UNL     1       0.273   1.717  18.197  0.00  0.00    +0.000 OA
ATOM     29  H   UNL     1       0.183   1.942  17.256  0.00  0.00    +0.000 HD
ENDBRANCH   3  28
TORSDOF 7
ENDMDL
