MODEL 1
REMARK VINA RESULT:      -8.0      0.000      0.000
REMARK  Name = 
REMARK  11 active torsions:
REMARK  status: ('A' for Active; 'I' for Inactive)
REMARK    1  A    between atoms: C_1  and  C_2
REMARK    2  A    between atoms: C_5  and  N_6
REMARK    3  A    between atoms: C_7  and  C_9
REMARK    4  A    between atoms: C_13  and  C_14
REMARK    5  A    between atoms: N_16  and  C_17
REMARK    6  A    between atoms: C_17  and  C_18
REMARK    7  A    between atoms: C_18  and  O_20
REMARK    8  A    between atoms: O_20  and  C_21
REMARK    9  A    between atoms: C_21  and  C_22
REMARK   10  A    between atoms: C_21  and  C_23
REMARK   11  A    between atoms: C_21  and  C_24
REMARK                            x       y       z     vdW  Elec       q    Type
REMARK                         _______ _______ _______ _____ _____    ______ ____
ROOT
ATOM      1  C   UNL     1       3.167   3.572  19.864  0.00  0.00    +0.000 A 
ATOM      2  N   UNL     1       3.379   2.829  21.004  0.00  0.00    +0.000 N 
ATOM      3  C   UNL     1       4.432   1.992  20.781  0.00  0.00    +0.000 A 
ATOM      4  N   UNL     1       4.920   2.141  19.574  0.00  0.00    +0.000 NA
ATOM      5  C   UNL     1       4.121   3.107  18.969  0.00  0.00    +0.000 A 
ATOM      6  H   UNL     1       2.908   2.949  21.888  0.00  0.00    +0.000 HD
ENDROOT
BRANCH   1   8
ATOM      7  N   UNL     1       2.875   5.933  19.792  0.00  0.00    +0.000 N 
ATOM      8  C   UNL     1       2.260   4.691  19.723  0.00  0.00    +0.000 C 
ATOM      9  O   UNL     1       1.071   4.509  19.498  0.00  0.00    +0.000 OA
ATOM     10  H   UNL     1       3.848   5.963  20.060  0.00  0.00    +0.000 HD
BRANCH   7  15
ATOM     11  C   UNL     1       0.445  11.024  18.734  0.00  0.00    +0.000 C 
ATOM     12  C   UNL     1       1.069   9.691  19.020  0.00  0.00    +0.000 A 
ATOM     13  C   UNL     1       0.978   9.127  20.293  0.00  0.00    +0.000 A 
ATOM     14  C   UNL     1       1.566   7.889  20.567  0.00  0.00    +0.000 A 
ATOM     15  C   UNL     1       2.261   7.191  19.580  0.00  0.00    +0.000 A 
ATOM     16  C   UNL     1       2.353   7.757  18.302  0.00  0.00    +0.000 A 
ATOM     17  C   UNL     1       1.758   8.994  18.023  0.00  0.00    +0.000 A 
ENDBRANCH   7  15
ENDBRANCH   1   8
BRANCH   5  18
ATOM     18  C   UNL     1       4.339   3.545  17.590  0.00  0.00    +0.000 C 
ATOM     19  O   UNL     1       3.437   3.802  16.799  0.00  0.00    +0.000 OA
ATOM     20  N   UNL     1       5.672   3.614  17.259  0.00  0.00    +0.000 N 
ATOM     21  H   UNL     1       6.354   3.329  17.957  0.00  0.00    +0.000 HD
BRANCH  20  22
ATOM     22  C   UNL     1       6.100   4.075  15.958  0.00  0.00    +0.000 C 
BRANCH  22  23
ATOM     23  C   UNL     1       6.223   5.586  15.817  0.00  0.00    +0.000 C 
ATOM     24  O   UNL     1       5.387   6.263  15.229  0.00  0.00    +0.000 OA
BRANCH  23  25
ATOM     25  O   UNL     1       7.358   6.064  16.402  0.00  0.00    +0.000 OA
BRANCH  25  26
ATOM     26  C   UNL     1       7.277   6.790  17.658  0.00  0.00    +0.000 C 
ATOM     27  C   UNL     1       7.995   8.143  17.568  0.00  0.00    +0.000 C 
ATOM     28  C   UNL     1       5.778   7.053  17.885  0.00  0.00    +0.000 C 
ATOM     29  C   UNL     1       7.792   5.936  18.823  0.00  0.00    +0.000 C 
ENDBRANCH  25  26
ENDBRANCH  23  25
ENDBRANCH  22  23
ENDBRANCH  20  22
ENDBRANCH   5  18
TORSDOF 7
ENDMDL
MODEL 2
REMARK VINA RESULT:      -7.8      1.867      4.909
REMARK  Name = 
REMARK  11 active torsions:
REMARK  status: ('A' for Active; 'I' for Inactive)
REMARK    1  A    between atoms: C_1  and  C_2
REMARK    2  A    between atoms: C_5  and  N_6
REMARK    3  A    between atoms: C_7  and  C_9
REMARK    4  A    between atoms: C_13  and  C_14
REMARK    5  A    between atoms: N_16  and  C_17
REMARK    6  A    between atoms: C_17  and  C_18
REMARK    7  A    between atoms: C_18  and  O_20
REMARK    8  A    between atoms: O_20  and  C_21
REMARK    9  A    between atoms: C_21  and  C_22
REMARK   10  A    between atoms: C_21  and  C_23
REMARK   11  A    between atoms: C_21  and  C_24
REMARK                            x       y       z     vdW  Elec       q    Type
REMARK                         _______ _______ _______ _____ _____    ______ ____
ROOT
ATOM      1  C   UNL     1       5.443   5.844  16.436  0.00  0.00    +0.000 A 
ATOM      2  N   UNL     1       5.625   5.791  15.072  0.00  0.00    +0.000 N 
ATOM      3  C   UNL     1       6.048   4.538  14.742  0.00  0.00    +0.000 A 
ATOM      4  N   UNL     1       6.154   3.771  15.800  0.00  0.00    +0.000 NA
ATOM      5  C   UNL     1       5.809   4.579  16.879  0.00  0.00    +0.000 A 
ATOM      6  H   UNL     1       5.389   6.518  14.412  0.00  0.00    +0.000 HD
ENDROOT
BRANCH   1   8
ATOM      7  N   UNL     1       3.491   6.769  17.434  0.00  0.00    +0.000 N 
ATOM      8  C   UNL     1       4.846   6.930  17.183  0.00  0.00    +0.000 C 
ATOM      9  O   UNL     1       5.531   7.857  17.595  0.00  0.00    +0.000 OA
ATOM     10  H   UNL     1       3.014   6.005  16.977  0.00  0.00    +0.000 HD
BRANCH   7  15
ATOM     11  C   UNL     1       0.210  10.048  20.813  0.00  0.00    +0.000 C 
ATOM     12  C   UNL     1       1.072   9.204  19.923  0.00  0.00    +0.000 A 
ATOM     13  C   UNL     1       1.327   9.595  18.608  0.00  0.00    +0.000 A 
ATOM     14  C   UNL     1       2.122   8.807  17.773  0.00  0.00    +0.000 A 
ATOM     15  C   UNL     1       2.675   7.610  18.228  0.00  0.00    +0.000 A 
ATOM     16  C   UNL     1       2.418   7.216  19.547  0.00  0.00    +0.000 A 
ATOM     17  C   UNL     1       1.627   8.009  20.390  0.00  0.00    +0.000 A 
ENDBRANCH   7  15
ENDBRANCH   1   8
BRANCH   5  18
ATOM     18  C   UNL     1       5.818   4.085  18.256  0.00  0.00    +0.000 C 
ATOM     19  O   UNL     1       6.533   4.538  19.145  0.00  0.00    +0.000 OA
ATOM     20  N   UNL     1       4.955   3.032  18.448  0.00  0.00    +0.000 N 
ATOM     21  H   UNL     1       4.441   2.682  17.645  0.00  0.00    +0.000 HD
BRANCH  20  22
ATOM     22  C   UNL     1       4.780   2.434  19.752  0.00  0.00    +0.000 C 
BRANCH  22  23
ATOM     23  C   UNL     1       3.528   2.872  20.501  0.00  0.00    +0.000 C 
ATOM     24  O   UNL     1       3.221   2.416  21.595  0.00  0.00    +0.000 OA
BRANCH  23  25
ATOM     25  O   UNL     1       2.814   3.801  19.802  0.00  0.00    +0.000 OA
BRANCH  25  26
ATOM     26  C   UNL     1       1.544   3.436  19.197  0.00  0.00    +0.000 C 
ATOM     27  C   UNL     1       1.400   1.913  19.080  0.00  0.00    +0.000 C 
ATOM     28  C   UNL     1       0.465   3.950  20.165  0.00  0.00    +0.000 C 
ATOM     29  C   UNL     1       1.351   4.142  17.850  0.00  0.00    +0.000 C 
ENDBRANCH  25  26
ENDBRANCH  23  25
ENDBRANCH  22  23
ENDBRANCH  20  22
ENDBRANCH   5  18
TORSDOF 7
ENDMDL
MODEL 3
REMARK VINA RESULT:      -7.7      1.305      2.393
REMARK  Name = 
REMARK  11 active torsions:
REMARK  status: ('A' for Active; 'I' for Inactive)
REMARK    1  A    between atoms: C_1  and  C_2
REMARK    2  A    between atoms: C_5  and  N_6
REMARK    3  A    between atoms: C_7  and  C_9
REMARK    4  A    between atoms: C_13  and  C_14
REMARK    5  A    between atoms: N_16  and  C_17
REMARK    6  A    between atoms: C_17  and  C_18
REMARK    7  A    between atoms: C_18  and  O_20
REMARK    8  A    between atoms: O_20  and  C_21
REMARK    9  A    between atoms: C_21  and  C_22
REMARK   10  A    between atoms: C_21  and  C_23
REMARK   11  A    between atoms: C_21  and  C_24
REMARK                            x       y       z     vdW  Elec       q    Type
REMARK                         _______ _______ _______ _____ _____    ______ ____
ROOT
ATOM      1  C   UNL     1       2.750   3.838  20.460  0.00  0.00    +0.000 A 
ATOM      2  N   UNL     1       2.605   2.727  21.260  0.00  0.00    +0.000 N 
ATOM      3  C   UNL     1       3.729   1.964  21.145  0.00  0.00    +0.000 A 
ATOM      4  N   UNL     1       4.596   2.504  20.325  0.00  0.00    +0.000 NA
ATOM      5  C   UNL     1       3.990   3.667  19.858  0.00  0.00    +0.000 A 
ATOM      6  H   UNL     1       1.845   2.551  21.902  0.00  0.00    +0.000 HD
ENDROOT
BRANCH   1   8
ATOM      7  N   UNL     1       2.524   6.200  20.283  0.00  0.00    +0.000 N 
ATOM      8  C   UNL     1       1.868   4.985  20.412  0.00  0.00    +0.000 C 
ATOM      9  O   UNL     1       0.653   4.840  20.419  0.00  0.00    +0.000 OA
ATOM     10  H   UNL     1       3.531   6.204  20.367  0.00  0.00    +0.000 HD
BRANCH   7  15
ATOM     11  C   UNL     1       0.033  11.344  19.751  0.00  0.00    +0.000 C 
ATOM     12  C   UNL     1       0.694  10.004  19.880  0.00  0.00    +0.000 A 
ATOM     13  C   UNL     1       1.324   9.418  18.781  0.00  0.00    +0.000 A 
ATOM     14  C   UNL     1       1.933   8.165  18.894  0.00  0.00    +0.000 A 
ATOM     15  C   UNL     1       1.922   7.468  20.102  0.00  0.00    +0.000 A 
ATOM     16  C   UNL     1       1.289   8.056  21.205  0.00  0.00    +0.000 A 
ATOM     17  C   UNL     1       0.684   9.315  21.097  0.00  0.00    +0.000 A 
ENDBRANCH   7  15
ENDBRANCH   1   8
BRANCH   5  18
ATOM     18  C   UNL     1       4.644   4.554  18.897  0.00  0.00    +0.000 C 
ATOM     19  O   UNL     1       4.088   5.033  17.914  0.00  0.00    +0.000 OA
ATOM     20  N   UNL     1       5.968   4.776  19.194  0.00  0.00    +0.000 N 
ATOM     21  H   UNL     1       6.366   4.295  19.996  0.00  0.00    +0.000 HD
BRANCH  20  22
ATOM     22  C   UNL     1       6.779   5.665  18.393  0.00  0.00    +0.000 C 
BRANCH  22  23
ATOM     23  C   UNL     1       7.646   4.979  17.345  0.00  0.00    +0.000 C 
ATOM     24  O   UNL     1       8.373   4.030  17.611  0.00  0.00    +0.000 OA
BRANCH  23  25
ATOM     25  O   UNL     1       7.515   5.557  16.116  0.00  0.00    +0.000 OA
BRANCH  25  26
ATOM     26  C   UNL     1       6.521   5.059  15.182  0.00  0.00    +0.000 C 
ATOM     27  C   UNL     1       5.330   6.019  15.070  0.00  0.00    +0.000 C 
ATOM     28  C   UNL     1       7.229   5.006  13.817  0.00  0.00    +0.000 C 
ATOM     29  C   UNL     1       6.085   3.634  15.547  0.00  0.00    +0.000 C 
ENDBRANCH  25  26
ENDBRANCH  23  25
ENDBRANCH  22  23
ENDBRANCH  20  22
ENDBRANCH   5  18
TORSDOF 7
ENDMDL
MODEL 4
REMARK VINA RESULT:      -7.6      1.889      4.977
REMARK  Name = 
REMARK  11 active torsions:
REMARK  status: ('A' for Active; 'I' for Inactive)
REMARK    1  A    between atoms: C_1  and  C_2
REMARK    2  A    between atoms: C_5  and  N_6
REMARK    3  A    between atoms: C_7  and  C_9
REMARK    4  A    between atoms: C_13  and  C_14
REMARK    5  A    between atoms: N_16  and  C_17
REMARK    6  A    between atoms: C_17  and  C_18
REMARK    7  A    between atoms: C_18  and  O_20
REMARK    8  A    between atoms: O_20  and  C_21
REMARK    9  A    between atoms: C_21  and  C_22
REMARK   10  A    between atoms: C_21  and  C_23
REMARK   11  A    between atoms: C_21  and  C_24
REMARK                            x       y       z     vdW  Elec       q    Type
REMARK                         _______ _______ _______ _____ _____    ______ ____
ROOT
ATOM      1  C   UNL     1       5.366   5.786  16.208  0.00  0.00    +0.000 A 
ATOM      2  N   UNL     1       6.230   5.977  15.153  0.00  0.00    +0.000 N 
ATOM      3  C   UNL     1       6.336   4.805  14.465  0.00  0.00    +0.000 A 
ATOM      4  N   UNL     1       5.597   3.863  15.000  0.00  0.00    +0.000 NA
ATOM      5  C   UNL     1       5.002   4.448  16.114  0.00  0.00    +0.000 A 
ATOM      6  H   UNL     1       6.639   6.856  14.872  0.00  0.00    +0.000 HD
ENDROOT
BRANCH   1   8
ATOM      7  N   UNL     1       3.462   6.810  17.202  0.00  0.00    +0.000 N 
ATOM      8  C   UNL     1       4.845   6.807  17.090  0.00  0.00    +0.000 C 
ATOM      9  O   UNL     1       5.601   7.540  17.714  0.00  0.00    +0.000 OA
ATOM     10  H   UNL     1       2.937   6.212  16.580  0.00  0.00    +0.000 HD
BRANCH   7  15
ATOM     11  C   UNL     1       0.361   9.950  20.871  0.00  0.00    +0.000 C 
ATOM     12  C   UNL     1       1.175   9.142  19.906  0.00  0.00    +0.000 A 
ATOM     13  C   UNL     1       1.357   9.582  18.594  0.00  0.00    +0.000 A 
ATOM     14  C   UNL     1       2.108   8.827  17.688  0.00  0.00    +0.000 A 
ATOM     15  C   UNL     1       2.688   7.617  18.069  0.00  0.00    +0.000 A 
ATOM     16  C   UNL     1       2.504   7.176  19.386  0.00  0.00    +0.000 A 
ATOM     17  C   UNL     1       1.759   7.934  20.298  0.00  0.00    +0.000 A 
ENDBRANCH   7  15
ENDBRANCH   1   8
BRANCH   5  18
ATOM     18  C   UNL     1       4.103   3.704  16.996  0.00  0.00    +0.000 C 
ATOM     19  O   UNL     1       2.888   3.872  17.041  0.00  0.00    +0.000 OA
ATOM     20  N   UNL     1       4.768   2.809  17.801  0.00  0.00    +0.000 N 
ATOM     21  H   UNL     1       5.782   2.774  17.741  0.00  0.00    +0.000 HD
BRANCH  20  22
ATOM     22  C   UNL     1       4.054   1.942  18.710  0.00  0.00    +0.000 C 
BRANCH  22  23
ATOM     23  C   UNL     1       4.051   2.393  20.165  0.00  0.00    +0.000 C 
ATOM     24  O   UNL     1       4.789   1.899  21.008  0.00  0.00    +0.000 OA
BRANCH  23  25
ATOM     25  O   UNL     1       3.136   3.378  20.393  0.00  0.00    +0.000 OA
BRANCH  25  26
ATOM     26  C   UNL     1       1.723   3.050  20.479  0.00  0.00    +0.000 C 
ATOM     27  C   UNL     1       1.332   1.989  19.442  0.00  0.00    +0.000 C 
ATOM     28  C   UNL     1       1.525   2.451  21.882  0.00  0.00    +0.000 C 
ATOM     29  C   UNL     1       0.856   4.311  20.373  0.00  0.00    +0.000 C 
ENDBRANCH  25  26
ENDBRANCH  23  25
ENDBRANCH  22  23
ENDBRANCH  20  22
ENDBRANCH   5  18
TORSDOF 7
ENDMDL
MODEL 5
REMARK VINA RESULT:      -7.6      1.852      4.911
REMARK  Name = 
REMARK  11 active torsions:
REMARK  status: ('A' for Active; 'I' for Inactive)
REMARK    1  A    between atoms: C_1  and  C_2
REMARK    2  A    between atoms: C_5  and  N_6
REMARK    3  A    between atoms: C_7  and  C_9
REMARK    4  A    between atoms: C_13  and  C_14
REMARK    5  A    between atoms: N_16  and  C_17
REMARK    6  A    between atoms: C_17  and  C_18
REMARK    7  A    between atoms: C_18  and  O_20
REMARK    8  A    between atoms: O_20  and  C_21
REMARK    9  A    between atoms: C_21  and  C_22
REMARK   10  A    between atoms: C_21  and  C_23
REMARK   11  A    between atoms: C_21  and  C_24
REMARK                            x       y       z     vdW  Elec       q    Type
REMARK                         _______ _______ _______ _____ _____    ______ ____
ROOT
ATOM      1  C   UNL     1       5.493   5.730  16.228  0.00  0.00    +0.000 A 
ATOM      2  N   UNL     1       6.393   5.935  15.207  0.00  0.00    +0.000 N 
ATOM      3  C   UNL     1       6.506   4.778  14.494  0.00  0.00    +0.000 A 
ATOM      4  N   UNL     1       5.739   3.834  14.982  0.00  0.00    +0.000 NA
ATOM      5  C   UNL     1       5.116   4.399  16.091  0.00  0.00    +0.000 A 
ATOM      6  H   UNL     1       6.822   6.815  14.959  0.00  0.00    +0.000 HD
ENDROOT
BRANCH   1   8
ATOM      7  N   UNL     1       3.576   6.709  17.242  0.00  0.00    +0.000 N 
ATOM      8  C   UNL     1       4.957   6.737  17.118  0.00  0.00    +0.000 C 
ATOM      9  O   UNL     1       5.702   7.484  17.739  0.00  0.00    +0.000 OA
ATOM     10  H   UNL     1       3.059   6.102  16.621  0.00  0.00    +0.000 HD
BRANCH   7  15
ATOM     11  C   UNL     1       0.352  10.030  20.635  0.00  0.00    +0.000 C 
ATOM     12  C   UNL     1       1.190   9.151  19.757  0.00  0.00    +0.000 A 
ATOM     13  C   UNL     1       1.766   7.986  20.266  0.00  0.00    +0.000 A 
ATOM     14  C   UNL     1       2.556   7.168  19.453  0.00  0.00    +0.000 A 
ATOM     15  C   UNL     1       2.791   7.496  18.118  0.00  0.00    +0.000 A 
ATOM     16  C   UNL     1       2.213   8.666  17.607  0.00  0.00    +0.000 A 
ATOM     17  C   UNL     1       1.415   9.483  18.418  0.00  0.00    +0.000 A 
ENDBRANCH   7  15
ENDBRANCH   1   8
BRANCH   5  18
ATOM     18  C   UNL     1       4.180   3.647  16.926  0.00  0.00    +0.000 C 
ATOM     19  O   UNL     1       2.960   3.758  16.864  0.00  0.00    +0.000 OA
ATOM     20  N   UNL     1       4.815   2.815  17.818  0.00  0.00    +0.000 N 
ATOM     21  H   UNL     1       5.831   2.825  17.843  0.00  0.00    +0.000 HD
BRANCH  20  22
ATOM     22  C   UNL     1       4.066   1.948  18.700  0.00  0.00    +0.000 C 
BRANCH  22  23
ATOM     23  C   UNL     1       3.867   2.482  20.112  0.00  0.00    +0.000 C 
ATOM     24  O   UNL     1       4.474   2.034  21.077  0.00  0.00    +0.000 OA
BRANCH  23  25
ATOM     25  O   UNL     1       2.941   3.482  20.155  0.00  0.00    +0.000 OA
BRANCH  25  26
ATOM     26  C   UNL     1       1.549   3.172  20.436  0.00  0.00    +0.000 C 
ATOM     27  C   UNL     1       1.398   2.465  21.789  0.00  0.00    +0.000 C 
ATOM     28  C   UNL     1       0.833   4.530  20.517  0.00  0.00    +0.000 C 
ATOM     29  C   UNL     1       0.921   2.370  19.290  0.00  0.00    +0.000 C 
ENDBRANCH  25  26
ENDBRANCH  23  25
ENDBRANCH  22  23
ENDBRANCH  20  22
ENDBRANCH   5  18
TORSDOF 7
ENDMDL
MODEL 6
REMARK VINA RESULT:      -7.5      1.924      4.817
REMARK  Name = 
REMARK  11 active torsions:
REMARK  status: ('A' for Active; 'I' for Inactive)
REMARK    1  A    between atoms: C_1  and  C_2
REMARK    2  A    between atoms: C_5  and  N_6
REMARK    3  A    between atoms: C_7  and  C_9
REMARK    4  A    between atoms: C_13  and  C_14
REMARK    5  A    between atoms: N_16  and  C_17
REMARK    6  A    between atoms: C_17  and  C_18
REMARK    7  A    between atoms: C_18  and  O_20
REMARK    8  A    between atoms: O_20  and  C_21
REMARK    9  A    between atoms: C_21  and  C_22
REMARK   10  A    between atoms: C_21  and  C_23
REMARK   11  A    between atoms: C_21  and  C_24
REMARK                            x       y       z     vdW  Elec       q    Type
REMARK                         _______ _______ _______ _____ _____    ______ ____
ROOT
ATOM      1  C   UNL     1       5.373   5.888  16.571  0.00  0.00    +0.000 A 
ATOM      2  N   UNL     1       5.570   5.769  15.214  0.00  0.00    +0.000 N 
ATOM      3  C   UNL     1       6.011   4.505  14.952  0.00  0.00    +0.000 A 
ATOM      4  N   UNL     1       6.113   3.794  16.049  0.00  0.00    +0.000 NA
ATOM      5  C   UNL     1       5.746   4.651  17.082  0.00  0.00    +0.000 A 
ATOM      6  H   UNL     1       5.334   6.459  14.516  0.00  0.00    +0.000 HD
ENDROOT
BRANCH   1   8
ATOM      7  N   UNL     1       3.413   6.816  17.553  0.00  0.00    +0.000 N 
ATOM      8  C   UNL     1       4.755   7.004  17.257  0.00  0.00    +0.000 C 
ATOM      9  O   UNL     1       5.417   7.979  17.585  0.00  0.00    +0.000 OA
ATOM     10  H   UNL     1       2.953   6.006  17.163  0.00  0.00    +0.000 HD
BRANCH   7  15
ATOM     11  C   UNL     1       0.032  10.444  20.441  0.00  0.00    +0.000 C 
ATOM     12  C   UNL     1       0.910   9.485  19.695  0.00  0.00    +0.000 A 
ATOM     13  C   UNL     1       1.440   8.365  20.338  0.00  0.00    +0.000 A 
ATOM     14  C   UNL     1       2.266   7.473  19.649  0.00  0.00    +0.000 A 
ATOM     15  C   UNL     1       2.587   7.682  18.307  0.00  0.00    +0.000 A 
ATOM     16  C   UNL     1       2.056   8.807  17.663  0.00  0.00    +0.000 A 
ATOM     17  C   UNL     1       1.221   9.698  18.349  0.00  0.00    +0.000 A 
ENDBRANCH   7  15
ENDBRANCH   1   8
BRANCH   5  18
ATOM     18  C   UNL     1       5.745   4.228  18.482  0.00  0.00    +0.000 C 
ATOM     19  O   UNL     1       6.336   4.818  19.380  0.00  0.00    +0.000 OA
ATOM     20  N   UNL     1       5.030   3.072  18.687  0.00  0.00    +0.000 N 
ATOM     21  H   UNL     1       4.617   2.614  17.878  0.00  0.00    +0.000 HD
BRANCH  20  22
ATOM     22  C   UNL     1       4.865   2.514  20.010  0.00  0.00    +0.000 C 
BRANCH  22  23
ATOM     23  C   UNL     1       3.424   2.407  20.490  0.00  0.00    +0.000 C 
ATOM     24  O   UNL     1       3.112   2.526  21.669  0.00  0.00    +0.000 OA
BRANCH  23  25
ATOM     25  O   UNL     1       2.560   2.156  19.465  0.00  0.00    +0.000 OA
BRANCH  25  26
ATOM     26  C   UNL     1       1.518   3.115  19.141  0.00  0.00    +0.000 C 
ATOM     27  C   UNL     1       1.869   3.916  17.881  0.00  0.00    +0.000 C 
ATOM     28  C   UNL     1       0.264   2.276  18.847  0.00  0.00    +0.000 C 
ATOM     29  C   UNL     1       1.214   4.024  20.339  0.00  0.00    +0.000 C 
ENDBRANCH  25  26
ENDBRANCH  23  25
ENDBRANCH  22  23
ENDBRANCH  20  22
ENDBRANCH   5  18
TORSDOF 7
ENDMDL
MODEL 7
REMARK VINA RESULT:      -7.4      1.372      2.245
REMARK  Name = 
REMARK  11 active torsions:
REMARK  status: ('A' for Active; 'I' for Inactive)
REMARK    1  A    between atoms: C_1  and  C_2
REMARK    2  A    between atoms: C_5  and  N_6
REMARK    3  A    between atoms: C_7  and  C_9
REMARK    4  A    between atoms: C_13  and  C_14
REMARK    5  A    between atoms: N_16  and  C_17
REMARK    6  A    between atoms: C_17  and  C_18
REMARK    7  A    between atoms: C_18  and  O_20
REMARK    8  A    between atoms: O_20  and  C_21
REMARK    9  A    between atoms: C_21  and  C_22
REMARK   10  A    between atoms: C_21  and  C_23
REMARK   11  A    between atoms: C_21  and  C_24
REMARK                            x       y       z     vdW  Elec       q    Type
REMARK                         _______ _______ _______ _____ _____    ______ ____
ROOT
ATOM      1  C   UNL     1       3.188   3.829  19.571  0.00  0.00    +0.000 A 
ATOM      2  N   UNL     1       2.673   2.678  20.123  0.00  0.00    +0.000 N 
ATOM      3  C   UNL     1       3.710   1.907  20.558  0.00  0.00    +0.000 A 
ATOM      4  N   UNL     1       4.866   2.480  20.326  0.00  0.00    +0.000 NA
ATOM      5  C   UNL     1       4.565   3.675  19.679  0.00  0.00    +0.000 A 
ATOM      6  H   UNL     1       1.695   2.478  20.276  0.00  0.00    +0.000 HD
ENDROOT
BRANCH   1   8
ATOM      7  N   UNL     1       2.630   6.115  19.927  0.00  0.00    +0.000 N 
ATOM      8  C   UNL     1       2.437   4.989  19.140  0.00  0.00    +0.000 C 
ATOM      9  O   UNL     1       1.754   4.950  18.126  0.00  0.00    +0.000 OA
ATOM     10  H   UNL     1       3.153   6.007  20.784  0.00  0.00    +0.000 HD
BRANCH   7  15
ATOM     11  C   UNL     1       0.619  11.361  18.752  0.00  0.00    +0.000 C 
ATOM     12  C   UNL     1       1.132   9.988  19.068  0.00  0.00    +0.000 A 
ATOM     13  C   UNL     1       0.887   9.410  20.315  0.00  0.00    +0.000 A 
ATOM     14  C   UNL     1       1.372   8.135  20.616  0.00  0.00    +0.000 A 
ATOM     15  C   UNL     1       2.116   7.411  19.685  0.00  0.00    +0.000 A 
ATOM     16  C   UNL     1       2.363   7.991  18.433  0.00  0.00    +0.000 A 
ATOM     17  C   UNL     1       1.871   9.266  18.125  0.00  0.00    +0.000 A 
ENDBRANCH   7  15
ENDBRANCH   1   8
BRANCH   5  18
ATOM     18  C   UNL     1       5.604   4.605  19.237  0.00  0.00    +0.000 C 
ATOM     19  O   UNL     1       5.626   5.798  19.521  0.00  0.00    +0.000 OA
ATOM     20  N   UNL     1       6.547   4.005  18.437  0.00  0.00    +0.000 N 
ATOM     21  H   UNL     1       6.423   3.023  18.203  0.00  0.00    +0.000 HD
BRANCH  20  22
ATOM     22  C   UNL     1       7.686   4.742  17.936  0.00  0.00    +0.000 C 
BRANCH  22  23
ATOM     23  C   UNL     1       7.470   5.427  16.593  0.00  0.00    +0.000 C 
ATOM     24  O   UNL     1       7.650   6.628  16.430  0.00  0.00    +0.000 OA
BRANCH  23  25
ATOM     25  O   UNL     1       7.051   4.552  15.634  0.00  0.00    +0.000 OA
BRANCH  25  26
ATOM     26  C   UNL     1       5.690   4.627  15.129  0.00  0.00    +0.000 C 
ATOM     27  C   UNL     1       5.171   6.070  15.135  0.00  0.00    +0.000 C 
ATOM     28  C   UNL     1       5.766   4.146  13.670  0.00  0.00    +0.000 C 
ATOM     29  C   UNL     1       4.765   3.674  15.896  0.00  0.00    +0.000 C 
ENDBRANCH  25  26
ENDBRANCH  23  25
ENDBRANCH  22  23
ENDBRANCH  20  22
ENDBRANCH   5  18
TORSDOF 7
ENDMDL
MODEL 8
REMARK VINA RESULT:      -7.4      2.652      6.566
REMARK  Name = 
REMARK  11 active torsions:
REMARK  status: ('A' for Active; 'I' for Inactive)
REMARK    1  A    between atoms: C_1  and  C_2
REMARK    2  A    between atoms: C_5  and  N_6
REMARK    3  A    between atoms: C_7  and  C_9
REMARK    4  A    between atoms: C_13  and  C_14
REMARK    5  A    between atoms: N_16  and  C_17
REMARK    6  A    between atoms: C_17  and  C_18
REMARK    7  A    between atoms: C_18  and  O_20
REMARK    8  A    between atoms: O_20  and  C_21
REMARK    9  A    between atoms: C_21  and  C_22
REMARK   10  A    between atoms: C_21  and  C_23
REMARK   11  A    between atoms: C_21  and  C_24
REMARK                            x       y       z     vdW  Elec       q    Type
REMARK                         _______ _______ _______ _____ _____    ______ ____
ROOT
ATOM      1  C   UNL     1       6.917   6.248  16.831  0.00  0.00    +0.000 A 
ATOM      2  N   UNL     1       7.432   5.562  15.754  0.00  0.00    +0.000 N 
ATOM      3  C   UNL     1       6.396   5.014  15.057  0.00  0.00    +0.000 A 
ATOM      4  N   UNL     1       5.241   5.297  15.609  0.00  0.00    +0.000 NA
ATOM      5  C   UNL     1       5.546   6.046  16.742  0.00  0.00    +0.000 A 
ATOM      6  H   UNL     1       8.399   5.548  15.464  0.00  0.00    +0.000 HD
ENDROOT
BRANCH   1   8
ATOM      7  N   UNL     1       7.787   8.416  17.283  0.00  0.00    +0.000 N 
ATOM      8  C   UNL     1       7.651   7.111  17.732  0.00  0.00    +0.000 C 
ATOM      9  O   UNL     1       8.040   6.697  18.816  0.00  0.00    +0.000 OA
ATOM     10  H   UNL     1       7.496   8.623  16.338  0.00  0.00    +0.000 HD
BRANCH   7  15
ATOM     11  C   UNL     1      10.022  12.933  20.029  0.00  0.00    +0.000 C 
ATOM     12  C   UNL     1       9.436  11.747  19.325  0.00  0.00    +0.000 A 
ATOM     13  C   UNL     1       9.553  10.469  19.875  0.00  0.00    +0.000 A 
ATOM     14  C   UNL     1       9.016   9.359  19.217  0.00  0.00    +0.000 A 
ATOM     15  C   UNL     1       8.356   9.498  17.996  0.00  0.00    +0.000 A 
ATOM     16  C   UNL     1       8.240  10.780  17.443  0.00  0.00    +0.000 A 
ATOM     17  C   UNL     1       8.770  11.896  18.104  0.00  0.00    +0.000 A 
ENDBRANCH   7  15
ENDBRANCH   1   8
BRANCH   5  18
ATOM     18  C   UNL     1       4.510   6.547  17.646  0.00  0.00    +0.000 C 
ATOM     19  O   UNL     1       3.902   7.599  17.480  0.00  0.00    +0.000 OA
ATOM     20  N   UNL     1       4.307   5.723  18.728  0.00  0.00    +0.000 N 
ATOM     21  H   UNL     1       4.894   4.898  18.820  0.00  0.00    +0.000 HD
BRANCH  20  22
ATOM     22  C   UNL     1       3.291   6.015  19.714  0.00  0.00    +0.000 C 
BRANCH  22  23
ATOM     23  C   UNL     1       2.091   5.077  19.702  0.00  0.00    +0.000 C 
ATOM     24  O   UNL     1       1.219   5.112  20.561  0.00  0.00    +0.000 OA
BRANCH  23  25
ATOM     25  O   UNL     1       2.128   4.214  18.646  0.00  0.00    +0.000 OA
BRANCH  25  26
ATOM     26  C   UNL     1       2.256   2.786  18.881  0.00  0.00    +0.000 C 
ATOM     27  C   UNL     1       2.859   2.499  20.262  0.00  0.00    +0.000 C 
ATOM     28  C   UNL     1       0.820   2.235  18.857  0.00  0.00    +0.000 C 
ATOM     29  C   UNL     1       3.044   2.109  17.752  0.00  0.00    +0.000 C 
ENDBRANCH  25  26
ENDBRANCH  23  25
ENDBRANCH  22  23
ENDBRANCH  20  22
ENDBRANCH   5  18
TORSDOF 7
ENDMDL
MODEL 9
REMARK VINA RESULT:      -7.2      2.099      4.799
REMARK  Name = 
REMARK  11 active torsions:
REMARK  status: ('A' for Active; 'I' for Inactive)
REMARK    1  A    between atoms: C_1  and  C_2
REMARK    2  A    between atoms: C_5  and  N_6
REMARK    3  A    between atoms: C_7  and  C_9
REMARK    4  A    between atoms: C_13  and  C_14
REMARK    5  A    between atoms: N_16  and  C_17
REMARK    6  A    between atoms: C_17  and  C_18
REMARK    7  A    between atoms: C_18  and  O_20
REMARK    8  A    between atoms: O_20  and  C_21
REMARK    9  A    between atoms: C_21  and  C_22
REMARK   10  A    between atoms: C_21  and  C_23
REMARK   11  A    between atoms: C_21  and  C_24
REMARK                            x       y       z     vdW  Elec       q    Type
REMARK                         _______ _______ _______ _____ _____    ______ ____
ROOT
ATOM      1  C   UNL     1       4.662   5.989  16.700  0.00  0.00    +0.000 A 
ATOM      2  N   UNL     1       5.118   6.549  15.528  0.00  0.00    +0.000 N 
ATOM      3  C   UNL     1       6.126   5.770  15.042  0.00  0.00    +0.000 A 
ATOM      4  N   UNL     1       6.357   4.740  15.819  0.00  0.00    +0.000 NA
ATOM      5  C   UNL     1       5.469   4.873  16.883  0.00  0.00    +0.000 A 
ATOM      6  H   UNL     1       4.713   7.341  15.051  0.00  0.00    +0.000 HD
ENDROOT
BRANCH   1   8
ATOM      7  N   UNL     1       3.473   7.748  17.776  0.00  0.00    +0.000 N 
ATOM      8  C   UNL     1       3.496   6.399  17.453  0.00  0.00    +0.000 C 
ATOM      9  O   UNL     1       2.601   5.602  17.703  0.00  0.00    +0.000 OA
ATOM     10  H   UNL     1       4.303   8.292  17.587  0.00  0.00    +0.000 HD
BRANCH   7  15
ATOM     11  C   UNL     1      -0.777  10.470  20.508  0.00  0.00    +0.000 C 
ATOM     12  C   UNL     1       0.336   9.772  19.786  0.00  0.00    +0.000 A 
ATOM     13  C   UNL     1       0.665  10.129  18.478  0.00  0.00    +0.000 A 
ATOM     14  C   UNL     1       1.695   9.474  17.799  0.00  0.00    +0.000 A 
ATOM     15  C   UNL     1       2.416   8.446  18.407  0.00  0.00    +0.000 A 
ATOM     16  C   UNL     1       2.086   8.087  19.720  0.00  0.00    +0.000 A 
ATOM     17  C   UNL     1       1.059   8.747  20.406  0.00  0.00    +0.000 A 
ENDBRANCH   7  15
ENDBRANCH   1   8
BRANCH   5  18
ATOM     18  C   UNL     1       5.426   3.913  17.986  0.00  0.00    +0.000 C 
ATOM     19  O   UNL     1       6.184   3.939  18.951  0.00  0.00    +0.000 OA
ATOM     20  N   UNL     1       4.458   2.952  17.816  0.00  0.00    +0.000 N 
ATOM     21  H   UNL     1       3.910   2.970  16.960  0.00  0.00    +0.000 HD
BRANCH  20  22
ATOM     22  C   UNL     1       4.221   1.939  18.820  0.00  0.00    +0.000 C 
BRANCH  22  23
ATOM     23  C   UNL     1       4.043   2.466  20.238  0.00  0.00    +0.000 C 
ATOM     24  O   UNL     1       4.638   1.989  21.197  0.00  0.00    +0.000 OA
BRANCH  23  25
ATOM     25  O   UNL     1       3.151   3.496  20.293  0.00  0.00    +0.000 OA
BRANCH  25  26
ATOM     26  C   UNL     1       1.736   3.222  20.476  0.00  0.00    +0.000 C 
ATOM     27  C   UNL     1       1.478   2.470  21.788  0.00  0.00    +0.000 C 
ATOM     28  C   UNL     1       1.059   4.600  20.567  0.00  0.00    +0.000 C 
ATOM     29  C   UNL     1       1.155   2.486  19.262  0.00  0.00    +0.000 C 
ENDBRANCH  25  26
ENDBRANCH  23  25
ENDBRANCH  22  23
ENDBRANCH  20  22
ENDBRANCH   5  18
TORSDOF 7
ENDMDL
