MODEL 1
REMARK VINA RESULT:      -8.0      0.000      0.000
REMARK  Name = 
REMARK  7 active torsions:
REMARK  status: ('A' for Active; 'I' for Inactive)
REMARK    1  A    between atoms: C_1  and  S_2
REMARK    2  A    between atoms: S_2  and  C_3
REMARK    3  A    between atoms: C_6  and  C_7
REMARK    4  A    between atoms: C_8  and  N_9
REMARK    5  A    between atoms: C_8  and  C_18
REMARK    6  A    between atoms: C_10  and  C_12
REMARK    7  A    between atoms: N_20  and  N_21
REMARK                            x       y       z     vdW  Elec       q    Type
REMARK                         _______ _______ _______ _____ _____    ______ ____
ROOT
ATOM      1  C   UNL     1       7.172   5.660  16.278  0.00  0.00    +0.000 C 
ATOM      2  C   UNL     1       6.667   5.522  17.519  0.00  0.00    +0.000 C 
ENDROOT
BRANCH   1   6
ATOM      3  C   UNL     1       5.816   3.590  12.786  0.00  0.00    +0.000 A 
ATOM      4  C   UNL     1       4.996   3.668  13.915  0.00  0.00    +0.000 A 
ATOM      5  C   UNL     1       5.414   4.381  15.047  0.00  0.00    +0.000 A 
ATOM      6  C   UNL     1       6.662   5.006  15.067  0.00  0.00    +0.000 A 
ATOM      7  C   UNL     1       7.452   4.983  13.913  0.00  0.00    +0.000 A 
ATOM      8  C   UNL     1       7.036   4.272  12.782  0.00  0.00    +0.000 A 
BRANCH   3  10
ATOM      9  C   UNL     1       3.795   3.185  10.943  0.00  0.00    +0.000 C 
ATOM     10  S   UNL     1       5.415   2.528  11.409  0.00  0.00    +0.000 S 
ENDBRANCH   3  10
ENDBRANCH   1   6
BRANCH   2  11
ATOM     11  N   UNL     1       5.492   4.870  17.861  0.00  0.00    +0.000 N 
ATOM     12  C   UNL     1       4.250   5.462  18.003  0.00  0.00    +0.000 C 
ATOM     13  O   UNL     1       4.027   6.666  17.962  0.00  0.00    +0.000 OA
ATOM     14  H   UNL     1       5.613   3.937  18.234  0.00  0.00    +0.000 HD
BRANCH  12  15
ATOM     15  C   UNL     1       3.129   4.520  18.272  0.00  0.00    +0.000 A 
ATOM     16  C   UNL     1       2.117   4.797  19.202  0.00  0.00    +0.000 A 
ATOM     17  C   UNL     1       1.157   3.825  19.498  0.00  0.00    +0.000 A 
ATOM     18  C   UNL     1       1.195   2.589  18.853  0.00  0.00    +0.000 A 
ATOM     19  C   UNL     1       2.166   2.332  17.886  0.00  0.00    +0.000 A 
ATOM     20  C   UNL     1       3.128   3.299  17.589  0.00  0.00    +0.000 A 
ENDBRANCH  12  15
ENDBRANCH   2  11
BRANCH   2  21
ATOM     21  C   UNL     1       7.531   5.983  18.665  0.00  0.00    +0.000 C 
ATOM     22  O   UNL     1       8.163   7.036  18.662  0.00  0.00    +0.000 OA
ATOM     23  N   UNL     1       7.547   5.080  19.724  0.00  0.00    +0.000 N 
ATOM     24  H   UNL     1       6.807   4.380  19.768  0.00  0.00    +0.000 HD
BRANCH  23  25
ATOM     25  N   UNL     1       8.220   5.421  20.920  0.00  0.00    +0.000 NA
ATOM     26  H   UNL     1       7.543   5.303  21.689  0.00  0.00    +0.000 HD
ATOM     27  H   UNL     1       8.405   6.427  20.909  0.00  0.00    +0.000 HD
ENDBRANCH  23  25
ENDBRANCH   2  21
TORSDOF 6
ENDMDL
MODEL 2
REMARK VINA RESULT:      -7.9      0.120      1.016
REMARK  Name = 
REMARK  7 active torsions:
REMARK  status: ('A' for Active; 'I' for Inactive)
REMARK    1  A    between atoms: C_1  and  S_2
REMARK    2  A    between atoms: S_2  and  C_3
REMARK    3  A    between atoms: C_6  and  C_7
REMARK    4  A    between atoms: C_8  and  N_9
REMARK    5  A    between atoms: C_8  and  C_18
REMARK    6  A    between atoms: C_10  and  C_12
REMARK    7  A    between atoms: N_20  and  N_21
REMARK                            x       y       z     vdW  Elec       q    Type
REMARK                         _______ _______ _______ _____ _____    ______ ____
ROOT
ATOM      1  C   UNL     1       7.164   5.700  16.287  0.00  0.00    +0.000 C 
ATOM      2  C   UNL     1       6.694   5.514  17.535  0.00  0.00    +0.000 C 
ENDROOT
BRANCH   1   6
ATOM      3  C   UNL     1       5.818   3.610  12.803  0.00  0.00    +0.000 A 
ATOM      4  C   UNL     1       4.959   3.780  13.892  0.00  0.00    +0.000 A 
ATOM      5  C   UNL     1       5.376   4.501  15.019  0.00  0.00    +0.000 A 
ATOM      6  C   UNL     1       6.661   5.042  15.075  0.00  0.00    +0.000 A 
ATOM      7  C   UNL     1       7.496   4.927  13.958  0.00  0.00    +0.000 A 
ATOM      8  C   UNL     1       7.081   4.208  12.832  0.00  0.00    +0.000 A 
BRANCH   3  10
ATOM      9  C   UNL     1       3.785   3.190  10.977  0.00  0.00    +0.000 C 
ATOM     10  S   UNL     1       5.404   2.531  11.442  0.00  0.00    +0.000 S 
ENDBRANCH   3  10
ENDBRANCH   1   6
BRANCH   2  11
ATOM     11  N   UNL     1       5.562   4.797  17.890  0.00  0.00    +0.000 N 
ATOM     12  C   UNL     1       4.296   5.322  18.075  0.00  0.00    +0.000 C 
ATOM     13  O   UNL     1       4.012   6.514  18.068  0.00  0.00    +0.000 OA
ATOM     14  H   UNL     1       5.738   3.863  18.237  0.00  0.00    +0.000 HD
BRANCH  12  15
ATOM     15  C   UNL     1       3.230   4.319  18.349  0.00  0.00    +0.000 A 
ATOM     16  C   UNL     1       3.150   3.095  17.669  0.00  0.00    +0.000 A 
ATOM     17  C   UNL     1       2.061   2.247  17.885  0.00  0.00    +0.000 A 
ATOM     18  C   UNL     1       1.065   2.609  18.791  0.00  0.00    +0.000 A 
ATOM     19  C   UNL     1       1.170   3.799  19.511  0.00  0.00    +0.000 A 
ATOM     20  C   UNL     1       2.255   4.650  19.297  0.00  0.00    +0.000 A 
ENDBRANCH  12  15
ENDBRANCH   2  11
BRANCH   2  21
ATOM     21  C   UNL     1       7.558   6.000  18.671  0.00  0.00    +0.000 C 
ATOM     22  O   UNL     1       8.163   7.069  18.659  0.00  0.00    +0.000 OA
ATOM     23  N   UNL     1       7.607   5.100  19.732  0.00  0.00    +0.000 N 
ATOM     24  H   UNL     1       6.885   4.382  19.785  0.00  0.00    +0.000 HD
BRANCH  23  25
ATOM     25  N   UNL     1       8.283   5.461  20.920  0.00  0.00    +0.000 NA
ATOM     26  H   UNL     1       8.068   4.735  21.620  0.00  0.00    +0.000 HD
ATOM     27  H   UNL     1       7.843   6.303  21.298  0.00  0.00    +0.000 HD
ENDBRANCH  23  25
ENDBRANCH   2  21
TORSDOF 6
ENDMDL
MODEL 3
REMARK VINA RESULT:      -7.8      2.564      5.804
REMARK  Name = 
REMARK  7 active torsions:
REMARK  status: ('A' for Active; 'I' for Inactive)
REMARK    1  A    between atoms: C_1  and  S_2
REMARK    2  A    between atoms: S_2  and  C_3
REMARK    3  A    between atoms: C_6  and  C_7
REMARK    4  A    between atoms: C_8  and  N_9
REMARK    5  A    between atoms: C_8  and  C_18
REMARK    6  A    between atoms: C_10  and  C_12
REMARK    7  A    between atoms: N_20  and  N_21
REMARK                            x       y       z     vdW  Elec       q    Type
REMARK                         _______ _______ _______ _____ _____    ______ ____
ROOT
ATOM      1  C   UNL     1       6.018   6.312  18.569  0.00  0.00    +0.000 C 
ATOM      2  C   UNL     1       6.750   6.736  17.521  0.00  0.00    +0.000 C 
ENDROOT
BRANCH   1   6
ATOM      3  C   UNL     1       2.782   3.511  18.604  0.00  0.00    +0.000 A 
ATOM      4  C   UNL     1       2.580   4.807  18.120  0.00  0.00    +0.000 A 
ATOM      5  C   UNL     1       3.644   5.717  18.064  0.00  0.00    +0.000 A 
ATOM      6  C   UNL     1       4.915   5.346  18.508  0.00  0.00    +0.000 A 
ATOM      7  C   UNL     1       5.130   4.029  18.929  0.00  0.00    +0.000 A 
ATOM      8  C   UNL     1       4.068   3.120  18.985  0.00  0.00    +0.000 A 
BRANCH   3  10
ATOM      9  C   UNL     1       1.074   2.720  20.629  0.00  0.00    +0.000 C 
ATOM     10  S   UNL     1       1.419   2.393  18.883  0.00  0.00    +0.000 S 
ENDBRANCH   3  10
ENDBRANCH   1   6
BRANCH   2  11
ATOM     11  N   UNL     1       6.707   6.234  16.230  0.00  0.00    +0.000 N 
ATOM     12  C   UNL     1       7.214   5.015  15.818  0.00  0.00    +0.000 C 
ATOM     13  O   UNL     1       7.880   4.252  16.508  0.00  0.00    +0.000 OA
ATOM     14  H   UNL     1       6.472   6.910  15.515  0.00  0.00    +0.000 HD
BRANCH  12  15
ATOM     15  C   UNL     1       6.943   4.665  14.397  0.00  0.00    +0.000 A 
ATOM     16  C   UNL     1       5.952   3.747  14.020  0.00  0.00    +0.000 A 
ATOM     17  C   UNL     1       5.824   3.371  12.680  0.00  0.00    +0.000 A 
ATOM     18  C   UNL     1       6.667   3.923  11.717  0.00  0.00    +0.000 A 
ATOM     19  C   UNL     1       7.616   4.878  12.080  0.00  0.00    +0.000 A 
ATOM     20  C   UNL     1       7.749   5.256  13.417  0.00  0.00    +0.000 A 
ENDBRANCH  12  15
ENDBRANCH   2  11
BRANCH   2  21
ATOM     21  C   UNL     1       7.587   7.973  17.726  0.00  0.00    +0.000 C 
ATOM     22  O   UNL     1       7.544   8.955  16.990  0.00  0.00    +0.000 OA
ATOM     23  N   UNL     1       8.425   7.878  18.834  0.00  0.00    +0.000 N 
ATOM     24  H   UNL     1       8.215   7.166  19.534  0.00  0.00    +0.000 HD
BRANCH  23  25
ATOM     25  N   UNL     1       9.190   9.000  19.226  0.00  0.00    +0.000 NA
ATOM     26  H   UNL     1       8.635   9.510  19.930  0.00  0.00    +0.000 HD
ATOM     27  H   UNL     1       9.238   9.649  18.437  0.00  0.00    +0.000 HD
ENDBRANCH  23  25
ENDBRANCH   2  21
TORSDOF 6
ENDMDL
MODEL 4
REMARK VINA RESULT:      -7.7      2.558      5.772
REMARK  Name = 
REMARK  7 active torsions:
REMARK  status: ('A' for Active; 'I' for Inactive)
REMARK    1  A    between atoms: C_1  and  S_2
REMARK    2  A    between atoms: S_2  and  C_3
REMARK    3  A    between atoms: C_6  and  C_7
REMARK    4  A    between atoms: C_8  and  N_9
REMARK    5  A    between atoms: C_8  and  C_18
REMARK    6  A    between atoms: C_10  and  C_12
REMARK    7  A    between atoms: N_20  and  N_21
REMARK                            x       y       z     vdW  Elec       q    Type
REMARK                         _______ _______ _______ _____ _____    ______ ____
ROOT
ATOM      1  C   UNL     1       6.044   6.326  18.568  0.00  0.00    +0.000 C 
ATOM      2  C   UNL     1       6.798   6.727  17.527  0.00  0.00    +0.000 C 
ENDROOT
BRANCH   1   6
ATOM      3  C   UNL     1       2.810   3.522  18.596  0.00  0.00    +0.000 A 
ATOM      4  C   UNL     1       2.611   4.815  18.105  0.00  0.00    +0.000 A 
ATOM      5  C   UNL     1       3.674   5.726  18.051  0.00  0.00    +0.000 A 
ATOM      6  C   UNL     1       4.942   5.359  18.505  0.00  0.00    +0.000 A 
ATOM      7  C   UNL     1       5.155   4.044  18.934  0.00  0.00    +0.000 A 
ATOM      8  C   UNL     1       4.094   3.134  18.988  0.00  0.00    +0.000 A 
BRANCH   3  10
ATOM      9  C   UNL     1       1.047   2.787  20.594  0.00  0.00    +0.000 C 
ATOM     10  S   UNL     1       1.447   2.404  18.872  0.00  0.00    +0.000 S 
ENDBRANCH   3  10
ENDBRANCH   1   6
BRANCH   2  11
ATOM     11  N   UNL     1       6.783   6.196  16.247  0.00  0.00    +0.000 N 
ATOM     12  C   UNL     1       7.281   4.960  15.877  0.00  0.00    +0.000 C 
ATOM     13  O   UNL     1       7.915   4.202  16.602  0.00  0.00    +0.000 OA
ATOM     14  H   UNL     1       6.579   6.860  15.511  0.00  0.00    +0.000 HD
BRANCH  12  15
ATOM     15  C   UNL     1       7.044   4.583  14.456  0.00  0.00    +0.000 A 
ATOM     16  C   UNL     1       7.820   5.083  13.401  0.00  0.00    +0.000 A 
ATOM     17  C   UNL     1       7.476   4.785  12.081  0.00  0.00    +0.000 A 
ATOM     18  C   UNL     1       6.373   3.975  11.813  0.00  0.00    +0.000 A 
ATOM     19  C   UNL     1       5.633   3.430  12.862  0.00  0.00    +0.000 A 
ATOM     20  C   UNL     1       5.972   3.725  14.182  0.00  0.00    +0.000 A 
ENDBRANCH  12  15
ENDBRANCH   2  11
BRANCH   2  21
ATOM     21  C   UNL     1       7.631   7.969  17.723  0.00  0.00    +0.000 C 
ATOM     22  O   UNL     1       7.603   8.935  16.966  0.00  0.00    +0.000 OA
ATOM     23  N   UNL     1       8.446   7.898  18.850  0.00  0.00    +0.000 N 
ATOM     24  H   UNL     1       8.221   7.201  19.560  0.00  0.00    +0.000 HD
BRANCH  23  25
ATOM     25  N   UNL     1       9.202   9.028  19.234  0.00  0.00    +0.000 NA
ATOM     26  H   UNL     1       8.556   9.831  19.245  0.00  0.00    +0.000 HD
ATOM     27  H   UNL     1       9.855   9.250  18.479  0.00  0.00    +0.000 HD
ENDBRANCH  23  25
ENDBRANCH   2  21
TORSDOF 6
ENDMDL
MODEL 5
REMARK VINA RESULT:      -7.7      3.747      6.694
REMARK  Name = 
REMARK  7 active torsions:
REMARK  status: ('A' for Active; 'I' for Inactive)
REMARK    1  A    between atoms: C_1  and  S_2
REMARK    2  A    between atoms: S_2  and  C_3
REMARK    3  A    between atoms: C_6  and  C_7
REMARK    4  A    between atoms: C_8  and  N_9
REMARK    5  A    between atoms: C_8  and  C_18
REMARK    6  A    between atoms: C_10  and  C_12
REMARK    7  A    between atoms: N_20  and  N_21
REMARK                            x       y       z     vdW  Elec       q    Type
REMARK                         _______ _______ _______ _____ _____    ______ ____
ROOT
ATOM      1  C   UNL     1       2.497   4.788  20.257  0.00  0.00    +0.000 C 
ATOM      2  C   UNL     1       3.390   3.941  19.712  0.00  0.00    +0.000 C 
ENDROOT
BRANCH   1   6
ATOM      3  C   UNL     1       1.756   8.786  18.920  0.00  0.00    +0.000 A 
ATOM      4  C   UNL     1       2.213   7.821  18.019  0.00  0.00    +0.000 A 
ATOM      5  C   UNL     1       2.416   6.499  18.437  0.00  0.00    +0.000 A 
ATOM      6  C   UNL     1       2.183   6.135  19.764  0.00  0.00    +0.000 A 
ATOM      7  C   UNL     1       1.662   7.087  20.649  0.00  0.00    +0.000 A 
ATOM      8  C   UNL     1       1.459   8.406  20.231  0.00  0.00    +0.000 A 
BRANCH   3  10
ATOM      9  C   UNL     1       0.002  10.921  19.022  0.00  0.00    +0.000 C 
ATOM     10  S   UNL     1       1.681  10.515  18.483  0.00  0.00    +0.000 S 
ENDBRANCH   3  10
ENDBRANCH   1   6
BRANCH   2  11
ATOM     11  N   UNL     1       4.060   4.111  18.510  0.00  0.00    +0.000 N 
ATOM     12  C   UNL     1       5.378   4.502  18.367  0.00  0.00    +0.000 C 
ATOM     13  O   UNL     1       6.114   4.869  19.274  0.00  0.00    +0.000 OA
ATOM     14  H   UNL     1       3.466   4.150  17.691  0.00  0.00    +0.000 HD
BRANCH  12  15
ATOM     15  C   UNL     1       5.888   4.505  16.967  0.00  0.00    +0.000 A 
ATOM     16  C   UNL     1       7.199   4.881  16.641  0.00  0.00    +0.000 A 
ATOM     17  C   UNL     1       7.583   4.978  15.301  0.00  0.00    +0.000 A 
ATOM     18  C   UNL     1       6.669   4.682  14.291  0.00  0.00    +0.000 A 
ATOM     19  C   UNL     1       5.382   4.252  14.613  0.00  0.00    +0.000 A 
ATOM     20  C   UNL     1       4.993   4.156  15.949  0.00  0.00    +0.000 A 
ENDBRANCH  12  15
ENDBRANCH   2  11
BRANCH   2  21
ATOM     21  C   UNL     1       3.822   2.767  20.554  0.00  0.00    +0.000 C 
ATOM     22  O   UNL     1       3.242   2.411  21.576  0.00  0.00    +0.000 OA
ATOM     23  N   UNL     1       4.958   2.136  20.054  0.00  0.00    +0.000 N 
ATOM     24  H   UNL     1       5.217   2.312  19.084  0.00  0.00    +0.000 HD
BRANCH  23  25
ATOM     25  N   UNL     1       5.422   0.950  20.668  0.00  0.00    +0.000 NA
ATOM     26  H   UNL     1       4.668   0.620  21.290  0.00  0.00    +0.000 HD
ATOM     27  H   UNL     1       6.179   1.194  21.310  0.00  0.00    +0.000 HD
ENDBRANCH  23  25
ENDBRANCH   2  21
TORSDOF 6
ENDMDL
MODEL 6
REMARK VINA RESULT:      -7.6      3.772      6.715
REMARK  Name = 
REMARK  7 active torsions:
REMARK  status: ('A' for Active; 'I' for Inactive)
REMARK    1  A    between atoms: C_1  and  S_2
REMARK    2  A    between atoms: S_2  and  C_3
REMARK    3  A    between atoms: C_6  and  C_7
REMARK    4  A    between atoms: C_8  and  N_9
REMARK    5  A    between atoms: C_8  and  C_18
REMARK    6  A    between atoms: C_10  and  C_12
REMARK    7  A    between atoms: N_20  and  N_21
REMARK                            x       y       z     vdW  Elec       q    Type
REMARK                         _______ _______ _______ _____ _____    ______ ____
ROOT
ATOM      1  C   UNL     1       2.546   4.874  20.395  0.00  0.00    +0.000 C 
ATOM      2  C   UNL     1       3.368   4.022  19.754  0.00  0.00    +0.000 C 
ENDROOT
BRANCH   1   6
ATOM      3  C   UNL     1       1.571   8.844  19.128  0.00  0.00    +0.000 A 
ATOM      4  C   UNL     1       1.332   8.453  20.448  0.00  0.00    +0.000 A 
ATOM      5  C   UNL     1       1.688   7.170  20.884  0.00  0.00    +0.000 A 
ATOM      6  C   UNL     1       2.269   6.260  19.999  0.00  0.00    +0.000 A 
ATOM      7  C   UNL     1       2.568   6.675  18.696  0.00  0.00    +0.000 A 
ATOM      8  C   UNL     1       2.213   7.957  18.261  0.00  0.00    +0.000 A 
BRANCH   3  10
ATOM      9  C   UNL     1      -0.785  10.285  18.985  0.00  0.00    +0.000 C 
ATOM     10  S   UNL     1       0.950  10.387  18.481  0.00  0.00    +0.000 S 
ENDBRANCH   3  10
ENDBRANCH   1   6
BRANCH   2  11
ATOM     11  N   UNL     1       3.980   4.235  18.528  0.00  0.00    +0.000 N 
ATOM     12  C   UNL     1       5.317   4.528  18.331  0.00  0.00    +0.000 C 
ATOM     13  O   UNL     1       6.133   4.760  19.215  0.00  0.00    +0.000 OA
ATOM     14  H   UNL     1       3.347   4.388  17.754  0.00  0.00    +0.000 HD
BRANCH  12  15
ATOM     15  C   UNL     1       5.744   4.603  16.907  0.00  0.00    +0.000 A 
ATOM     16  C   UNL     1       4.922   4.191  15.848  0.00  0.00    +0.000 A 
ATOM     17  C   UNL     1       5.422   4.176  14.543  0.00  0.00    +0.000 A 
ATOM     18  C   UNL     1       6.729   4.588  14.292  0.00  0.00    +0.000 A 
ATOM     19  C   UNL     1       7.531   5.053  15.335  0.00  0.00    +0.000 A 
ATOM     20  C   UNL     1       7.037   5.068  16.640  0.00  0.00    +0.000 A 
ENDBRANCH  12  15
ENDBRANCH   2  11
BRANCH   2  21
ATOM     21  C   UNL     1       3.789   2.783  20.502  0.00  0.00    +0.000 C 
ATOM     22  O   UNL     1       3.250   2.394  21.535  0.00  0.00    +0.000 OA
ATOM     23  N   UNL     1       4.865   2.132  19.903  0.00  0.00    +0.000 N 
ATOM     24  H   UNL     1       5.077   2.354  18.931  0.00  0.00    +0.000 HD
BRANCH  23  25
ATOM     25  N   UNL     1       5.304   0.893  20.421  0.00  0.00    +0.000 NA
ATOM     26  H   UNL     1       6.024   0.536  19.775  0.00  0.00    +0.000 HD
ATOM     27  H   UNL     1       4.541   0.218  20.333  0.00  0.00    +0.000 HD
ENDBRANCH  23  25
ENDBRANCH   2  21
TORSDOF 6
ENDMDL
MODEL 7
REMARK VINA RESULT:      -7.6      3.726      6.594
REMARK  Name = 
REMARK  7 active torsions:
REMARK  status: ('A' for Active; 'I' for Inactive)
REMARK    1  A    between atoms: C_1  and  S_2
REMARK    2  A    between atoms: S_2  and  C_3
REMARK    3  A    between atoms: C_6  and  C_7
REMARK    4  A    between atoms: C_8  and  N_9
REMARK    5  A    between atoms: C_8  and  C_18
REMARK    6  A    between atoms: C_10  and  C_12
REMARK    7  A    between atoms: N_20  and  N_21
REMARK                            x       y       z     vdW  Elec       q    Type
REMARK                         _______ _______ _______ _____ _____    ______ ____
ROOT
ATOM      1  C   UNL     1       2.559   4.840  20.329  0.00  0.00    +0.000 C 
ATOM      2  C   UNL     1       3.399   3.969  19.738  0.00  0.00    +0.000 C 
ENDROOT
BRANCH   1   6
ATOM      3  C   UNL     1       1.663   8.796  18.962  0.00  0.00    +0.000 A 
ATOM      4  C   UNL     1       1.451   8.453  20.301  0.00  0.00    +0.000 A 
ATOM      5  C   UNL     1       1.783   7.174  20.767  0.00  0.00    +0.000 A 
ATOM      6  C   UNL     1       2.311   6.220  19.896  0.00  0.00    +0.000 A 
ATOM      7  C   UNL     1       2.584   6.585  18.573  0.00  0.00    +0.000 A 
ATOM      8  C   UNL     1       2.254   7.862  18.107  0.00  0.00    +0.000 A 
BRANCH   3  10
ATOM      9  C   UNL     1      -0.687   9.948  18.071  0.00  0.00    +0.000 C 
ATOM     10  S   UNL     1       1.068  10.335  18.283  0.00  0.00    +0.000 S 
ENDBRANCH   3  10
ENDBRANCH   1   6
BRANCH   2  11
ATOM     11  N   UNL     1       4.061   4.153  18.534  0.00  0.00    +0.000 N 
ATOM     12  C   UNL     1       5.393   4.495  18.387  0.00  0.00    +0.000 C 
ATOM     13  O   UNL     1       6.154   4.802  19.297  0.00  0.00    +0.000 OA
ATOM     14  H   UNL     1       3.461   4.244  17.724  0.00  0.00    +0.000 HD
BRANCH  12  15
ATOM     15  C   UNL     1       5.886   4.525  16.982  0.00  0.00    +0.000 A 
ATOM     16  C   UNL     1       7.195   4.904  16.648  0.00  0.00    +0.000 A 
ATOM     17  C   UNL     1       7.563   5.027  15.306  0.00  0.00    +0.000 A 
ATOM     18  C   UNL     1       6.637   4.754  14.300  0.00  0.00    +0.000 A 
ATOM     19  C   UNL     1       5.352   4.322  14.629  0.00  0.00    +0.000 A 
ATOM     20  C   UNL     1       4.978   4.200  15.968  0.00  0.00    +0.000 A 
ENDBRANCH  12  15
ENDBRANCH   2  11
BRANCH   2  21
ATOM     21  C   UNL     1       3.778   2.741  20.525  0.00  0.00    +0.000 C 
ATOM     22  O   UNL     1       3.164   2.348  21.513  0.00  0.00    +0.000 OA
ATOM     23  N   UNL     1       4.909   2.106  20.019  0.00  0.00    +0.000 N 
ATOM     24  H   UNL     1       5.196   2.326  19.066  0.00  0.00    +0.000 HD
BRANCH  23  25
ATOM     25  N   UNL     1       5.326   0.876  20.579  0.00  0.00    +0.000 NA
ATOM     26  H   UNL     1       4.471   0.352  20.818  0.00  0.00    +0.000 HD
ATOM     27  H   UNL     1       5.759   1.066  21.486  0.00  0.00    +0.000 HD
ENDBRANCH  23  25
ENDBRANCH   2  21
TORSDOF 6
ENDMDL
MODEL 8
REMARK VINA RESULT:      -7.5      3.774      6.765
REMARK  Name = 
REMARK  7 active torsions:
REMARK  status: ('A' for Active; 'I' for Inactive)
REMARK    1  A    between atoms: C_1  and  S_2
REMARK    2  A    between atoms: S_2  and  C_3
REMARK    3  A    between atoms: C_6  and  C_7
REMARK    4  A    between atoms: C_8  and  N_9
REMARK    5  A    between atoms: C_8  and  C_18
REMARK    6  A    between atoms: C_10  and  C_12
REMARK    7  A    between atoms: N_20  and  N_21
REMARK                            x       y       z     vdW  Elec       q    Type
REMARK                         _______ _______ _______ _____ _____    ______ ____
ROOT
ATOM      1  C   UNL     1       2.439   4.905  20.280  0.00  0.00    +0.000 C 
ATOM      2  C   UNL     1       3.311   4.060  19.697  0.00  0.00    +0.000 C 
ENDROOT
BRANCH   1   6
ATOM      3  C   UNL     1       1.660   8.918  19.011  0.00  0.00    +0.000 A 
ATOM      4  C   UNL     1       2.129   7.974  18.095  0.00  0.00    +0.000 A 
ATOM      5  C   UNL     1       2.345   6.647  18.490  0.00  0.00    +0.000 A 
ATOM      6  C   UNL     1       2.112   6.257  19.810  0.00  0.00    +0.000 A 
ATOM      7  C   UNL     1       1.580   7.187  20.710  0.00  0.00    +0.000 A 
ATOM      8  C   UNL     1       1.363   8.512  20.315  0.00  0.00    +0.000 A 
BRANCH   3  10
ATOM      9  C   UNL     1      -0.032  11.081  19.334  0.00  0.00    +0.000 C 
ATOM     10  S   UNL     1       1.568  10.654  18.605  0.00  0.00    +0.000 S 
ENDBRANCH   3  10
ENDBRANCH   1   6
BRANCH   2  11
ATOM     11  N   UNL     1       3.939   4.240  18.474  0.00  0.00    +0.000 N 
ATOM     12  C   UNL     1       5.208   4.757  18.284  0.00  0.00    +0.000 C 
ATOM     13  O   UNL     1       5.917   5.242  19.157  0.00  0.00    +0.000 OA
ATOM     14  H   UNL     1       3.332   4.177  17.667  0.00  0.00    +0.000 HD
BRANCH  12  15
ATOM     15  C   UNL     1       5.691   4.744  16.876  0.00  0.00    +0.000 A 
ATOM     16  C   UNL     1       4.887   4.328  15.804  0.00  0.00    +0.000 A 
ATOM     17  C   UNL     1       5.433   4.226  14.522  0.00  0.00    +0.000 A 
ATOM     18  C   UNL     1       6.770   4.557  14.305  0.00  0.00    +0.000 A 
ATOM     19  C   UNL     1       7.556   5.026  15.357  0.00  0.00    +0.000 A 
ATOM     20  C   UNL     1       7.016   5.128  16.640  0.00  0.00    +0.000 A 
ENDBRANCH  12  15
ENDBRANCH   2  11
BRANCH   2  21
ATOM     21  C   UNL     1       3.768   2.878  20.513  0.00  0.00    +0.000 C 
ATOM     22  O   UNL     1       3.205   2.496  21.535  0.00  0.00    +0.000 OA
ATOM     23  N   UNL     1       4.908   2.273  19.991  0.00  0.00    +0.000 N 
ATOM     24  H   UNL     1       5.154   2.470  19.021  0.00  0.00    +0.000 HD
BRANCH  23  25
ATOM     25  N   UNL     1       5.395   1.083  20.578  0.00  0.00    +0.000 NA
ATOM     26  H   UNL     1       4.652   0.375  20.481  0.00  0.00    +0.000 HD
ATOM     27  H   UNL     1       5.465   1.227  21.588  0.00  0.00    +0.000 HD
ENDBRANCH  23  25
ENDBRANCH   2  21
TORSDOF 6
ENDMDL
MODEL 9
REMARK VINA RESULT:      -7.5      2.438      5.647
REMARK  Name = 
REMARK  7 active torsions:
REMARK  status: ('A' for Active; 'I' for Inactive)
REMARK    1  A    between atoms: C_1  and  S_2
REMARK    2  A    between atoms: S_2  and  C_3
REMARK    3  A    between atoms: C_6  and  C_7
REMARK    4  A    between atoms: C_8  and  N_9
REMARK    5  A    between atoms: C_8  and  C_18
REMARK    6  A    between atoms: C_10  and  C_12
REMARK    7  A    between atoms: N_20  and  N_21
REMARK                            x       y       z     vdW  Elec       q    Type
REMARK                         _______ _______ _______ _____ _____    ______ ____
ROOT
ATOM      1  C   UNL     1       6.268   6.393  18.682  0.00  0.00    +0.000 C 
ATOM      2  C   UNL     1       6.941   6.829  17.601  0.00  0.00    +0.000 C 
ENDROOT
BRANCH   1   6
ATOM      3  C   UNL     1       3.172   3.446  18.457  0.00  0.00    +0.000 A 
ATOM      4  C   UNL     1       4.375   3.148  19.102  0.00  0.00    +0.000 A 
ATOM      5  C   UNL     1       5.377   4.121  19.219  0.00  0.00    +0.000 A 
ATOM      6  C   UNL     1       5.193   5.393  18.676  0.00  0.00    +0.000 A 
ATOM      7  C   UNL     1       3.962   5.710  18.089  0.00  0.00    +0.000 A 
ATOM      8  C   UNL     1       2.961   4.740  17.973  0.00  0.00    +0.000 A 
BRANCH   3  10
ATOM      9  C   UNL     1       0.701   2.580  19.346  0.00  0.00    +0.000 C 
ATOM     10  S   UNL     1       1.959   2.184  18.107  0.00  0.00    +0.000 S 
ENDBRANCH   3  10
ENDBRANCH   1   6
BRANCH   2  11
ATOM     11  N   UNL     1       6.859   6.314  16.316  0.00  0.00    +0.000 N 
ATOM     12  C   UNL     1       7.292   5.062  15.917  0.00  0.00    +0.000 C 
ATOM     13  O   UNL     1       7.919   4.271  16.612  0.00  0.00    +0.000 OA
ATOM     14  H   UNL     1       6.657   6.993  15.594  0.00  0.00    +0.000 HD
BRANCH  12  15
ATOM     15  C   UNL     1       6.990   4.711  14.502  0.00  0.00    +0.000 A 
ATOM     16  C   UNL     1       5.961   3.826  14.146  0.00  0.00    +0.000 A 
ATOM     17  C   UNL     1       5.802   3.444  12.812  0.00  0.00    +0.000 A 
ATOM     18  C   UNL     1       6.652   3.957  11.833  0.00  0.00    +0.000 A 
ATOM     19  C   UNL     1       7.639   4.881  12.176  0.00  0.00    +0.000 A 
ATOM     20  C   UNL     1       7.804   5.264  13.507  0.00  0.00    +0.000 A 
ENDBRANCH  12  15
ENDBRANCH   2  11
BRANCH   2  21
ATOM     21  C   UNL     1       7.747   8.093  17.760  0.00  0.00    +0.000 C 
ATOM     22  O   UNL     1       7.718   9.026  16.962  0.00  0.00    +0.000 OA
ATOM     23  N   UNL     1       8.540   8.085  18.905  0.00  0.00    +0.000 N 
ATOM     24  H   UNL     1       8.313   7.415  19.639  0.00  0.00    +0.000 HD
BRANCH  23  25
ATOM     25  N   UNL     1       9.268   9.244  19.255  0.00  0.00    +0.000 NA
ATOM     26  H   UNL     1       9.744   9.041  20.147  0.00  0.00    +0.000 HD
ATOM     27  H   UNL     1       8.603   9.983  19.496  0.00  0.00    +0.000 HD
ENDBRANCH  23  25
ENDBRANCH   2  21
TORSDOF 6
ENDMDL
