MODEL 1
REMARK VINA RESULT:      -6.8      0.000      0.000
REMARK  Name = 
REMARK  9 active torsions:
REMARK  status: ('A' for Active; 'I' for Inactive)
REMARK    1  A    between atoms: C_1  and  C_2
REMARK    2  A    between atoms: C_2  and  C_3
REMARK    3  A    between atoms: C_2  and  C_4
REMARK    4  A    between atoms: C_2  and  N_5
REMARK    5  A    between atoms: N_5  and  CA_6
REMARK    6  A    between atoms: CA_6  and  C_7
REMARK    7  A    between atoms: CA_6  and  C_9
REMARK    8  A    between atoms: C_7  and  O_8
REMARK    9  A    between atoms: C_12  and  O_13
REMARK                            x       y       z     vdW  Elec       q    Type
REMARK                         _______ _______ _______ _____ _____    ______ ____
ROOT
ATOM      1  C   UNL     1       4.771   3.834  17.357  0.00  0.00    +0.000 A 
ATOM      2  C   UNL     1       4.720   3.483  15.985  0.00  0.00    +0.000 A 
ATOM      3  C   UNL     1       5.582   4.049  15.045  0.00  0.00    +0.000 A 
ATOM      4  C   UNL     1       6.526   4.971  15.465  0.00  0.00    +0.000 A 
ATOM      5  C   UNL     1       6.604   5.335  16.812  0.00  0.00    +0.000 A 
ATOM      6  N   UNL     1       7.599   6.250  17.197  0.00  0.00    +0.000 N 
ATOM      7  C   UNL     1       7.809   6.651  18.486  0.00  0.00    +0.000 A 
ATOM      8  O   UNL     1       8.691   7.434  18.808  0.00  0.00    +0.000 OA
ATOM      9  C   UNL     1       6.892   6.085  19.500  0.00  0.00    +0.000 A 
ATOM     10  C   UNL     1       5.920   5.224  19.167  0.00  0.00    +0.000 A 
ATOM     11  C   UNL     1       5.734   4.786  17.773  0.00  0.00    +0.000 A 
ATOM     12  H   UNL     1       8.212   6.614  16.482  0.00  0.00    +0.000 HD
ENDROOT
BRANCH   4  13
ATOM     13  O   UNL     1       7.408   5.524  14.577  0.00  0.00    +0.000 OA
ATOM     14  H   UNL     1       7.930   6.201  15.039  0.00  0.00    +0.000 HD
ENDBRANCH   4  13
BRANCH   1  15
ATOM     15  CA  UNL     1       3.861   3.087  18.360  0.00  0.00    +0.000 C 
BRANCH  15  16
ATOM     16  N   UNL     1       2.667   3.911  18.677  0.00  0.00    +0.000 NA
ATOM     17  H   UNL     1       2.955   4.885  18.569  0.00  0.00    +0.000 HD
BRANCH  16  19
ATOM     18  C   UNL     1       1.673   5.168  20.596  0.00  0.00    +0.000 C 
ATOM     19  C   UNL     1       2.028   3.794  20.005  0.00  0.00    +0.000 C 
ATOM     20  C   UNL     1       2.850   2.980  21.013  0.00  0.00    +0.000 C 
ATOM     21  C   UNL     1       0.702   3.025  19.783  0.00  0.00    +0.000 C 
ENDBRANCH  16  19
ENDBRANCH  15  16
BRANCH  15  22
ATOM     22  C   UNL     1       3.606   1.666  17.769  0.00  0.00    +0.000 C 
BRANCH  22  23
ATOM     23  O   UNL     1       4.288   0.622  18.461  0.00  0.00    +0.000 OA
ATOM     24  H   UNL     1       3.887  -0.218  18.179  0.00  0.00    +0.000 HD
ENDBRANCH  22  23
ENDBRANCH  15  22
ENDBRANCH   1  15
TORSDOF 6
ENDMDL
MODEL 2
REMARK VINA RESULT:      -6.5      1.489      3.276
REMARK  Name = 
REMARK  9 active torsions:
REMARK  status: ('A' for Active; 'I' for Inactive)
REMARK    1  A    between atoms: C_1  and  C_2
REMARK    2  A    between atoms: C_2  and  C_3
REMARK    3  A    between atoms: C_2  and  C_4
REMARK    4  A    between atoms: C_2  and  N_5
REMARK    5  A    between atoms: N_5  and  CA_6
REMARK    6  A    between atoms: CA_6  and  C_7
REMARK    7  A    between atoms: CA_6  and  C_9
REMARK    8  A    between atoms: C_7  and  O_8
REMARK    9  A    between atoms: C_12  and  O_13
REMARK                            x       y       z     vdW  Elec       q    Type
REMARK                         _______ _______ _______ _____ _____    ______ ____
ROOT
ATOM      1  C   UNL     1       4.685   4.360  18.170  0.00  0.00    +0.000 A 
ATOM      2  C   UNL     1       5.176   4.951  19.361  0.00  0.00    +0.000 A 
ATOM      3  C   UNL     1       6.350   5.704  19.384  0.00  0.00    +0.000 A 
ATOM      4  C   UNL     1       7.053   5.892  18.206  0.00  0.00    +0.000 A 
ATOM      5  C   UNL     1       6.594   5.326  17.014  0.00  0.00    +0.000 A 
ATOM      6  N   UNL     1       7.323   5.571  15.837  0.00  0.00    +0.000 N 
ATOM      7  C   UNL     1       6.955   5.113  14.603  0.00  0.00    +0.000 A 
ATOM      8  O   UNL     1       7.590   5.351  13.585  0.00  0.00    +0.000 OA
ATOM      9  C   UNL     1       5.726   4.290  14.555  0.00  0.00    +0.000 A 
ATOM     10  C   UNL     1       5.015   4.021  15.660  0.00  0.00    +0.000 A 
ATOM     11  C   UNL     1       5.419   4.551  16.973  0.00  0.00    +0.000 A 
ATOM     12  H   UNL     1       8.153   6.139  15.903  0.00  0.00    +0.000 HD
ENDROOT
BRANCH   4  13
ATOM     13  O   UNL     1       8.193   6.650  18.184  0.00  0.00    +0.000 OA
ATOM     14  H   UNL     1       8.214   7.201  18.983  0.00  0.00    +0.000 HD
ENDBRANCH   4  13
BRANCH   1  15
ATOM     15  CA  UNL     1       3.321   3.632  18.196  0.00  0.00    +0.000 C 
BRANCH  15  16
ATOM     16  N   UNL     1       3.142   2.929  19.491  0.00  0.00    +0.000 NA
ATOM     17  H   UNL     1       3.025   1.940  19.266  0.00  0.00    +0.000 HD
BRANCH  16  19
ATOM     18  C   UNL     1       0.678   2.756  19.878  0.00  0.00    +0.000 C 
ATOM     19  C   UNL     1       2.023   3.306  20.381  0.00  0.00    +0.000 C 
ATOM     20  C   UNL     1       1.918   4.816  20.630  0.00  0.00    +0.000 C 
ATOM     21  C   UNL     1       2.314   2.645  21.750  0.00  0.00    +0.000 C 
ENDBRANCH  16  19
ENDBRANCH  15  16
BRANCH  15  22
ATOM     22  C   UNL     1       2.239   4.685  17.804  0.00  0.00    +0.000 C 
BRANCH  22  23
ATOM     23  O   UNL     1       1.152   4.145  17.054  0.00  0.00    +0.000 OA
ATOM     24  H   UNL     1       1.521   3.466  16.464  0.00  0.00    +0.000 HD
ENDBRANCH  22  23
ENDBRANCH  15  22
ENDBRANCH   1  15
TORSDOF 6
ENDMDL
MODEL 3
REMARK VINA RESULT:      -6.3      3.906      5.261
REMARK  Name = 
REMARK  9 active torsions:
REMARK  status: ('A' for Active; 'I' for Inactive)
REMARK    1  A    between atoms: C_1  and  C_2
REMARK    2  A    between atoms: C_2  and  C_3
REMARK    3  A    between atoms: C_2  and  C_4
REMARK    4  A    between atoms: C_2  and  N_5
REMARK    5  A    between atoms: N_5  and  CA_6
REMARK    6  A    between atoms: CA_6  and  C_7
REMARK    7  A    between atoms: CA_6  and  C_9
REMARK    8  A    between atoms: C_7  and  O_8
REMARK    9  A    between atoms: C_12  and  O_13
REMARK                            x       y       z     vdW  Elec       q    Type
REMARK                         _______ _______ _______ _____ _____    ______ ____
ROOT
ATOM      1  C   UNL     1       3.117   6.403  18.805  0.00  0.00    +0.000 A 
ATOM      2  C   UNL     1       3.625   6.927  17.590  0.00  0.00    +0.000 A 
ATOM      3  C   UNL     1       3.257   8.187  17.117  0.00  0.00    +0.000 A 
ATOM      4  C   UNL     1       2.379   8.956  17.861  0.00  0.00    +0.000 A 
ATOM      5  C   UNL     1       1.864   8.470  19.066  0.00  0.00    +0.000 A 
ATOM      6  N   UNL     1       1.001   9.299  19.803  0.00  0.00    +0.000 N 
ATOM      7  C   UNL     1       0.467   8.960  21.014  0.00  0.00    +0.000 A 
ATOM      8  O   UNL     1      -0.267   9.700  21.653  0.00  0.00    +0.000 OA
ATOM      9  C   UNL     1       0.821   7.618  21.527  0.00  0.00    +0.000 A 
ATOM     10  C   UNL     1       1.626   6.793  20.842  0.00  0.00    +0.000 A 
ATOM     11  C   UNL     1       2.211   7.196  19.552  0.00  0.00    +0.000 A 
ATOM     12  H   UNL     1       0.783  10.210  19.428  0.00  0.00    +0.000 HD
ENDROOT
BRANCH   4  13
ATOM     13  O   UNL     1       2.019  10.209  17.444  0.00  0.00    +0.000 OA
ATOM     14  H   UNL     1       1.695  10.151  16.530  0.00  0.00    +0.000 HD
ENDBRANCH   4  13
BRANCH   1  15
ATOM     15  CA  UNL     1       3.652   5.048  19.323  0.00  0.00    +0.000 C 
BRANCH  15  16
ATOM     16  N   UNL     1       3.035   3.931  18.564  0.00  0.00    +0.000 NA
ATOM     17  H   UNL     1       2.274   4.341  18.020  0.00  0.00    +0.000 HD
BRANCH  16  19
ATOM     18  C   UNL     1       0.987   2.555  18.964  0.00  0.00    +0.000 C 
ATOM     19  C   UNL     1       2.474   2.773  19.290  0.00  0.00    +0.000 C 
ATOM     20  C   UNL     1       2.677   2.843  20.809  0.00  0.00    +0.000 C 
ATOM     21  C   UNL     1       3.248   1.529  18.791  0.00  0.00    +0.000 C 
ENDBRANCH  16  19
ENDBRANCH  15  16
BRANCH  15  22
ATOM     22  C   UNL     1       5.209   5.141  19.310  0.00  0.00    +0.000 C 
BRANCH  22  23
ATOM     23  O   UNL     1       5.857   3.935  18.908  0.00  0.00    +0.000 OA
ATOM     24  H   UNL     1       6.349   3.604  19.679  0.00  0.00    +0.000 HD
ENDBRANCH  22  23
ENDBRANCH  15  22
ENDBRANCH   1  15
TORSDOF 6
ENDMDL
MODEL 4
REMARK VINA RESULT:      -6.2      2.093      3.695
REMARK  Name = 
REMARK  9 active torsions:
REMARK  status: ('A' for Active; 'I' for Inactive)
REMARK    1  A    between atoms: C_1  and  C_2
REMARK    2  A    between atoms: C_2  and  C_3
REMARK    3  A    between atoms: C_2  and  C_4
REMARK    4  A    between atoms: C_2  and  N_5
REMARK    5  A    between atoms: N_5  and  CA_6
REMARK    6  A    between atoms: CA_6  and  C_7
REMARK    7  A    between atoms: CA_6  and  C_9
REMARK    8  A    between atoms: C_7  and  O_8
REMARK    9  A    between atoms: C_12  and  O_13
REMARK                            x       y       z     vdW  Elec       q    Type
REMARK                         _______ _______ _______ _____ _____    ______ ____
ROOT
ATOM      1  C   UNL     1       4.344   5.230  18.185  0.00  0.00    +0.000 A 
ATOM      2  C   UNL     1       4.909   5.238  19.485  0.00  0.00    +0.000 A 
ATOM      3  C   UNL     1       6.287   5.171  19.693  0.00  0.00    +0.000 A 
ATOM      4  C   UNL     1       7.131   5.108  18.597  0.00  0.00    +0.000 A 
ATOM      5  C   UNL     1       6.606   5.102  17.302  0.00  0.00    +0.000 A 
ATOM      6  N   UNL     1       7.503   5.070  16.220  0.00  0.00    +0.000 N 
ATOM      7  C   UNL     1       7.118   5.106  14.910  0.00  0.00    +0.000 A 
ATOM      8  O   UNL     1       7.912   5.097  13.979  0.00  0.00    +0.000 OA
ATOM      9  C   UNL     1       5.660   5.152  14.661  0.00  0.00    +0.000 A 
ATOM     10  C   UNL     1       4.775   5.166  15.668  0.00  0.00    +0.000 A 
ATOM     11  C   UNL     1       5.218   5.155  17.073  0.00  0.00    +0.000 A 
ATOM     12  H   UNL     1       8.490   5.044  16.423  0.00  0.00    +0.000 HD
ENDROOT
BRANCH   4  13
ATOM     13  O   UNL     1       8.490   5.072  18.761  0.00  0.00    +0.000 OA
ATOM     14  H   UNL     1       8.814   5.982  18.861  0.00  0.00    +0.000 HD
ENDBRANCH   4  13
BRANCH   1  15
ATOM     15  CA  UNL     1       2.817   5.417  18.026  0.00  0.00    +0.000 C 
BRANCH  15  16
ATOM     16  N   UNL     1       2.093   4.555  18.994  0.00  0.00    +0.000 NA
ATOM     17  H   UNL     1       2.537   4.708  19.901  0.00  0.00    +0.000 HD
BRANCH  16  19
ATOM     18  C   UNL     1       2.855   2.327  19.833  0.00  0.00    +0.000 C 
ATOM     19  C   UNL     1       2.041   3.094  18.778  0.00  0.00    +0.000 C 
ATOM     20  C   UNL     1       2.468   2.666  17.367  0.00  0.00    +0.000 C 
ATOM     21  C   UNL     1       0.558   2.682  18.941  0.00  0.00    +0.000 C 
ENDBRANCH  16  19
ENDBRANCH  15  16
BRANCH  15  22
ATOM     22  C   UNL     1       2.540   6.951  18.095  0.00  0.00    +0.000 C 
BRANCH  22  23
ATOM     23  O   UNL     1       2.169   7.413  19.393  0.00  0.00    +0.000 OA
ATOM     24  H   UNL     1       1.557   8.159  19.268  0.00  0.00    +0.000 HD
ENDBRANCH  22  23
ENDBRANCH  15  22
ENDBRANCH   1  15
TORSDOF 6
ENDMDL
MODEL 5
REMARK VINA RESULT:      -6.1      7.137      9.474
REMARK  Name = 
REMARK  9 active torsions:
REMARK  status: ('A' for Active; 'I' for Inactive)
REMARK    1  A    between atoms: C_1  and  C_2
REMARK    2  A    between atoms: C_2  and  C_3
REMARK    3  A    between atoms: C_2  and  C_4
REMARK    4  A    between atoms: C_2  and  N_5
REMARK    5  A    between atoms: N_5  and  CA_6
REMARK    6  A    between atoms: CA_6  and  C_7
REMARK    7  A    between atoms: CA_6  and  C_9
REMARK    8  A    between atoms: C_7  and  O_8
REMARK    9  A    between atoms: C_12  and  O_13
REMARK                            x       y       z     vdW  Elec       q    Type
REMARK                         _______ _______ _______ _____ _____    ______ ____
ROOT
ATOM      1  C   UNL     1      -0.658  11.156  19.433  0.00  0.00    +0.000 A 
ATOM      2  C   UNL     1      -0.994  11.609  20.732  0.00  0.00    +0.000 A 
ATOM      3  C   UNL     1      -0.483  11.006  21.882  0.00  0.00    +0.000 A 
ATOM      4  C   UNL     1       0.390   9.939  21.751  0.00  0.00    +0.000 A 
ATOM      5  C   UNL     1       0.745   9.470  20.483  0.00  0.00    +0.000 A 
ATOM      6  N   UNL     1       1.660   8.406  20.398  0.00  0.00    +0.000 N 
ATOM      7  C   UNL     1       2.120   7.888  19.221  0.00  0.00    +0.000 A 
ATOM      8  O   UNL     1       2.931   6.974  19.164  0.00  0.00    +0.000 OA
ATOM      9  C   UNL     1       1.574   8.494  17.986  0.00  0.00    +0.000 A 
ATOM     10  C   UNL     1       0.686   9.498  18.029  0.00  0.00    +0.000 A 
ATOM     11  C   UNL     1       0.229  10.057  19.312  0.00  0.00    +0.000 A 
ATOM     12  H   UNL     1       2.017   8.019  21.258  0.00  0.00    +0.000 HD
ENDROOT
BRANCH   4  13
ATOM     13  O   UNL     1       0.936   9.341  22.855  0.00  0.00    +0.000 OA
ATOM     14  H   UNL     1       0.216   9.070  23.448  0.00  0.00    +0.000 HD
ENDBRANCH   4  13
BRANCH   1  15
ATOM     15  CA  UNL     1      -1.174  11.941  18.204  0.00  0.00    +0.000 C 
BRANCH  15  16
ATOM     16  N   UNL     1      -2.658  11.951  18.191  0.00  0.00    +0.000 NA
ATOM     17  H   UNL     1      -2.955  11.646  19.120  0.00  0.00    +0.000 HD
BRANCH  16  19
ATOM     18  C   UNL     1      -2.668  11.068  15.852  0.00  0.00    +0.000 C 
ATOM     19  C   UNL     1      -3.388  11.121  17.209  0.00  0.00    +0.000 C 
ATOM     20  C   UNL     1      -4.851  11.543  17.016  0.00  0.00    +0.000 C 
ATOM     21  C   UNL     1      -3.408   9.684  17.784  0.00  0.00    +0.000 C 
ENDBRANCH  16  19
ENDBRANCH  15  16
BRANCH  15  22
ATOM     22  C   UNL     1      -0.454  13.325  18.216  0.00  0.00    +0.000 C 
BRANCH  22  23
ATOM     23  O   UNL     1       0.957  13.244  18.019  0.00  0.00    +0.000 OA
ATOM     24  H   UNL     1       1.110  12.601  17.307  0.00  0.00    +0.000 HD
ENDBRANCH  22  23
ENDBRANCH  15  22
ENDBRANCH   1  15
TORSDOF 6
ENDMDL
MODEL 6
REMARK VINA RESULT:      -6.1      1.882      3.550
REMARK  Name = 
REMARK  9 active torsions:
REMARK  status: ('A' for Active; 'I' for Inactive)
REMARK    1  A    between atoms: C_1  and  C_2
REMARK    2  A    between atoms: C_2  and  C_3
REMARK    3  A    between atoms: C_2  and  C_4
REMARK    4  A    between atoms: C_2  and  N_5
REMARK    5  A    between atoms: N_5  and  CA_6
REMARK    6  A    between atoms: CA_6  and  C_7
REMARK    7  A    between atoms: CA_6  and  C_9
REMARK    8  A    between atoms: C_7  and  O_8
REMARK    9  A    between atoms: C_12  and  O_13
REMARK                            x       y       z     vdW  Elec       q    Type
REMARK                         _______ _______ _______ _____ _____    ______ ____
ROOT
ATOM      1  C   UNL     1       4.838   4.995  17.841  0.00  0.00    +0.000 A 
ATOM      2  C   UNL     1       5.389   5.958  18.722  0.00  0.00    +0.000 A 
ATOM      3  C   UNL     1       6.502   6.725  18.378  0.00  0.00    +0.000 A 
ATOM      4  C   UNL     1       7.080   6.552  17.131  0.00  0.00    +0.000 A 
ATOM      5  C   UNL     1       6.557   5.614  16.237  0.00  0.00    +0.000 A 
ATOM      6  N   UNL     1       7.156   5.496  14.970  0.00  0.00    +0.000 N 
ATOM      7  C   UNL     1       6.714   4.651  13.993  0.00  0.00    +0.000 A 
ATOM      8  O   UNL     1       7.234   4.574  12.889  0.00  0.00    +0.000 OA
ATOM      9  C   UNL     1       5.549   3.807  14.342  0.00  0.00    +0.000 A 
ATOM     10  C   UNL     1       4.964   3.879  15.546  0.00  0.00    +0.000 A 
ATOM     11  C   UNL     1       5.444   4.820  16.572  0.00  0.00    +0.000 A 
ATOM     12  H   UNL     1       7.945   6.090  14.762  0.00  0.00    +0.000 HD
ENDROOT
BRANCH   4  13
ATOM     13  O   UNL     1       8.153   7.309  16.745  0.00  0.00    +0.000 OA
ATOM     14  H   UNL     1       8.926   7.039  17.268  0.00  0.00    +0.000 HD
ENDBRANCH   4  13
BRANCH   1  15
ATOM     15  CA  UNL     1       3.540   4.259  18.245  0.00  0.00    +0.000 C 
BRANCH  15  16
ATOM     16  N   UNL     1       3.542   3.981  19.704  0.00  0.00    +0.000 NA
ATOM     17  H   UNL     1       4.482   4.208  20.036  0.00  0.00    +0.000 HD
BRANCH  16  19
ATOM     18  C   UNL     1       2.474   1.793  19.139  0.00  0.00    +0.000 C 
ATOM     19  C   UNL     1       3.227   2.623  20.192  0.00  0.00    +0.000 C 
ATOM     20  C   UNL     1       2.460   2.610  21.521  0.00  0.00    +0.000 C 
ATOM     21  C   UNL     1       4.585   1.927  20.451  0.00  0.00    +0.000 C 
ENDBRANCH  16  19
ENDBRANCH  15  16
BRANCH  15  22
ATOM     22  C   UNL     1       2.350   5.098  17.684  0.00  0.00    +0.000 C 
BRANCH  22  23
ATOM     23  O   UNL     1       1.219   4.316  17.304  0.00  0.00    +0.000 OA
ATOM     24  H   UNL     1       0.458   4.918  17.253  0.00  0.00    +0.000 HD
ENDBRANCH  22  23
ENDBRANCH  15  22
ENDBRANCH   1  15
TORSDOF 6
ENDMDL
MODEL 7
REMARK VINA RESULT:      -6.1      2.667      5.824
REMARK  Name = 
REMARK  9 active torsions:
REMARK  status: ('A' for Active; 'I' for Inactive)
REMARK    1  A    between atoms: C_1  and  C_2
REMARK    2  A    between atoms: C_2  and  C_3
REMARK    3  A    between atoms: C_2  and  C_4
REMARK    4  A    between atoms: C_2  and  N_5
REMARK    5  A    between atoms: N_5  and  CA_6
REMARK    6  A    between atoms: CA_6  and  C_7
REMARK    7  A    between atoms: CA_6  and  C_9
REMARK    8  A    between atoms: C_7  and  O_8
REMARK    9  A    between atoms: C_12  and  O_13
REMARK                            x       y       z     vdW  Elec       q    Type
REMARK                         _______ _______ _______ _____ _____    ______ ____
ROOT
ATOM      1  C   UNL     1       3.624   5.092  18.096  0.00  0.00    +0.000 A 
ATOM      2  C   UNL     1       3.572   4.443  16.837  0.00  0.00    +0.000 A 
ATOM      3  C   UNL     1       2.958   3.201  16.670  0.00  0.00    +0.000 A 
ATOM      4  C   UNL     1       2.368   2.589  17.763  0.00  0.00    +0.000 A 
ATOM      5  C   UNL     1       2.398   3.205  19.017  0.00  0.00    +0.000 A 
ATOM      6  N   UNL     1       1.758   2.561  20.090  0.00  0.00    +0.000 N 
ATOM      7  C   UNL     1       1.677   3.079  21.352  0.00  0.00    +0.000 A 
ATOM      8  O   UNL     1       1.100   2.515  22.271  0.00  0.00    +0.000 OA
ATOM      9  C   UNL     1       2.343   4.384  21.563  0.00  0.00    +0.000 A 
ATOM     10  C   UNL     1       2.978   5.018  20.567  0.00  0.00    +0.000 A 
ATOM     11  C   UNL     1       3.025   4.450  19.208  0.00  0.00    +0.000 A 
ATOM     12  H   UNL     1       1.309   1.675  19.912  0.00  0.00    +0.000 HD
ENDROOT
BRANCH   4  13
ATOM     13  O   UNL     1       1.729   1.385  17.631  0.00  0.00    +0.000 OA
ATOM     14  H   UNL     1       2.385   0.674  17.723  0.00  0.00    +0.000 HD
ENDBRANCH   4  13
BRANCH   1  15
ATOM     15  CA  UNL     1       4.223   6.515  18.186  0.00  0.00    +0.000 C 
BRANCH  15  16
ATOM     16  N   UNL     1       5.462   6.600  17.372  0.00  0.00    +0.000 NA
ATOM     17  H   UNL     1       5.261   6.116  16.495  0.00  0.00    +0.000 HD
BRANCH  16  19
ATOM     18  C   UNL     1       7.271   4.915  17.002  0.00  0.00    +0.000 C 
ATOM     19  C   UNL     1       6.724   6.038  17.897  0.00  0.00    +0.000 C 
ATOM     20  C   UNL     1       6.624   5.555  19.350  0.00  0.00    +0.000 C 
ATOM     21  C   UNL     1       7.754   7.193  17.879  0.00  0.00    +0.000 C 
ENDBRANCH  16  19
ENDBRANCH  15  16
BRANCH  15  22
ATOM     22  C   UNL     1       3.075   7.512  17.839  0.00  0.00    +0.000 C 
BRANCH  22  23
ATOM     23  O   UNL     1       2.334   7.958  18.973  0.00  0.00    +0.000 OA
ATOM     24  H   UNL     1       2.768   8.764  19.301  0.00  0.00    +0.000 HD
ENDBRANCH  22  23
ENDBRANCH  15  22
ENDBRANCH   1  15
TORSDOF 6
ENDMDL
MODEL 8
REMARK VINA RESULT:      -6.1      2.294      3.782
REMARK  Name = 
REMARK  9 active torsions:
REMARK  status: ('A' for Active; 'I' for Inactive)
REMARK    1  A    between atoms: C_1  and  C_2
REMARK    2  A    between atoms: C_2  and  C_3
REMARK    3  A    between atoms: C_2  and  C_4
REMARK    4  A    between atoms: C_2  and  N_5
REMARK    5  A    between atoms: N_5  and  CA_6
REMARK    6  A    between atoms: CA_6  and  C_7
REMARK    7  A    between atoms: CA_6  and  C_9
REMARK    8  A    between atoms: C_7  and  O_8
REMARK    9  A    between atoms: C_12  and  O_13
REMARK                            x       y       z     vdW  Elec       q    Type
REMARK                         _______ _______ _______ _____ _____    ______ ____
ROOT
ATOM      1  C   UNL     1       4.733   5.399  18.099  0.00  0.00    +0.000 A 
ATOM      2  C   UNL     1       5.476   5.288  19.300  0.00  0.00    +0.000 A 
ATOM      3  C   UNL     1       6.826   4.936  19.305  0.00  0.00    +0.000 A 
ATOM      4  C   UNL     1       7.465   4.701  18.099  0.00  0.00    +0.000 A 
ATOM      5  C   UNL     1       6.762   4.806  16.897  0.00  0.00    +0.000 A 
ATOM      6  N   UNL     1       7.460   4.589  15.696  0.00  0.00    +0.000 N 
ATOM      7  C   UNL     1       6.899   4.705  14.456  0.00  0.00    +0.000 A 
ATOM      8  O   UNL     1       7.524   4.532  13.419  0.00  0.00    +0.000 OA
ATOM      9  C   UNL     1       5.460   5.053  14.423  0.00  0.00    +0.000 A 
ATOM     10  C   UNL     1       4.758   5.248  15.549  0.00  0.00    +0.000 A 
ATOM     11  C   UNL     1       5.396   5.145  16.873  0.00  0.00    +0.000 A 
ATOM     12  H   UNL     1       8.440   4.359  15.752  0.00  0.00    +0.000 HD
ENDROOT
BRANCH   4  13
ATOM     13  O   UNL     1       8.797   4.384  18.063  0.00  0.00    +0.000 OA
ATOM     14  H   UNL     1       8.884   3.417  18.022  0.00  0.00    +0.000 HD
ENDBRANCH   4  13
BRANCH   1  15
ATOM     15  CA  UNL     1       3.271   5.898  18.160  0.00  0.00    +0.000 C 
BRANCH  15  16
ATOM     16  N   UNL     1       2.602   5.372  19.377  0.00  0.00    +0.000 NA
ATOM     17  H   UNL     1       3.321   5.322  20.100  0.00  0.00    +0.000 HD
BRANCH  16  19
ATOM     18  C   UNL     1       0.744   3.977  20.301  0.00  0.00    +0.000 C 
ATOM     19  C   UNL     1       1.938   4.053  19.335  0.00  0.00    +0.000 C 
ATOM     20  C   UNL     1       2.893   2.877  19.581  0.00  0.00    +0.000 C 
ATOM     21  C   UNL     1       1.386   3.888  17.898  0.00  0.00    +0.000 C 
ENDBRANCH  16  19
ENDBRANCH  15  16
BRANCH  15  22
ATOM     22  C   UNL     1       3.315   7.448  17.989  0.00  0.00    +0.000 C 
BRANCH  22  23
ATOM     23  O   UNL     1       2.036   8.076  18.075  0.00  0.00    +0.000 OA
ATOM     24  H   UNL     1       1.645   8.051  17.186  0.00  0.00    +0.000 HD
ENDBRANCH  22  23
ENDBRANCH  15  22
ENDBRANCH   1  15
TORSDOF 6
ENDMDL
MODEL 9
REMARK VINA RESULT:      -6.1      1.841      3.563
REMARK  Name = 
REMARK  9 active torsions:
REMARK  status: ('A' for Active; 'I' for Inactive)
REMARK    1  A    between atoms: C_1  and  C_2
REMARK    2  A    between atoms: C_2  and  C_3
REMARK    3  A    between atoms: C_2  and  C_4
REMARK    4  A    between atoms: C_2  and  N_5
REMARK    5  A    between atoms: N_5  and  CA_6
REMARK    6  A    between atoms: CA_6  and  C_7
REMARK    7  A    between atoms: CA_6  and  C_9
REMARK    8  A    between atoms: C_7  and  O_8
REMARK    9  A    between atoms: C_12  and  O_13
REMARK                            x       y       z     vdW  Elec       q    Type
REMARK                         _______ _______ _______ _____ _____    ______ ____
ROOT
ATOM      1  C   UNL     1       4.956   4.945  17.683  0.00  0.00    +0.000 A 
ATOM      2  C   UNL     1       5.452   5.915  18.589  0.00  0.00    +0.000 A 
ATOM      3  C   UNL     1       6.538   6.732  18.276  0.00  0.00    +0.000 A 
ATOM      4  C   UNL     1       7.144   6.603  17.037  0.00  0.00    +0.000 A 
ATOM      5  C   UNL     1       6.676   5.659  16.119  0.00  0.00    +0.000 A 
ATOM      6  N   UNL     1       7.301   5.586  14.862  0.00  0.00    +0.000 N 
ATOM      7  C   UNL     1       6.910   4.739  13.864  0.00  0.00    +0.000 A 
ATOM      8  O   UNL     1       7.452   4.701  12.769  0.00  0.00    +0.000 OA
ATOM      9  C   UNL     1       5.775   3.843  14.179  0.00  0.00    +0.000 A 
ATOM     10  C   UNL     1       5.167   3.872  15.374  0.00  0.00    +0.000 A 
ATOM     11  C   UNL     1       5.591   4.816  16.423  0.00  0.00    +0.000 A 
ATOM     12  H   UNL     1       8.068   6.214  14.678  0.00  0.00    +0.000 HD
ENDROOT
BRANCH   4  13
ATOM     13  O   UNL     1       8.192   7.409  16.683  0.00  0.00    +0.000 OA
ATOM     14  H   UNL     1       7.863   8.103  16.089  0.00  0.00    +0.000 HD
ENDBRANCH   4  13
BRANCH   1  15
ATOM     15  CA  UNL     1       3.682   4.151  18.052  0.00  0.00    +0.000 C 
BRANCH  15  16
ATOM     16  N   UNL     1       3.748   3.708  19.468  0.00  0.00    +0.000 NA
ATOM     17  H   UNL     1       4.694   3.920  19.790  0.00  0.00    +0.000 HD
BRANCH  16  19
ATOM     18  C   UNL     1       4.502   1.742  20.816  0.00  0.00    +0.000 C 
ATOM     19  C   UNL     1       3.482   2.294  19.806  0.00  0.00    +0.000 C 
ATOM     20  C   UNL     1       3.399   1.374  18.581  0.00  0.00    +0.000 C 
ATOM     21  C   UNL     1       2.090   2.264  20.485  0.00  0.00    +0.000 C 
ENDBRANCH  16  19
ENDBRANCH  15  16
BRANCH  15  22
ATOM     22  C   UNL     1       2.463   5.033  17.640  0.00  0.00    +0.000 C 
BRANCH  22  23
ATOM     23  O   UNL     1       1.259   4.296  17.434  0.00  0.00    +0.000 OA
ATOM     24  H   UNL     1       1.249   3.576  18.088  0.00  0.00    +0.000 HD
ENDBRANCH  22  23
ENDBRANCH  15  22
ENDBRANCH   1  15
TORSDOF 6
ENDMDL
