MODEL 1
REMARK VINA RESULT:      -8.7      0.000      0.000
REMARK  Name = 
REMARK  4 active torsions:
REMARK  status: ('A' for Active; 'I' for Inactive)
REMARK    1  A    between atoms: C_2  and  C_4
REMARK    2  A    between atoms: C_9  and  C_10
REMARK    3  A    between atoms: C_13  and  O_14
REMARK    4  A    between atoms: O_14  and  C_15
REMARK                            x       y       z     vdW  Elec       q    Type
REMARK                         _______ _______ _______ _____ _____    ______ ____
ROOT
ATOM      1  C   UNL     1       0.119   9.792  21.326  0.00  0.00    +0.000 A 
ATOM      2  C   UNL     1      -0.130  10.534  20.158  0.00  0.00    +0.000 A 
ATOM      3  C   UNL     1       0.482  10.196  18.939  0.00  0.00    +0.000 A 
ATOM      4  C   UNL     1       1.340   9.094  18.920  0.00  0.00    +0.000 A 
ATOM      5  N   UNL     1       2.039   8.522  17.892  0.00  0.00    +0.000 NA
ATOM      6  C   UNL     1       2.636   7.486  18.456  0.00  0.00    +0.000 A 
ATOM      7  O   UNL     1       2.410   7.363  19.806  0.00  0.00    +0.000 OA
ATOM      8  C   UNL     1       1.568   8.394  20.093  0.00  0.00    +0.000 A 
ATOM      9  C   UNL     1       1.004   8.703  21.323  0.00  0.00    +0.000 A 
ENDROOT
BRANCH   6  10
ATOM     10  C   UNL     1       3.433   6.441  17.825  0.00  0.00    +0.000 A 
ATOM     11  C   UNL     1       4.565   6.789  17.074  0.00  0.00    +0.000 A 
ATOM     12  C   UNL     1       5.314   5.811  16.415  0.00  0.00    +0.000 A 
ATOM     13  C   UNL     1       4.941   4.470  16.495  0.00  0.00    +0.000 A 
ATOM     14  C   UNL     1       3.792   4.117  17.206  0.00  0.00    +0.000 A 
ATOM     15  C   UNL     1       3.063   5.090  17.894  0.00  0.00    +0.000 A 
BRANCH  13  16
ATOM     16  O   UNL     1       5.723   3.586  15.788  0.00  0.00    +0.000 OA
BRANCH  16  17
ATOM     17  C   UNL     1       6.252   3.953  14.573  0.00  0.00    +0.000 A 
ATOM     18  C   UNL     1       5.645   3.389  13.448  0.00  0.00    +0.000 A 
ATOM     19  C   UNL     1       6.109   3.702  12.171  0.00  0.00    +0.000 A 
ATOM     20  C   UNL     1       7.184   4.577  12.015  0.00  0.00    +0.000 A 
ATOM     21  C   UNL     1       7.771   5.166  13.133  0.00  0.00    +0.000 A 
ATOM     22  C   UNL     1       7.285   4.879  14.408  0.00  0.00    +0.000 A 
ENDBRANCH  16  17
ENDBRANCH  13  16
ENDBRANCH   6  10
BRANCH   1  24
ATOM     23  N   UNL     1      -0.303   9.324  23.677  0.00  0.00    +0.000 N 
ATOM     24  C   UNL     1      -0.541  10.142  22.611  0.00  0.00    +0.000 C 
ATOM     25  O   UNL     1      -1.236  11.146  22.722  0.00  0.00    +0.000 OA
ATOM     26  H   UNL     1      -0.668   9.634  24.569  0.00  0.00    +0.000 HD
ATOM     27  H   UNL     1       0.454   8.655  23.690  0.00  0.00    +0.000 HD
ENDBRANCH   1  24
TORSDOF 4
ENDMDL
MODEL 2
REMARK VINA RESULT:      -8.6      2.707      9.408
REMARK  Name = 
REMARK  4 active torsions:
REMARK  status: ('A' for Active; 'I' for Inactive)
REMARK    1  A    between atoms: C_2  and  C_4
REMARK    2  A    between atoms: C_9  and  C_10
REMARK    3  A    between atoms: C_13  and  O_14
REMARK    4  A    between atoms: O_14  and  C_15
REMARK                            x       y       z     vdW  Elec       q    Type
REMARK                         _______ _______ _______ _____ _____    ______ ____
ROOT
ATOM      1  C   UNL     1       5.669   4.834  15.745  0.00  0.00    +0.000 A 
ATOM      2  C   UNL     1       5.097   3.768  16.461  0.00  0.00    +0.000 A 
ATOM      3  C   UNL     1       4.118   3.995  17.442  0.00  0.00    +0.000 A 
ATOM      4  C   UNL     1       3.722   5.314  17.680  0.00  0.00    +0.000 A 
ATOM      5  N   UNL     1       2.785   5.827  18.535  0.00  0.00    +0.000 NA
ATOM      6  C   UNL     1       2.814   7.126  18.291  0.00  0.00    +0.000 A 
ATOM      7  O   UNL     1       3.744   7.510  17.356  0.00  0.00    +0.000 OA
ATOM      8  C   UNL     1       4.316   6.339  16.961  0.00  0.00    +0.000 A 
ATOM      9  C   UNL     1       5.301   6.164  15.999  0.00  0.00    +0.000 A 
ENDROOT
BRANCH   6  10
ATOM     10  C   UNL     1       1.952   8.172  18.828  0.00  0.00    +0.000 A 
ATOM     11  C   UNL     1       1.459   9.170  17.975  0.00  0.00    +0.000 A 
ATOM     12  C   UNL     1       0.675  10.214  18.474  0.00  0.00    +0.000 A 
ATOM     13  C   UNL     1       0.374  10.275  19.834  0.00  0.00    +0.000 A 
ATOM     14  C   UNL     1       0.894   9.310  20.698  0.00  0.00    +0.000 A 
ATOM     15  C   UNL     1       1.648   8.247  20.195  0.00  0.00    +0.000 A 
BRANCH  13  16
ATOM     16  O   UNL     1      -0.379  11.356  20.234  0.00  0.00    +0.000 OA
BRANCH  16  17
ATOM     17  C   UNL     1       0.043  12.632  19.948  0.00  0.00    +0.000 A 
ATOM     18  C   UNL     1       1.204  13.052  20.603  0.00  0.00    +0.000 A 
ATOM     19  C   UNL     1       1.712  14.332  20.377  0.00  0.00    +0.000 A 
ATOM     20  C   UNL     1       1.059  15.195  19.499  0.00  0.00    +0.000 A 
ATOM     21  C   UNL     1      -0.081  14.769  18.820  0.00  0.00    +0.000 A 
ATOM     22  C   UNL     1      -0.569  13.479  19.020  0.00  0.00    +0.000 A 
ENDBRANCH  16  17
ENDBRANCH  13  16
ENDBRANCH   6  10
BRANCH   1  24
ATOM     23  N   UNL     1       6.458   3.572  13.819  0.00  0.00    +0.000 N 
ATOM     24  C   UNL     1       6.695   4.590  14.697  0.00  0.00    +0.000 C 
ATOM     25  O   UNL     1       7.692   5.296  14.599  0.00  0.00    +0.000 OA
ATOM     26  H   UNL     1       7.107   3.487  13.047  0.00  0.00    +0.000 HD
ATOM     27  H   UNL     1       5.547   3.150  13.709  0.00  0.00    +0.000 HD
ENDBRANCH   1  24
TORSDOF 4
ENDMDL
MODEL 3
REMARK VINA RESULT:      -8.5      6.306      8.260
REMARK  Name = 
REMARK  4 active torsions:
REMARK  status: ('A' for Active; 'I' for Inactive)
REMARK    1  A    between atoms: C_2  and  C_4
REMARK    2  A    between atoms: C_9  and  C_10
REMARK    3  A    between atoms: C_13  and  O_14
REMARK    4  A    between atoms: O_14  and  C_15
REMARK                            x       y       z     vdW  Elec       q    Type
REMARK                         _______ _______ _______ _____ _____    ______ ____
ROOT
ATOM      1  C   UNL     1      10.411  13.577  18.196  0.00  0.00    +0.000 A 
ATOM      2  C   UNL     1      10.908  13.269  19.475  0.00  0.00    +0.000 A 
ATOM      3  C   UNL     1      10.618  12.039  20.088  0.00  0.00    +0.000 A 
ATOM      4  C   UNL     1       9.828  11.125  19.386  0.00  0.00    +0.000 A 
ATOM      5  N   UNL     1       9.416   9.862  19.711  0.00  0.00    +0.000 NA
ATOM      6  C   UNL     1       8.737   9.469  18.647  0.00  0.00    +0.000 A 
ATOM      7  O   UNL     1       8.637  10.412  17.654  0.00  0.00    +0.000 OA
ATOM      8  C   UNL     1       9.349  11.470  18.132  0.00  0.00    +0.000 A 
ATOM      9  C   UNL     1       9.591  12.680  17.496  0.00  0.00    +0.000 A 
ENDROOT
BRANCH   6  10
ATOM     10  C   UNL     1       8.152   8.161  18.373  0.00  0.00    +0.000 A 
ATOM     11  C   UNL     1       7.189   8.031  17.361  0.00  0.00    +0.000 A 
ATOM     12  C   UNL     1       6.574   6.801  17.115  0.00  0.00    +0.000 A 
ATOM     13  C   UNL     1       6.912   5.683  17.877  0.00  0.00    +0.000 A 
ATOM     14  C   UNL     1       7.838   5.812  18.914  0.00  0.00    +0.000 A 
ATOM     15  C   UNL     1       8.479   7.033  19.138  0.00  0.00    +0.000 A 
BRANCH  13  16
ATOM     16  O   UNL     1       6.230   4.525  17.579  0.00  0.00    +0.000 OA
BRANCH  16  17
ATOM     17  C   UNL     1       4.899   4.407  17.900  0.00  0.00    +0.000 A 
ATOM     18  C   UNL     1       4.573   4.620  19.242  0.00  0.00    +0.000 A 
ATOM     19  C   UNL     1       3.248   4.524  19.665  0.00  0.00    +0.000 A 
ATOM     20  C   UNL     1       2.245   4.211  18.748  0.00  0.00    +0.000 A 
ATOM     21  C   UNL     1       2.561   4.029  17.404  0.00  0.00    +0.000 A 
ATOM     22  C   UNL     1       3.881   4.159  16.975  0.00  0.00    +0.000 A 
ENDBRANCH  16  17
ENDBRANCH  13  16
ENDBRANCH   6  10
BRANCH   1  24
ATOM     23  N   UNL     1      11.158  14.830  16.248  0.00  0.00    +0.000 N 
ATOM     24  C   UNL     1      10.731  14.874  17.544  0.00  0.00    +0.000 C 
ATOM     25  O   UNL     1      10.579  15.940  18.128  0.00  0.00    +0.000 OA
ATOM     26  H   UNL     1      11.266  15.723  15.782  0.00  0.00    +0.000 HD
ATOM     27  H   UNL     1      11.046  14.012  15.666  0.00  0.00    +0.000 HD
ENDBRANCH   1  24
TORSDOF 4
ENDMDL
MODEL 4
REMARK VINA RESULT:      -8.5      0.422      1.427
REMARK  Name = 
REMARK  4 active torsions:
REMARK  status: ('A' for Active; 'I' for Inactive)
REMARK    1  A    between atoms: C_2  and  C_4
REMARK    2  A    between atoms: C_9  and  C_10
REMARK    3  A    between atoms: C_13  and  O_14
REMARK    4  A    between atoms: O_14  and  C_15
REMARK                            x       y       z     vdW  Elec       q    Type
REMARK                         _______ _______ _______ _____ _____    ______ ____
ROOT
ATOM      1  C   UNL     1       0.052  10.005  21.361  0.00  0.00    +0.000 A 
ATOM      2  C   UNL     1      -0.412  10.666  20.210  0.00  0.00    +0.000 A 
ATOM      3  C   UNL     1       0.099  10.354  18.939  0.00  0.00    +0.000 A 
ATOM      4  C   UNL     1       1.076   9.359  18.851  0.00  0.00    +0.000 A 
ATOM      5  N   UNL     1       1.721   8.832  17.766  0.00  0.00    +0.000 NA
ATOM      6  C   UNL     1       2.497   7.896  18.285  0.00  0.00    +0.000 A 
ATOM      7  O   UNL     1       2.437   7.801  19.654  0.00  0.00    +0.000 OA
ATOM      8  C   UNL     1       1.514   8.738  20.009  0.00  0.00    +0.000 A 
ATOM      9  C   UNL     1       1.055   9.027  21.286  0.00  0.00    +0.000 A 
ENDROOT
BRANCH   6  10
ATOM     10  C   UNL     1       3.338   6.926  17.595  0.00  0.00    +0.000 A 
ATOM     11  C   UNL     1       3.085   5.555  17.750  0.00  0.00    +0.000 A 
ATOM     12  C   UNL     1       3.909   4.603  17.143  0.00  0.00    +0.000 A 
ATOM     13  C   UNL     1       5.000   5.009  16.374  0.00  0.00    +0.000 A 
ATOM     14  C   UNL     1       5.285   6.370  16.248  0.00  0.00    +0.000 A 
ATOM     15  C   UNL     1       4.441   7.322  16.825  0.00  0.00    +0.000 A 
BRANCH  13  16
ATOM     16  O   UNL     1       5.768   3.998  15.842  0.00  0.00    +0.000 OA
BRANCH  16  17
ATOM     17  C   UNL     1       6.181   4.064  14.533  0.00  0.00    +0.000 A 
ATOM     18  C   UNL     1       7.293   4.872  14.283  0.00  0.00    +0.000 A 
ATOM     19  C   UNL     1       7.789   5.001  12.986  0.00  0.00    +0.000 A 
ATOM     20  C   UNL     1       7.171   4.325  11.934  0.00  0.00    +0.000 A 
ATOM     21  C   UNL     1       6.082   3.494  12.183  0.00  0.00    +0.000 A 
ATOM     22  C   UNL     1       5.607   3.338  13.485  0.00  0.00    +0.000 A 
ENDBRANCH  16  17
ENDBRANCH  13  16
ENDBRANCH   6  10
BRANCH   1  24
ATOM     23  N   UNL     1      -0.805   9.277  23.519  0.00  0.00    +0.000 N 
ATOM     24  C   UNL     1      -0.500  10.327  22.703  0.00  0.00    +0.000 C 
ATOM     25  O   UNL     1      -0.638  11.486  23.078  0.00  0.00    +0.000 OA
ATOM     26  H   UNL     1      -1.075   9.510  24.467  0.00  0.00    +0.000 HD
ATOM     27  H   UNL     1      -0.467   8.340  23.349  0.00  0.00    +0.000 HD
ENDBRANCH   1  24
TORSDOF 4
ENDMDL
MODEL 5
REMARK VINA RESULT:      -8.4      3.671      5.175
REMARK  Name = 
REMARK  4 active torsions:
REMARK  status: ('A' for Active; 'I' for Inactive)
REMARK    1  A    between atoms: C_2  and  C_4
REMARK    2  A    between atoms: C_9  and  C_10
REMARK    3  A    between atoms: C_13  and  O_14
REMARK    4  A    between atoms: O_14  and  C_15
REMARK                            x       y       z     vdW  Elec       q    Type
REMARK                         _______ _______ _______ _____ _____    ______ ____
ROOT
ATOM      1  C   UNL     1      -2.992  12.596  23.080  0.00  0.00    +0.000 A 
ATOM      2  C   UNL     1      -3.163  13.361  21.912  0.00  0.00    +0.000 A 
ATOM      3  C   UNL     1      -2.420  13.091  20.752  0.00  0.00    +0.000 A 
ATOM      4  C   UNL     1      -1.509  12.032  20.788  0.00  0.00    +0.000 A 
ATOM      5  N   UNL     1      -0.686  11.526  19.820  0.00  0.00    +0.000 NA
ATOM      6  C   UNL     1      -0.094  10.503  20.413  0.00  0.00    +0.000 A 
ATOM      7  O   UNL     1      -0.444  10.327  21.730  0.00  0.00    +0.000 OA
ATOM      8  C   UNL     1      -1.361  11.307  21.960  0.00  0.00    +0.000 A 
ATOM      9  C   UNL     1      -2.057  11.551  23.136  0.00  0.00    +0.000 A 
ENDROOT
BRANCH   6  10
ATOM     10  C   UNL     1       0.811   9.516  19.836  0.00  0.00    +0.000 A 
ATOM     11  C   UNL     1       1.156   9.601  18.479  0.00  0.00    +0.000 A 
ATOM     12  C   UNL     1       1.978   8.637  17.889  0.00  0.00    +0.000 A 
ATOM     13  C   UNL     1       2.467   7.574  18.647  0.00  0.00    +0.000 A 
ATOM     14  C   UNL     1       2.097   7.458  19.989  0.00  0.00    +0.000 A 
ATOM     15  C   UNL     1       1.304   8.440  20.587  0.00  0.00    +0.000 A 
BRANCH  13  16
ATOM     16  O   UNL     1       3.244   6.662  17.970  0.00  0.00    +0.000 OA
BRANCH  16  17
ATOM     17  C   UNL     1       3.130   5.321  18.247  0.00  0.00    +0.000 A 
ATOM     18  C   UNL     1       1.968   4.699  17.782  0.00  0.00    +0.000 A 
ATOM     19  C   UNL     1       1.761   3.338  18.013  0.00  0.00    +0.000 A 
ATOM     20  C   UNL     1       2.714   2.598  18.712  0.00  0.00    +0.000 A 
ATOM     21  C   UNL     1       3.887   3.207  19.150  0.00  0.00    +0.000 A 
ATOM     22  C   UNL     1       4.110   4.559  18.890  0.00  0.00    +0.000 A 
ENDBRANCH  16  17
ENDBRANCH  13  16
ENDBRANCH   6  10
BRANCH   1  24
ATOM     23  N   UNL     1      -3.583  14.074  24.920  0.00  0.00    +0.000 N 
ATOM     24  C   UNL     1      -3.790  12.875  24.302  0.00  0.00    +0.000 C 
ATOM     25  O   UNL     1      -4.629  12.082  24.714  0.00  0.00    +0.000 OA
ATOM     26  H   UNL     1      -4.209  14.297  25.684  0.00  0.00    +0.000 HD
ATOM     27  H   UNL     1      -3.104  14.842  24.472  0.00  0.00    +0.000 HD
ENDBRANCH   1  24
TORSDOF 4
ENDMDL
MODEL 6
REMARK VINA RESULT:      -8.4      6.223      8.142
REMARK  Name = 
REMARK  4 active torsions:
REMARK  status: ('A' for Active; 'I' for Inactive)
REMARK    1  A    between atoms: C_2  and  C_4
REMARK    2  A    between atoms: C_9  and  C_10
REMARK    3  A    between atoms: C_13  and  O_14
REMARK    4  A    between atoms: O_14  and  C_15
REMARK                            x       y       z     vdW  Elec       q    Type
REMARK                         _______ _______ _______ _____ _____    ______ ____
ROOT
ATOM      1  C   UNL     1      10.545  13.403  18.333  0.00  0.00    +0.000 A 
ATOM      2  C   UNL     1      11.042  12.988  19.581  0.00  0.00    +0.000 A 
ATOM      3  C   UNL     1      10.698  11.738  20.120  0.00  0.00    +0.000 A 
ATOM      4  C   UNL     1       9.853  10.912  19.374  0.00  0.00    +0.000 A 
ATOM      5  N   UNL     1       9.381   9.653  19.625  0.00  0.00    +0.000 NA
ATOM      6  C   UNL     1       8.669   9.363  18.550  0.00  0.00    +0.000 A 
ATOM      7  O   UNL     1       8.604  10.372  17.620  0.00  0.00    +0.000 OA
ATOM      8  C   UNL     1       9.375  11.360  18.153  0.00  0.00    +0.000 A 
ATOM      9  C   UNL     1       9.671  12.595  17.591  0.00  0.00    +0.000 A 
ENDROOT
BRANCH   6  10
ATOM     10  C   UNL     1       8.014   8.108  18.203  0.00  0.00    +0.000 A 
ATOM     11  C   UNL     1       7.089   8.076  17.149  0.00  0.00    +0.000 A 
ATOM     12  C   UNL     1       6.408   6.898  16.831  0.00  0.00    +0.000 A 
ATOM     13  C   UNL     1       6.640   5.734  17.564  0.00  0.00    +0.000 A 
ATOM     14  C   UNL     1       7.528   5.766  18.642  0.00  0.00    +0.000 A 
ATOM     15  C   UNL     1       8.235   6.934  18.937  0.00  0.00    +0.000 A 
BRANCH  13  16
ATOM     16  O   UNL     1       5.900   4.634  17.195  0.00  0.00    +0.000 OA
BRANCH  16  17
ATOM     17  C   UNL     1       4.551   4.593  17.455  0.00  0.00    +0.000 A 
ATOM     18  C   UNL     1       3.913   3.381  17.181  0.00  0.00    +0.000 A 
ATOM     19  C   UNL     1       2.545   3.240  17.414  0.00  0.00    +0.000 A 
ATOM     20  C   UNL     1       1.811   4.313  17.918  0.00  0.00    +0.000 A 
ATOM     21  C   UNL     1       2.449   5.513  18.222  0.00  0.00    +0.000 A 
ATOM     22  C   UNL     1       3.822   5.643  18.021  0.00  0.00    +0.000 A 
ENDBRANCH  16  17
ENDBRANCH  13  16
ENDBRANCH   6  10
BRANCH   1  24
ATOM     23  N   UNL     1       9.937  15.436  17.140  0.00  0.00    +0.000 N 
ATOM     24  C   UNL     1      10.922  14.721  17.759  0.00  0.00    +0.000 C 
ATOM     25  O   UNL     1      12.058  15.168  17.870  0.00  0.00    +0.000 OA
ATOM     26  H   UNL     1      10.180  16.375  16.852  0.00  0.00    +0.000 HD
ATOM     27  H   UNL     1       8.957  15.223  17.257  0.00  0.00    +0.000 HD
ENDBRANCH   1  24
TORSDOF 4
ENDMDL
MODEL 7
REMARK VINA RESULT:      -8.4      5.997      7.919
REMARK  Name = 
REMARK  4 active torsions:
REMARK  status: ('A' for Active; 'I' for Inactive)
REMARK    1  A    between atoms: C_2  and  C_4
REMARK    2  A    between atoms: C_9  and  C_10
REMARK    3  A    between atoms: C_13  and  O_14
REMARK    4  A    between atoms: O_14  and  C_15
REMARK                            x       y       z     vdW  Elec       q    Type
REMARK                         _______ _______ _______ _____ _____    ______ ____
ROOT
ATOM      1  C   UNL     1       9.839  13.508  18.202  0.00  0.00    +0.000 A 
ATOM      2  C   UNL     1      10.676  13.064  19.242  0.00  0.00    +0.000 A 
ATOM      3  C   UNL     1      10.608  11.744  19.714  0.00  0.00    +0.000 A 
ATOM      4  C   UNL     1       9.689  10.879  19.114  0.00  0.00    +0.000 A 
ATOM      5  N   UNL     1       9.427   9.555  19.339  0.00  0.00    +0.000 NA
ATOM      6  C   UNL     1       8.498   9.262  18.445  0.00  0.00    +0.000 A 
ATOM      7  O   UNL     1       8.097  10.323  17.670  0.00  0.00    +0.000 OA
ATOM      8  C   UNL     1       8.875  11.355  18.099  0.00  0.00    +0.000 A 
ATOM      9  C   UNL     1       8.892  12.656  17.615  0.00  0.00    +0.000 A 
ENDROOT
BRANCH   6  10
ATOM     10  C   UNL     1       7.907   7.964  18.139  0.00  0.00    +0.000 A 
ATOM     11  C   UNL     1       6.951   7.862  17.118  0.00  0.00    +0.000 A 
ATOM     12  C   UNL     1       6.330   6.641  16.840  0.00  0.00    +0.000 A 
ATOM     13  C   UNL     1       6.656   5.505  17.581  0.00  0.00    +0.000 A 
ATOM     14  C   UNL     1       7.576   5.606  18.627  0.00  0.00    +0.000 A 
ATOM     15  C   UNL     1       8.222   6.818  18.881  0.00  0.00    +0.000 A 
BRANCH  13  16
ATOM     16  O   UNL     1       5.970   4.358  17.253  0.00  0.00    +0.000 OA
BRANCH  16  17
ATOM     17  C   UNL     1       4.800   4.045  17.903  0.00  0.00    +0.000 A 
ATOM     18  C   UNL     1       3.621   4.322  17.206  0.00  0.00    +0.000 A 
ATOM     19  C   UNL     1       2.383   4.039  17.782  0.00  0.00    +0.000 A 
ATOM     20  C   UNL     1       2.320   3.481  19.059  0.00  0.00    +0.000 A 
ATOM     21  C   UNL     1       3.493   3.175  19.744  0.00  0.00    +0.000 A 
ATOM     22  C   UNL     1       4.731   3.427  19.155  0.00  0.00    +0.000 A 
ENDBRANCH  16  17
ENDBRANCH  13  16
ENDBRANCH   6  10
BRANCH   1  24
ATOM     23  N   UNL     1       8.761  15.483  17.276  0.00  0.00    +0.000 N 
ATOM     24  C   UNL     1       9.923  14.902  17.694  0.00  0.00    +0.000 C 
ATOM     25  O   UNL     1      10.981  15.520  17.689  0.00  0.00    +0.000 OA
ATOM     26  H   UNL     1       8.812  16.466  17.037  0.00  0.00    +0.000 HD
ATOM     27  H   UNL     1       7.851  15.108  17.505  0.00  0.00    +0.000 HD
ENDBRANCH   1  24
TORSDOF 4
ENDMDL
MODEL 8
REMARK VINA RESULT:      -8.4      2.590      9.624
REMARK  Name = 
REMARK  4 active torsions:
REMARK  status: ('A' for Active; 'I' for Inactive)
REMARK    1  A    between atoms: C_2  and  C_4
REMARK    2  A    between atoms: C_9  and  C_10
REMARK    3  A    between atoms: C_13  and  O_14
REMARK    4  A    between atoms: O_14  and  C_15
REMARK                            x       y       z     vdW  Elec       q    Type
REMARK                         _______ _______ _______ _____ _____    ______ ____
ROOT
ATOM      1  C   UNL     1       5.501   4.952  15.833  0.00  0.00    +0.000 A 
ATOM      2  C   UNL     1       4.821   3.921  16.507  0.00  0.00    +0.000 A 
ATOM      3  C   UNL     1       3.822   4.208  17.451  0.00  0.00    +0.000 A 
ATOM      4  C   UNL     1       3.517   5.549  17.696  0.00  0.00    +0.000 A 
ATOM      5  N   UNL     1       2.587   6.119  18.521  0.00  0.00    +0.000 NA
ATOM      6  C   UNL     1       2.723   7.416  18.302  0.00  0.00    +0.000 A 
ATOM      7  O   UNL     1       3.717   7.742  17.412  0.00  0.00    +0.000 OA
ATOM      8  C   UNL     1       4.215   6.536  17.020  0.00  0.00    +0.000 A 
ATOM      9  C   UNL     1       5.224   6.301  16.095  0.00  0.00    +0.000 A 
ENDROOT
BRANCH   6  10
ATOM     10  C   UNL     1       1.920   8.516  18.822  0.00  0.00    +0.000 A 
ATOM     11  C   UNL     1       1.782   9.691  18.068  0.00  0.00    +0.000 A 
ATOM     12  C   UNL     1       1.063  10.780  18.567  0.00  0.00    +0.000 A 
ATOM     13  C   UNL     1       0.473  10.711  19.829  0.00  0.00    +0.000 A 
ATOM     14  C   UNL     1       0.640   9.562  20.605  0.00  0.00    +0.000 A 
ATOM     15  C   UNL     1       1.328   8.460  20.092  0.00  0.00    +0.000 A 
BRANCH  13  16
ATOM     16  O   UNL     1      -0.188  11.845  20.244  0.00  0.00    +0.000 OA
BRANCH  16  17
ATOM     17  C   UNL     1      -1.529  11.995  19.980  0.00  0.00    +0.000 A 
ATOM     18  C   UNL     1      -1.994  11.383  18.814  0.00  0.00    +0.000 A 
ATOM     19  C   UNL     1      -3.340  11.478  18.461  0.00  0.00    +0.000 A 
ATOM     20  C   UNL     1      -4.224  12.190  19.272  0.00  0.00    +0.000 A 
ATOM     21  C   UNL     1      -3.770  12.775  20.452  0.00  0.00    +0.000 A 
ATOM     22  C   UNL     1      -2.432  12.651  20.822  0.00  0.00    +0.000 A 
ENDBRANCH  16  17
ENDBRANCH  13  16
ENDBRANCH   6  10
BRANCH   1  24
ATOM     23  N   UNL     1       6.337   3.566  14.015  0.00  0.00    +0.000 N 
ATOM     24  C   UNL     1       6.548   4.645  14.824  0.00  0.00    +0.000 C 
ATOM     25  O   UNL     1       7.540   5.353  14.693  0.00  0.00    +0.000 OA
ATOM     26  H   UNL     1       7.001   3.433  13.262  0.00  0.00    +0.000 HD
ATOM     27  H   UNL     1       5.432   3.127  13.920  0.00  0.00    +0.000 HD
ENDBRANCH   1  24
TORSDOF 4
ENDMDL
MODEL 9
REMARK VINA RESULT:      -8.4      3.522     10.545
REMARK  Name = 
REMARK  4 active torsions:
REMARK  status: ('A' for Active; 'I' for Inactive)
REMARK    1  A    between atoms: C_2  and  C_4
REMARK    2  A    between atoms: C_9  and  C_10
REMARK    3  A    between atoms: C_13  and  O_14
REMARK    4  A    between atoms: O_14  and  C_15
REMARK                            x       y       z     vdW  Elec       q    Type
REMARK                         _______ _______ _______ _____ _____    ______ ____
ROOT
ATOM      1  C   UNL     1       3.384   4.656  19.431  0.00  0.00    +0.000 A 
ATOM      2  C   UNL     1       3.754   5.457  18.336  0.00  0.00    +0.000 A 
ATOM      3  C   UNL     1       3.265   6.766  18.197  0.00  0.00    +0.000 A 
ATOM      4  C   UNL     1       2.404   7.254  19.184  0.00  0.00    +0.000 A 
ATOM      5  N   UNL     1       1.807   8.476  19.328  0.00  0.00    +0.000 NA
ATOM      6  C   UNL     1       1.149   8.373  20.469  0.00  0.00    +0.000 A 
ATOM      7  O   UNL     1       1.238   7.141  21.070  0.00  0.00    +0.000 OA
ATOM      8  C   UNL     1       2.054   6.431  20.242  0.00  0.00    +0.000 A 
ATOM      9  C   UNL     1       2.496   5.125  20.411  0.00  0.00    +0.000 A 
ENDROOT
BRANCH   6  10
ATOM     10  C   UNL     1       0.412   9.404  21.191  0.00  0.00    +0.000 A 
ATOM     11  C   UNL     1       0.413  10.722  20.710  0.00  0.00    +0.000 A 
ATOM     12  C   UNL     1      -0.240  11.739  21.412  0.00  0.00    +0.000 A 
ATOM     13  C   UNL     1      -0.903  11.452  22.605  0.00  0.00    +0.000 A 
ATOM     14  C   UNL     1      -0.875  10.152  23.113  0.00  0.00    +0.000 A 
ATOM     15  C   UNL     1      -0.252   9.129  22.394  0.00  0.00    +0.000 A 
BRANCH  13  16
ATOM     16  O   UNL     1      -1.490  12.525  23.237  0.00  0.00    +0.000 OA
BRANCH  16  17
ATOM     17  C   UNL     1      -2.856  12.681  23.203  0.00  0.00    +0.000 A 
ATOM     18  C   UNL     1      -3.413  12.906  21.942  0.00  0.00    +0.000 A 
ATOM     19  C   UNL     1      -4.791  13.075  21.804  0.00  0.00    +0.000 A 
ATOM     20  C   UNL     1      -5.614  13.023  22.929  0.00  0.00    +0.000 A 
ATOM     21  C   UNL     1      -5.066  12.767  24.183  0.00  0.00    +0.000 A 
ATOM     22  C   UNL     1      -3.693  12.565  24.316  0.00  0.00    +0.000 A 
ENDBRANCH  16  17
ENDBRANCH  13  16
ENDBRANCH   6  10
BRANCH   1  24
ATOM     23  N   UNL     1       5.250   3.096  19.369  0.00  0.00    +0.000 N 
ATOM     24  C   UNL     1       3.914   3.276  19.584  0.00  0.00    +0.000 C 
ATOM     25  O   UNL     1       3.194   2.347  19.928  0.00  0.00    +0.000 OA
ATOM     26  H   UNL     1       5.618   2.177  19.582  0.00  0.00    +0.000 HD
ATOM     27  H   UNL     1       5.905   3.864  19.342  0.00  0.00    +0.000 HD
ENDBRANCH   1  24
TORSDOF 4
ENDMDL
