MODEL 1
REMARK VINA RESULT:      -6.8      0.000      0.000
REMARK  Name = 
REMARK  4 active torsions:
REMARK  status: ('A' for Active; 'I' for Inactive)
REMARK    1  A    between atoms: C_1  and  C_2
REMARK    2  A    between atoms: N_4  and  C_5
REMARK    3  A    between atoms: C_8  and  C_9
REMARK    4  A    between atoms: C_9  and  N_10
REMARK                            x       y       z     vdW  Elec       q    Type
REMARK                         _______ _______ _______ _____ _____    ______ ____
ROOT
ATOM      1  C   UNL     1       6.544   5.487  16.057  0.00  0.00    +0.000 A 
ATOM      2  C   UNL     1       7.086   4.793  17.158  0.00  0.00    +0.000 A 
ATOM      3  C   UNL     1       6.366   4.687  18.366  0.00  0.00    +0.000 A 
ATOM      4  C   UNL     1       5.100   5.292  18.501  0.00  0.00    +0.000 A 
ATOM      5  C   UNL     1       4.592   6.011  17.417  0.00  0.00    +0.000 A 
ATOM      6  C   UNL     1       5.296   6.114  16.223  0.00  0.00    +0.000 A 
ENDROOT
BRANCH   1  10
ATOM      7  C   UNL     1       7.757   4.909  12.387  0.00  0.00    +0.000 C 
ATOM      8  C   UNL     1       7.026   4.664  13.681  0.00  0.00    +0.000 C 
ATOM      9  N   UNL     1       6.244   3.652  13.776  0.00  0.00    +0.000 NA
ATOM     10  N   UNL     1       7.264   5.530  14.808  0.00  0.00    +0.000 N 
ATOM     11  H   UNL     1       6.079   2.998  12.999  0.00  0.00    +0.000 HD
ATOM     12  H   UNL     1       8.055   6.190  14.731  0.00  0.00    +0.000 HD
ENDBRANCH   1  10
BRANCH   4  13
ATOM     13  C   UNL     1       4.209   5.134  19.726  0.00  0.00    +0.000 C 
BRANCH  13  14
ATOM     14  N   UNL     1       3.180   4.079  19.692  0.00  0.00    +0.000 NA
ATOM     15  C   UNL     1       3.555   2.694  19.368  0.00  0.00    +0.000 C 
ATOM     16  C   UNL     1       3.172   2.373  17.919  0.00  0.00    +0.000 C 
ATOM     17  O   UNL     1       1.792   2.618  17.701  0.00  0.00    +0.000 OA
ATOM     18  C   UNL     1       1.508   3.994  17.880  0.00  0.00    +0.000 C 
ATOM     19  C   UNL     1       1.801   4.420  19.323  0.00  0.00    +0.000 C 
ENDBRANCH  13  14
ENDBRANCH   4  13
TORSDOF 3
ENDMDL
MODEL 2
REMARK VINA RESULT:      -6.7      1.186      1.819
REMARK  Name = 
REMARK  4 active torsions:
REMARK  status: ('A' for Active; 'I' for Inactive)
REMARK    1  A    between atoms: C_1  and  C_2
REMARK    2  A    between atoms: N_4  and  C_5
REMARK    3  A    between atoms: C_8  and  C_9
REMARK    4  A    between atoms: C_9  and  N_10
REMARK                            x       y       z     vdW  Elec       q    Type
REMARK                         _______ _______ _______ _____ _____    ______ ____
ROOT
ATOM      1  C   UNL     1       6.546   5.416  16.023  0.00  0.00    +0.000 A 
ATOM      2  C   UNL     1       7.146   4.734  17.101  0.00  0.00    +0.000 A 
ATOM      3  C   UNL     1       6.452   4.558  18.316  0.00  0.00    +0.000 A 
ATOM      4  C   UNL     1       5.153   5.081  18.481  0.00  0.00    +0.000 A 
ATOM      5  C   UNL     1       4.586   5.790  17.421  0.00  0.00    +0.000 A 
ATOM      6  C   UNL     1       5.264   5.961  16.220  0.00  0.00    +0.000 A 
ENDROOT
BRANCH   1  10
ATOM      7  C   UNL     1       7.746   4.981  12.329  0.00  0.00    +0.000 C 
ATOM      8  C   UNL     1       7.054   4.664  13.628  0.00  0.00    +0.000 C 
ATOM      9  N   UNL     1       6.348   3.597  13.718  0.00  0.00    +0.000 NA
ATOM     10  N   UNL     1       7.243   5.529  14.765  0.00  0.00    +0.000 N 
ATOM     11  H   UNL     1       6.220   2.944  12.934  0.00  0.00    +0.000 HD
ATOM     12  H   UNL     1       7.983   6.246  14.689  0.00  0.00    +0.000 HD
ENDBRANCH   1  10
BRANCH   4  13
ATOM     13  C   UNL     1       4.292   4.843  19.714  0.00  0.00    +0.000 C 
BRANCH  13  14
ATOM     14  N   UNL     1       3.310   3.744  19.662  0.00  0.00    +0.000 NA
ATOM     15  C   UNL     1       1.932   4.009  19.222  0.00  0.00    +0.000 C 
ATOM     16  C   UNL     1       0.998   4.074  20.435  0.00  0.00    +0.000 C 
ATOM     17  O   UNL     1       1.095   2.887  21.205  0.00  0.00    +0.000 OA
ATOM     18  C   UNL     1       2.403   2.753  21.730  0.00  0.00    +0.000 C 
ATOM     19  C   UNL     1       3.426   2.620  20.598  0.00  0.00    +0.000 C 
ENDBRANCH  13  14
ENDBRANCH   4  13
TORSDOF 3
ENDMDL
MODEL 3
REMARK VINA RESULT:      -6.7      0.419      1.231
REMARK  Name = 
REMARK  4 active torsions:
REMARK  status: ('A' for Active; 'I' for Inactive)
REMARK    1  A    between atoms: C_1  and  C_2
REMARK    2  A    between atoms: N_4  and  C_5
REMARK    3  A    between atoms: C_8  and  C_9
REMARK    4  A    between atoms: C_9  and  N_10
REMARK                            x       y       z     vdW  Elec       q    Type
REMARK                         _______ _______ _______ _____ _____    ______ ____
ROOT
ATOM      1  C   UNL     1       6.429   5.286  15.976  0.00  0.00    +0.000 A 
ATOM      2  C   UNL     1       5.072   5.669  16.000  0.00  0.00    +0.000 A 
ATOM      3  C   UNL     1       4.318   5.572  17.187  0.00  0.00    +0.000 A 
ATOM      4  C   UNL     1       4.903   5.069  18.367  0.00  0.00    +0.000 A 
ATOM      5  C   UNL     1       6.235   4.656  18.321  0.00  0.00    +0.000 A 
ATOM      6  C   UNL     1       6.984   4.754  17.154  0.00  0.00    +0.000 A 
ENDROOT
BRANCH   1  10
ATOM      7  C   UNL     1       7.841   5.037  12.341  0.00  0.00    +0.000 C 
ATOM      8  C   UNL     1       7.064   4.663  13.575  0.00  0.00    +0.000 C 
ATOM      9  N   UNL     1       6.330   3.611  13.557  0.00  0.00    +0.000 NA
ATOM     10  N   UNL     1       7.204   5.454  14.771  0.00  0.00    +0.000 N 
ATOM     11  H   UNL     1       6.236   3.008  12.729  0.00  0.00    +0.000 HD
ATOM     12  H   UNL     1       7.963   6.155  14.782  0.00  0.00    +0.000 HD
ENDBRANCH   1  10
BRANCH   4  13
ATOM     13  C   UNL     1       4.197   5.035  19.716  0.00  0.00    +0.000 C 
BRANCH  13  14
ATOM     14  N   UNL     1       3.211   3.962  19.946  0.00  0.00    +0.000 NA
ATOM     15  C   UNL     1       3.618   2.553  19.837  0.00  0.00    +0.000 C 
ATOM     16  C   UNL     1       3.145   1.973  18.500  0.00  0.00    +0.000 C 
ATOM     17  O   UNL     1       1.744   2.138  18.351  0.00  0.00    +0.000 OA
ATOM     18  C   UNL     1       1.418   3.516  18.312  0.00  0.00    +0.000 C 
ATOM     19  C   UNL     1       1.797   4.196  19.632  0.00  0.00    +0.000 C 
ENDBRANCH  13  14
ENDBRANCH   4  13
TORSDOF 3
ENDMDL
MODEL 4
REMARK VINA RESULT:      -6.6      1.027      1.533
REMARK  Name = 
REMARK  4 active torsions:
REMARK  status: ('A' for Active; 'I' for Inactive)
REMARK    1  A    between atoms: C_1  and  C_2
REMARK    2  A    between atoms: N_4  and  C_5
REMARK    3  A    between atoms: C_8  and  C_9
REMARK    4  A    between atoms: C_9  and  N_10
REMARK                            x       y       z     vdW  Elec       q    Type
REMARK                         _______ _______ _______ _____ _____    ______ ____
ROOT
ATOM      1  C   UNL     1       6.430   5.599  16.137  0.00  0.00    +0.000 A 
ATOM      2  C   UNL     1       6.875   4.861  17.254  0.00  0.00    +0.000 A 
ATOM      3  C   UNL     1       6.096   4.793  18.427  0.00  0.00    +0.000 A 
ATOM      4  C   UNL     1       4.867   5.479  18.512  0.00  0.00    +0.000 A 
ATOM      5  C   UNL     1       4.457   6.238  17.415  0.00  0.00    +0.000 A 
ATOM      6  C   UNL     1       5.219   6.305  16.254  0.00  0.00    +0.000 A 
ENDROOT
BRANCH   1  10
ATOM      7  C   UNL     1       7.810   4.912  12.546  0.00  0.00    +0.000 C 
ATOM      8  C   UNL     1       7.020   4.705  13.811  0.00  0.00    +0.000 C 
ATOM      9  N   UNL     1       6.232   3.698  13.899  0.00  0.00    +0.000 NA
ATOM     10  N   UNL     1       7.207   5.604  14.922  0.00  0.00    +0.000 N 
ATOM     11  H   UNL     1       6.101   3.021  13.136  0.00  0.00    +0.000 HD
ATOM     12  H   UNL     1       8.002   6.261  14.863  0.00  0.00    +0.000 HD
ENDBRANCH   1  10
BRANCH   4  13
ATOM     13  C   UNL     1       3.914   5.370  19.694  0.00  0.00    +0.000 C 
BRANCH  13  14
ATOM     14  N   UNL     1       2.621   4.696  19.471  0.00  0.00    +0.000 NA
ATOM     15  C   UNL     1       1.604   4.684  20.534  0.00  0.00    +0.000 C 
ATOM     16  C   UNL     1       1.591   3.319  21.230  0.00  0.00    +0.000 C 
ATOM     17  O   UNL     1       1.392   2.278  20.287  0.00  0.00    +0.000 OA
ATOM     18  C   UNL     1       2.473   2.236  19.373  0.00  0.00    +0.000 C 
ATOM     19  C   UNL     1       2.550   3.539  18.570  0.00  0.00    +0.000 C 
ENDBRANCH  13  14
ENDBRANCH   4  13
TORSDOF 3
ENDMDL
MODEL 5
REMARK VINA RESULT:      -6.6      1.080      1.860
REMARK  Name = 
REMARK  4 active torsions:
REMARK  status: ('A' for Active; 'I' for Inactive)
REMARK    1  A    between atoms: C_1  and  C_2
REMARK    2  A    between atoms: N_4  and  C_5
REMARK    3  A    between atoms: C_8  and  C_9
REMARK    4  A    between atoms: C_9  and  N_10
REMARK                            x       y       z     vdW  Elec       q    Type
REMARK                         _______ _______ _______ _____ _____    ______ ____
ROOT
ATOM      1  C   UNL     1       6.220   5.520  16.239  0.00  0.00    +0.000 A 
ATOM      2  C   UNL     1       5.102   6.376  16.318  0.00  0.00    +0.000 A 
ATOM      3  C   UNL     1       4.216   6.303  17.413  0.00  0.00    +0.000 A 
ATOM      4  C   UNL     1       4.421   5.356  18.437  0.00  0.00    +0.000 A 
ATOM      5  C   UNL     1       5.508   4.487  18.328  0.00  0.00    +0.000 A 
ATOM      6  C   UNL     1       6.386   4.559  17.253  0.00  0.00    +0.000 A 
ENDROOT
BRANCH   1  10
ATOM      7  C   UNL     1       8.096   5.192  12.827  0.00  0.00    +0.000 C 
ATOM      8  C   UNL     1       7.150   4.853  13.948  0.00  0.00    +0.000 C 
ATOM      9  N   UNL     1       6.393   3.824  13.840  0.00  0.00    +0.000 NA
ATOM     10  N   UNL     1       7.153   5.653  15.147  0.00  0.00    +0.000 N 
ATOM     11  H   UNL     1       6.391   3.216  13.010  0.00  0.00    +0.000 HD
ATOM     12  H   UNL     1       7.925   6.331  15.255  0.00  0.00    +0.000 HD
ENDBRANCH   1  10
BRANCH   4  13
ATOM     13  C   UNL     1       3.581   5.282  19.705  0.00  0.00    +0.000 C 
BRANCH  13  14
ATOM     14  N   UNL     1       2.168   4.883  19.569  0.00  0.00    +0.000 NA
ATOM     15  C   UNL     1       1.380   4.542  20.763  0.00  0.00    +0.000 C 
ATOM     16  C   UNL     1       1.245   3.020  20.884  0.00  0.00    +0.000 C 
ATOM     17  O   UNL     1       0.688   2.472  19.701  0.00  0.00    +0.000 OA
ATOM     18  C   UNL     1       1.555   2.697  18.605  0.00  0.00    +0.000 C 
ATOM     19  C   UNL     1       1.721   4.199  18.349  0.00  0.00    +0.000 C 
ENDBRANCH  13  14
ENDBRANCH   4  13
TORSDOF 3
ENDMDL
MODEL 6
REMARK VINA RESULT:      -6.6      0.857      1.093
REMARK  Name = 
REMARK  4 active torsions:
REMARK  status: ('A' for Active; 'I' for Inactive)
REMARK    1  A    between atoms: C_1  and  C_2
REMARK    2  A    between atoms: N_4  and  C_5
REMARK    3  A    between atoms: C_8  and  C_9
REMARK    4  A    between atoms: C_9  and  N_10
REMARK                            x       y       z     vdW  Elec       q    Type
REMARK                         _______ _______ _______ _____ _____    ______ ____
ROOT
ATOM      1  C   UNL     1       6.365   5.467  15.891  0.00  0.00    +0.000 A 
ATOM      2  C   UNL     1       6.902   4.751  16.981  0.00  0.00    +0.000 A 
ATOM      3  C   UNL     1       6.202   4.669  18.202  0.00  0.00    +0.000 A 
ATOM      4  C   UNL     1       4.962   5.321  18.362  0.00  0.00    +0.000 A 
ATOM      5  C   UNL     1       4.460   6.060  17.289  0.00  0.00    +0.000 A 
ATOM      6  C   UNL     1       5.144   6.139  16.082  0.00  0.00    +0.000 A 
ENDROOT
BRANCH   1  10
ATOM      7  C   UNL     1       7.575   4.744  12.246  0.00  0.00    +0.000 C 
ATOM      8  C   UNL     1       6.885   4.527  13.566  0.00  0.00    +0.000 C 
ATOM      9  N   UNL     1       6.193   3.462  13.743  0.00  0.00    +0.000 NA
ATOM     10  N   UNL     1       7.062   5.484  14.628  0.00  0.00    +0.000 N 
ATOM     11  H   UNL     1       6.074   2.744  13.016  0.00  0.00    +0.000 HD
ATOM     12  H   UNL     1       7.793   6.203  14.493  0.00  0.00    +0.000 HD
ENDBRANCH   1  10
BRANCH   4  13
ATOM     13  C   UNL     1       4.089   5.194  19.603  0.00  0.00    +0.000 C 
BRANCH  13  14
ATOM     14  N   UNL     1       3.366   3.924  19.805  0.00  0.00    +0.000 NA
ATOM     15  C   UNL     1       3.002   3.092  18.648  0.00  0.00    +0.000 C 
ATOM     16  C   UNL     1       1.516   3.271  18.321  0.00  0.00    +0.000 C 
ATOM     17  O   UNL     1       0.716   2.986  19.458  0.00  0.00    +0.000 OA
ATOM     18  C   UNL     1       0.998   3.909  20.494  0.00  0.00    +0.000 C 
ATOM     19  C   UNL     1       2.456   3.780  20.948  0.00  0.00    +0.000 C 
ENDBRANCH  13  14
ENDBRANCH   4  13
TORSDOF 3
ENDMDL
MODEL 7
REMARK VINA RESULT:      -6.4      2.533      3.507
REMARK  Name = 
REMARK  4 active torsions:
REMARK  status: ('A' for Active; 'I' for Inactive)
REMARK    1  A    between atoms: C_1  and  C_2
REMARK    2  A    between atoms: N_4  and  C_5
REMARK    3  A    between atoms: C_8  and  C_9
REMARK    4  A    between atoms: C_9  and  N_10
REMARK                            x       y       z     vdW  Elec       q    Type
REMARK                         _______ _______ _______ _____ _____    ______ ____
ROOT
ATOM      1  C   UNL     1       5.354   6.360  17.156  0.00  0.00    +0.000 A 
ATOM      2  C   UNL     1       5.695   5.192  16.445  0.00  0.00    +0.000 A 
ATOM      3  C   UNL     1       4.815   4.091  16.404  0.00  0.00    +0.000 A 
ATOM      4  C   UNL     1       3.586   4.131  17.094  0.00  0.00    +0.000 A 
ATOM      5  C   UNL     1       3.277   5.278  17.828  0.00  0.00    +0.000 A 
ATOM      6  C   UNL     1       4.139   6.367  17.866  0.00  0.00    +0.000 A 
ENDROOT
BRANCH   1  10
ATOM      7  C   UNL     1       8.389   8.785  17.578  0.00  0.00    +0.000 C 
ATOM      8  C   UNL     1       7.508   7.585  17.802  0.00  0.00    +0.000 C 
ATOM      9  N   UNL     1       7.881   6.680  18.630  0.00  0.00    +0.000 NA
ATOM     10  N   UNL     1       6.235   7.502  17.132  0.00  0.00    +0.000 N 
ATOM     11  H   UNL     1       8.768   6.727  19.148  0.00  0.00    +0.000 HD
ATOM     12  H   UNL     1       5.904   8.353  16.648  0.00  0.00    +0.000 HD
ENDBRANCH   1  10
BRANCH   4  13
ATOM     13  C   UNL     1       2.531   3.036  17.014  0.00  0.00    +0.000 C 
BRANCH  13  14
ATOM     14  N   UNL     1       2.325   2.195  18.208  0.00  0.00    +0.000 NA
ATOM     15  C   UNL     1       1.091   2.326  18.996  0.00  0.00    +0.000 C 
ATOM     16  C   UNL     1       1.365   3.135  20.268  0.00  0.00    +0.000 C 
ATOM     17  O   UNL     1       2.418   2.549  21.017  0.00  0.00    +0.000 OA
ATOM     18  C   UNL     1       3.621   2.582  20.271  0.00  0.00    +0.000 C 
ATOM     19  C   UNL     1       3.483   1.749  18.991  0.00  0.00    +0.000 C 
ENDBRANCH  13  14
ENDBRANCH   4  13
TORSDOF 3
ENDMDL
MODEL 8
REMARK VINA RESULT:      -6.4      2.590      3.634
REMARK  Name = 
REMARK  4 active torsions:
REMARK  status: ('A' for Active; 'I' for Inactive)
REMARK    1  A    between atoms: C_1  and  C_2
REMARK    2  A    between atoms: N_4  and  C_5
REMARK    3  A    between atoms: C_8  and  C_9
REMARK    4  A    between atoms: C_9  and  N_10
REMARK                            x       y       z     vdW  Elec       q    Type
REMARK                         _______ _______ _______ _____ _____    ______ ____
ROOT
ATOM      1  C   UNL     1       5.182   6.267  17.086  0.00  0.00    +0.000 A 
ATOM      2  C   UNL     1       3.987   6.338  17.831  0.00  0.00    +0.000 A 
ATOM      3  C   UNL     1       3.099   5.244  17.873  0.00  0.00    +0.000 A 
ATOM      4  C   UNL     1       3.381   4.065  17.153  0.00  0.00    +0.000 A 
ATOM      5  C   UNL     1       4.548   4.021  16.387  0.00  0.00    +0.000 A 
ATOM      6  C   UNL     1       5.428   5.096  16.347  0.00  0.00    +0.000 A 
ENDROOT
BRANCH   1  10
ATOM      7  C   UNL     1       8.307   8.549  17.630  0.00  0.00    +0.000 C 
ATOM      8  C   UNL     1       7.371   7.384  17.808  0.00  0.00    +0.000 C 
ATOM      9  N   UNL     1       7.686   6.446  18.623  0.00  0.00    +0.000 NA
ATOM     10  N   UNL     1       6.111   7.370  17.108  0.00  0.00    +0.000 N 
ATOM     11  H   UNL     1       8.563   6.443  19.161  0.00  0.00    +0.000 HD
ATOM     12  H   UNL     1       5.828   8.245  16.637  0.00  0.00    +0.000 HD
ENDBRANCH   1  10
BRANCH   4  13
ATOM     13  C   UNL     1       2.537   2.800  17.231  0.00  0.00    +0.000 C 
BRANCH  13  14
ATOM     14  N   UNL     1       2.583   2.022  18.483  0.00  0.00    +0.000 NA
ATOM     15  C   UNL     1       1.538   2.206  19.502  0.00  0.00    +0.000 C 
ATOM     16  C   UNL     1       2.070   3.076  20.646  0.00  0.00    +0.000 C 
ATOM     17  O   UNL     1       3.254   2.516  21.190  0.00  0.00    +0.000 OA
ATOM     18  C   UNL     1       4.277   2.498  20.211  0.00  0.00    +0.000 C 
ATOM     19  C   UNL     1       3.878   1.604  19.032  0.00  0.00    +0.000 C 
ENDBRANCH  13  14
ENDBRANCH   4  13
TORSDOF 3
ENDMDL
MODEL 9
REMARK VINA RESULT:      -6.3      0.913      1.083
REMARK  Name = 
REMARK  4 active torsions:
REMARK  status: ('A' for Active; 'I' for Inactive)
REMARK    1  A    between atoms: C_1  and  C_2
REMARK    2  A    between atoms: N_4  and  C_5
REMARK    3  A    between atoms: C_8  and  C_9
REMARK    4  A    between atoms: C_9  and  N_10
REMARK                            x       y       z     vdW  Elec       q    Type
REMARK                         _______ _______ _______ _____ _____    ______ ____
ROOT
ATOM      1  C   UNL     1       6.123   5.654  16.506  0.00  0.00    +0.000 A 
ATOM      2  C   UNL     1       6.336   4.824  17.626  0.00  0.00    +0.000 A 
ATOM      3  C   UNL     1       5.411   4.799  18.689  0.00  0.00    +0.000 A 
ATOM      4  C   UNL     1       4.266   5.622  18.661  0.00  0.00    +0.000 A 
ATOM      5  C   UNL     1       4.087   6.469  17.566  0.00  0.00    +0.000 A 
ATOM      6  C   UNL     1       4.994   6.493  16.514  0.00  0.00    +0.000 A 
ENDROOT
BRANCH   1  10
ATOM      7  C   UNL     1       7.843   5.004  13.057  0.00  0.00    +0.000 C 
ATOM      8  C   UNL     1       6.871   4.841  14.196  0.00  0.00    +0.000 C 
ATOM      9  N   UNL     1       5.934   3.971  14.099  0.00  0.00    +0.000 NA
ATOM     10  N   UNL     1       7.045   5.618  15.397  0.00  0.00    +0.000 N 
ATOM     11  H   UNL     1       5.803   3.379  13.268  0.00  0.00    +0.000 HD
ATOM     12  H   UNL     1       7.931   6.140  15.492  0.00  0.00    +0.000 HD
ENDBRANCH   1  10
BRANCH   4  13
ATOM     13  C   UNL     1       3.163   5.577  19.710  0.00  0.00    +0.000 C 
BRANCH  13  14
ATOM     14  N   UNL     1       2.257   4.413  19.702  0.00  0.00    +0.000 NA
ATOM     15  C   UNL     1       2.484   3.297  20.633  0.00  0.00    +0.000 C 
ATOM     16  C   UNL     1       3.136   2.124  19.894  0.00  0.00    +0.000 C 
ATOM     17  O   UNL     1       2.351   1.737  18.778  0.00  0.00    +0.000 OA
ATOM     18  C   UNL     1       2.286   2.796  17.840  0.00  0.00    +0.000 C 
ATOM     19  C   UNL     1       1.593   4.017  18.454  0.00  0.00    +0.000 C 
ENDBRANCH  13  14
ENDBRANCH   4  13
TORSDOF 3
ENDMDL
