MODEL 1
REMARK VINA RESULT:      -6.9      0.000      0.000
REMARK  Name = 
REMARK  11 active torsions:
REMARK  status: ('A' for Active; 'I' for Inactive)
REMARK    1  A    between atoms: C_1  and  N_2
REMARK    2  A    between atoms: N_2  and  C_3
REMARK    3  A    between atoms: N_2  and  C_4
REMARK    4  A    between atoms: C_4  and  C_5
REMARK    5  A    between atoms: C_4  and  C_6
REMARK    6  A    between atoms: C_4  and  C_7
REMARK    7  A    between atoms: C_7  and  N_8
REMARK    8  A    between atoms: N_8  and  C_9
REMARK    9  A    between atoms: C_9  and  C_10
REMARK   10  A    between atoms: N_12  and  C_13
REMARK   11  A    between atoms: C_15  and  C_16
REMARK                            x       y       z     vdW  Elec       q    Type
REMARK                         _______ _______ _______ _____ _____    ______ ____
ROOT
ATOM      1  C   UNL     1       5.702   4.121  15.388  0.00  0.00    +0.000 A 
ATOM      2  C   UNL     1       5.694   3.874  14.034  0.00  0.00    +0.000 A 
ATOM      3  N   UNL     1       6.788   4.442  13.502  0.00  0.00    +0.000 N 
ATOM      4  C   UNL     1       7.152   4.437  12.092  0.00  0.00    +0.000 C 
ATOM      5  N   UNL     1       7.492   5.049  14.447  0.00  0.00    +0.000 NA
ATOM      6  C   UNL     1       6.864   4.850  15.625  0.00  0.00    +0.000 A 
ENDROOT
BRANCH   6   7
ATOM      7  C   UNL     1       7.336   5.422  16.915  0.00  0.00    +0.000 A 
ATOM      8  C   UNL     1       7.440   6.813  17.067  0.00  0.00    +0.000 A 
ATOM      9  C   UNL     1       7.848   7.360  18.285  0.00  0.00    +0.000 A 
ATOM     10  C   UNL     1       8.173   6.510  19.344  0.00  0.00    +0.000 A 
ATOM     11  N   UNL     1       8.090   5.167  19.181  0.00  0.00    +0.000 NA
ATOM     12  C   UNL     1       7.679   4.609  18.013  0.00  0.00    +0.000 A 
ENDBRANCH   6   7
BRANCH   1  13
ATOM     13  C   UNL     1       4.590   3.774  16.334  0.00  0.00    +0.000 C 
BRANCH  13  14
ATOM     14  N   UNL     1       4.023   4.997  16.935  0.00  0.00    +0.000 NA
ATOM     15  H   UNL     1       4.624   5.789  16.614  0.00  0.00    +0.000 HD
BRANCH  14  16
ATOM     16  C   UNL     1       3.989   4.949  18.415  0.00  0.00    +0.000 C 
BRANCH  16  17
ATOM     17  C   UNL     1       2.641   4.404  19.002  0.00  0.00    +0.000 C 
ATOM     18  C   UNL     1       1.555   4.449  17.893  0.00  0.00    +0.000 C 
ATOM     19  C   UNL     1       2.206   5.341  20.160  0.00  0.00    +0.000 C 
BRANCH  17  21
ATOM     20  C   UNL     1       2.253   1.928  18.717  0.00  0.00    +0.000 C 
ATOM     21  N   UNL     1       2.839   3.004  19.543  0.00  0.00    +0.000 NA
ATOM     22  C   UNL     1       4.235   2.629  19.868  0.00  0.00    +0.000 C 
ENDBRANCH  17  21
ENDBRANCH  16  17
ENDBRANCH  14  16
ENDBRANCH  13  14
ENDBRANCH   1  13
TORSDOF 6
ENDMDL
MODEL 2
REMARK VINA RESULT:      -6.7      0.783      1.394
REMARK  Name = 
REMARK  11 active torsions:
REMARK  status: ('A' for Active; 'I' for Inactive)
REMARK    1  A    between atoms: C_1  and  N_2
REMARK    2  A    between atoms: N_2  and  C_3
REMARK    3  A    between atoms: N_2  and  C_4
REMARK    4  A    between atoms: C_4  and  C_5
REMARK    5  A    between atoms: C_4  and  C_6
REMARK    6  A    between atoms: C_4  and  C_7
REMARK    7  A    between atoms: C_7  and  N_8
REMARK    8  A    between atoms: N_8  and  C_9
REMARK    9  A    between atoms: C_9  and  C_10
REMARK   10  A    between atoms: N_12  and  C_13
REMARK   11  A    between atoms: C_15  and  C_16
REMARK                            x       y       z     vdW  Elec       q    Type
REMARK                         _______ _______ _______ _____ _____    ______ ____
ROOT
ATOM      1  C   UNL     1       5.490   4.377  15.316  0.00  0.00    +0.000 A 
ATOM      2  C   UNL     1       5.498   4.039  13.982  0.00  0.00    +0.000 A 
ATOM      3  N   UNL     1       6.706   4.349  13.483  0.00  0.00    +0.000 N 
ATOM      4  C   UNL     1       7.129   4.173  12.100  0.00  0.00    +0.000 C 
ATOM      5  N   UNL     1       7.469   4.878  14.429  0.00  0.00    +0.000 NA
ATOM      6  C   UNL     1       6.759   4.888  15.577  0.00  0.00    +0.000 A 
ENDROOT
BRANCH   6   7
ATOM      7  C   UNL     1       7.271   5.452  16.854  0.00  0.00    +0.000 A 
ATOM      8  C   UNL     1       7.384   6.842  17.010  0.00  0.00    +0.000 A 
ATOM      9  C   UNL     1       7.830   7.382  18.218  0.00  0.00    +0.000 A 
ATOM     10  C   UNL     1       8.184   6.526  19.262  0.00  0.00    +0.000 A 
ATOM     11  N   UNL     1       8.092   5.184  19.096  0.00  0.00    +0.000 NA
ATOM     12  C   UNL     1       7.644   4.633  17.938  0.00  0.00    +0.000 A 
ENDBRANCH   6   7
BRANCH   1  13
ATOM     13  C   UNL     1       4.289   4.317  16.212  0.00  0.00    +0.000 C 
BRANCH  13  14
ATOM     14  N   UNL     1       4.513   3.359  17.312  0.00  0.00    +0.000 NA
ATOM     15  H   UNL     1       4.067   2.462  17.017  0.00  0.00    +0.000 HD
BRANCH  14  16
ATOM     16  C   UNL     1       3.939   3.814  18.599  0.00  0.00    +0.000 C 
BRANCH  16  17
ATOM     17  C   UNL     1       2.480   3.300  18.861  0.00  0.00    +0.000 C 
ATOM     18  C   UNL     1       2.407   1.790  18.506  0.00  0.00    +0.000 C 
ATOM     19  C   UNL     1       1.520   4.077  17.920  0.00  0.00    +0.000 C 
BRANCH  17  21
ATOM     20  C   UNL     1       2.731   2.680  21.293  0.00  0.00    +0.000 C 
ATOM     21  N   UNL     1       2.087   3.564  20.298  0.00  0.00    +0.000 NA
ATOM     22  C   UNL     1       2.232   4.963  20.762  0.00  0.00    +0.000 C 
ENDBRANCH  17  21
ENDBRANCH  16  17
ENDBRANCH  14  16
ENDBRANCH  13  14
ENDBRANCH   1  13
TORSDOF 6
ENDMDL
MODEL 3
REMARK VINA RESULT:      -6.7      1.227      1.968
REMARK  Name = 
REMARK  11 active torsions:
REMARK  status: ('A' for Active; 'I' for Inactive)
REMARK    1  A    between atoms: C_1  and  N_2
REMARK    2  A    between atoms: N_2  and  C_3
REMARK    3  A    between atoms: N_2  and  C_4
REMARK    4  A    between atoms: C_4  and  C_5
REMARK    5  A    between atoms: C_4  and  C_6
REMARK    6  A    between atoms: C_4  and  C_7
REMARK    7  A    between atoms: C_7  and  N_8
REMARK    8  A    between atoms: N_8  and  C_9
REMARK    9  A    between atoms: C_9  and  C_10
REMARK   10  A    between atoms: N_12  and  C_13
REMARK   11  A    between atoms: C_15  and  C_16
REMARK                            x       y       z     vdW  Elec       q    Type
REMARK                         _______ _______ _______ _____ _____    ______ ____
ROOT
ATOM      1  C   UNL     1       5.536   4.364  15.439  0.00  0.00    +0.000 A 
ATOM      2  C   UNL     1       5.530   3.952  14.127  0.00  0.00    +0.000 A 
ATOM      3  N   UNL     1       6.678   4.357  13.559  0.00  0.00    +0.000 N 
ATOM      4  C   UNL     1       7.065   4.145  12.171  0.00  0.00    +0.000 C 
ATOM      5  N   UNL     1       7.415   5.016  14.441  0.00  0.00    +0.000 NA
ATOM      6  C   UNL     1       6.751   5.019  15.617  0.00  0.00    +0.000 A 
ENDROOT
BRANCH   6   7
ATOM      7  C   UNL     1       7.248   5.707  16.839  0.00  0.00    +0.000 A 
ATOM      8  C   UNL     1       7.556   4.961  17.986  0.00  0.00    +0.000 A 
ATOM      9  C   UNL     1       8.056   5.595  19.126  0.00  0.00    +0.000 A 
ATOM     10  C   UNL     1       8.226   6.980  19.121  0.00  0.00    +0.000 A 
ATOM     11  N   UNL     1       7.905   7.695  18.016  0.00  0.00    +0.000 NA
ATOM     12  C   UNL     1       7.434   7.103  16.888  0.00  0.00    +0.000 A 
ENDBRANCH   6   7
BRANCH   1  13
ATOM     13  C   UNL     1       4.382   4.232  16.389  0.00  0.00    +0.000 C 
BRANCH  13  14
ATOM     14  N   UNL     1       4.587   3.083  17.293  0.00  0.00    +0.000 NA
ATOM     15  H   UNL     1       5.001   2.320  16.711  0.00  0.00    +0.000 HD
BRANCH  14  16
ATOM     16  C   UNL     1       3.332   2.617  17.926  0.00  0.00    +0.000 C 
BRANCH  16  17
ATOM     17  C   UNL     1       3.251   2.906  19.466  0.00  0.00    +0.000 C 
ATOM     18  C   UNL     1       3.378   4.437  19.697  0.00  0.00    +0.000 C 
ATOM     19  C   UNL     1       4.451   2.200  20.151  0.00  0.00    +0.000 C 
BRANCH  17  21
ATOM     20  C   UNL     1       1.693   2.712  21.439  0.00  0.00    +0.000 C 
ATOM     21  N   UNL     1       1.961   2.353  20.031  0.00  0.00    +0.000 NA
ATOM     22  C   UNL     1       0.738   2.633  19.242  0.00  0.00    +0.000 C 
ENDBRANCH  17  21
ENDBRANCH  16  17
ENDBRANCH  14  16
ENDBRANCH  13  14
ENDBRANCH   1  13
TORSDOF 6
ENDMDL
MODEL 4
REMARK VINA RESULT:      -6.6      0.893      1.549
REMARK  Name = 
REMARK  11 active torsions:
REMARK  status: ('A' for Active; 'I' for Inactive)
REMARK    1  A    between atoms: C_1  and  N_2
REMARK    2  A    between atoms: N_2  and  C_3
REMARK    3  A    between atoms: N_2  and  C_4
REMARK    4  A    between atoms: C_4  and  C_5
REMARK    5  A    between atoms: C_4  and  C_6
REMARK    6  A    between atoms: C_4  and  C_7
REMARK    7  A    between atoms: C_7  and  N_8
REMARK    8  A    between atoms: N_8  and  C_9
REMARK    9  A    between atoms: C_9  and  C_10
REMARK   10  A    between atoms: N_12  and  C_13
REMARK   11  A    between atoms: C_15  and  C_16
REMARK                            x       y       z     vdW  Elec       q    Type
REMARK                         _______ _______ _______ _____ _____    ______ ____
ROOT
ATOM      1  C   UNL     1       5.623   4.268  15.241  0.00  0.00    +0.000 A 
ATOM      2  C   UNL     1       5.642   3.998  13.892  0.00  0.00    +0.000 A 
ATOM      3  N   UNL     1       6.805   4.450  13.395  0.00  0.00    +0.000 N 
ATOM      4  C   UNL     1       7.219   4.384  12.000  0.00  0.00    +0.000 C 
ATOM      5  N   UNL     1       7.527   5.005  14.357  0.00  0.00    +0.000 NA
ATOM      6  C   UNL     1       6.839   4.888  15.512  0.00  0.00    +0.000 A 
ENDROOT
BRANCH   6   7
ATOM      7  C   UNL     1       7.315   5.438  16.811  0.00  0.00    +0.000 A 
ATOM      8  C   UNL     1       7.370   6.826  17.005  0.00  0.00    +0.000 A 
ATOM      9  C   UNL     1       7.782   7.351  18.232  0.00  0.00    +0.000 A 
ATOM     10  C   UNL     1       8.159   6.481  19.257  0.00  0.00    +0.000 A 
ATOM     11  N   UNL     1       8.123   5.142  19.053  0.00  0.00    +0.000 NA
ATOM     12  C   UNL     1       7.710   4.605  17.876  0.00  0.00    +0.000 A 
ENDBRANCH   6   7
BRANCH   1  13
ATOM     13  C   UNL     1       4.448   4.046  16.148  0.00  0.00    +0.000 C 
BRANCH  13  14
ATOM     14  N   UNL     1       4.824   3.169  17.274  0.00  0.00    +0.000 NA
ATOM     15  H   UNL     1       5.322   2.351  16.857  0.00  0.00    +0.000 HD
BRANCH  14  16
ATOM     16  C   UNL     1       3.657   2.708  18.060  0.00  0.00    +0.000 C 
BRANCH  16  17
ATOM     17  C   UNL     1       3.375   3.567  19.342  0.00  0.00    +0.000 C 
ATOM     18  C   UNL     1       4.520   4.603  19.515  0.00  0.00    +0.000 C 
ATOM     19  C   UNL     1       3.377   2.617  20.569  0.00  0.00    +0.000 C 
BRANCH  17  21
ATOM     20  C   UNL     1       1.091   3.603  18.273  0.00  0.00    +0.000 C 
ATOM     21  N   UNL     1       2.021   4.234  19.233  0.00  0.00    +0.000 NA
ATOM     22  C   UNL     1       1.297   4.440  20.509  0.00  0.00    +0.000 C 
ENDBRANCH  17  21
ENDBRANCH  16  17
ENDBRANCH  14  16
ENDBRANCH  13  14
ENDBRANCH   1  13
TORSDOF 6
ENDMDL
MODEL 5
REMARK VINA RESULT:      -6.6      1.416      4.137
REMARK  Name = 
REMARK  11 active torsions:
REMARK  status: ('A' for Active; 'I' for Inactive)
REMARK    1  A    between atoms: C_1  and  N_2
REMARK    2  A    between atoms: N_2  and  C_3
REMARK    3  A    between atoms: N_2  and  C_4
REMARK    4  A    between atoms: C_4  and  C_5
REMARK    5  A    between atoms: C_4  and  C_6
REMARK    6  A    between atoms: C_4  and  C_7
REMARK    7  A    between atoms: C_7  and  N_8
REMARK    8  A    between atoms: N_8  and  C_9
REMARK    9  A    between atoms: C_9  and  C_10
REMARK   10  A    between atoms: N_12  and  C_13
REMARK   11  A    between atoms: C_15  and  C_16
REMARK                            x       y       z     vdW  Elec       q    Type
REMARK                         _______ _______ _______ _____ _____    ______ ____
ROOT
ATOM      1  C   UNL     1       5.713   4.865  16.714  0.00  0.00    +0.000 A 
ATOM      2  C   UNL     1       6.104   5.515  17.862  0.00  0.00    +0.000 A 
ATOM      3  N   UNL     1       7.228   6.198  17.589  0.00  0.00    +0.000 N 
ATOM      4  C   UNL     1       7.986   7.006  18.535  0.00  0.00    +0.000 C 
ATOM      5  N   UNL     1       7.581   6.010  16.326  0.00  0.00    +0.000 NA
ATOM      6  C   UNL     1       6.656   5.213  15.751  0.00  0.00    +0.000 A 
ENDROOT
BRANCH   6   7
ATOM      7  C   UNL     1       6.738   4.743  14.342  0.00  0.00    +0.000 A 
ATOM      8  C   UNL     1       5.860   3.750  13.883  0.00  0.00    +0.000 A 
ATOM      9  C   UNL     1       5.907   3.327  12.552  0.00  0.00    +0.000 A 
ATOM     10  C   UNL     1       6.851   3.886  11.689  0.00  0.00    +0.000 A 
ATOM     11  N   UNL     1       7.710   4.829  12.147  0.00  0.00    +0.000 NA
ATOM     12  C   UNL     1       7.675   5.270  13.430  0.00  0.00    +0.000 A 
ENDBRANCH   6   7
BRANCH   1  13
ATOM     13  C   UNL     1       4.579   3.887  16.622  0.00  0.00    +0.000 C 
BRANCH  13  14
ATOM     14  N   UNL     1       4.411   3.169  17.900  0.00  0.00    +0.000 NA
ATOM     15  H   UNL     1       5.208   2.497  17.968  0.00  0.00    +0.000 HD
BRANCH  14  16
ATOM     16  C   UNL     1       3.123   2.443  17.989  0.00  0.00    +0.000 C 
BRANCH  16  17
ATOM     17  C   UNL     1       2.003   3.228  18.758  0.00  0.00    +0.000 C 
ATOM     18  C   UNL     1       0.791   2.283  18.982  0.00  0.00    +0.000 C 
ATOM     19  C   UNL     1       1.548   4.414  17.867  0.00  0.00    +0.000 C 
BRANCH  17  21
ATOM     20  C   UNL     1       1.982   5.062  20.489  0.00  0.00    +0.000 C 
ATOM     21  N   UNL     1       2.550   3.766  20.062  0.00  0.00    +0.000 NA
ATOM     22  C   UNL     1       2.499   2.839  21.216  0.00  0.00    +0.000 C 
ENDBRANCH  17  21
ENDBRANCH  16  17
ENDBRANCH  14  16
ENDBRANCH  13  14
ENDBRANCH   1  13
TORSDOF 6
ENDMDL
MODEL 6
REMARK VINA RESULT:      -6.5      1.137      2.077
REMARK  Name = 
REMARK  11 active torsions:
REMARK  status: ('A' for Active; 'I' for Inactive)
REMARK    1  A    between atoms: C_1  and  N_2
REMARK    2  A    between atoms: N_2  and  C_3
REMARK    3  A    between atoms: N_2  and  C_4
REMARK    4  A    between atoms: C_4  and  C_5
REMARK    5  A    between atoms: C_4  and  C_6
REMARK    6  A    between atoms: C_4  and  C_7
REMARK    7  A    between atoms: C_7  and  N_8
REMARK    8  A    between atoms: N_8  and  C_9
REMARK    9  A    between atoms: C_9  and  C_10
REMARK   10  A    between atoms: N_12  and  C_13
REMARK   11  A    between atoms: C_15  and  C_16
REMARK                            x       y       z     vdW  Elec       q    Type
REMARK                         _______ _______ _______ _____ _____    ______ ____
ROOT
ATOM      1  C   UNL     1       5.567   4.400  15.404  0.00  0.00    +0.000 A 
ATOM      2  C   UNL     1       5.571   3.974  14.097  0.00  0.00    +0.000 A 
ATOM      3  N   UNL     1       6.721   4.375  13.532  0.00  0.00    +0.000 N 
ATOM      4  C   UNL     1       7.117   4.150  12.149  0.00  0.00    +0.000 C 
ATOM      5  N   UNL     1       7.451   5.047  14.411  0.00  0.00    +0.000 NA
ATOM      6  C   UNL     1       6.780   5.060  15.583  0.00  0.00    +0.000 A 
ENDROOT
BRANCH   6   7
ATOM      7  C   UNL     1       7.266   5.763  16.800  0.00  0.00    +0.000 A 
ATOM      8  C   UNL     1       7.621   5.026  17.940  0.00  0.00    +0.000 A 
ATOM      9  C   UNL     1       8.113   5.675  19.075  0.00  0.00    +0.000 A 
ATOM     10  C   UNL     1       8.226   7.066  19.073  0.00  0.00    +0.000 A 
ATOM     11  N   UNL     1       7.860   7.772  17.976  0.00  0.00    +0.000 NA
ATOM     12  C   UNL     1       7.397   7.165  16.853  0.00  0.00    +0.000 A 
ENDBRANCH   6   7
BRANCH   1  13
ATOM     13  C   UNL     1       4.408   4.275  16.348  0.00  0.00    +0.000 C 
BRANCH  13  14
ATOM     14  N   UNL     1       4.659   3.207  17.335  0.00  0.00    +0.000 NA
ATOM     15  H   UNL     1       3.958   2.456  17.142  0.00  0.00    +0.000 HD
BRANCH  14  16
ATOM     16  C   UNL     1       4.532   3.674  18.735  0.00  0.00    +0.000 C 
BRANCH  16  17
ATOM     17  C   UNL     1       3.607   2.772  19.625  0.00  0.00    +0.000 C 
ATOM     18  C   UNL     1       4.497   1.898  20.550  0.00  0.00    +0.000 C 
ATOM     19  C   UNL     1       2.799   1.837  18.686  0.00  0.00    +0.000 C 
BRANCH  17  21
ATOM     20  C   UNL     1       2.047   4.754  19.657  0.00  0.00    +0.000 C 
ATOM     21  N   UNL     1       2.646   3.634  20.414  0.00  0.00    +0.000 NA
ATOM     22  C   UNL     1       1.556   2.914  21.112  0.00  0.00    +0.000 C 
ENDBRANCH  17  21
ENDBRANCH  16  17
ENDBRANCH  14  16
ENDBRANCH  13  14
ENDBRANCH   1  13
TORSDOF 6
ENDMDL
MODEL 7
REMARK VINA RESULT:      -6.5      1.155      1.996
REMARK  Name = 
REMARK  11 active torsions:
REMARK  status: ('A' for Active; 'I' for Inactive)
REMARK    1  A    between atoms: C_1  and  N_2
REMARK    2  A    between atoms: N_2  and  C_3
REMARK    3  A    between atoms: N_2  and  C_4
REMARK    4  A    between atoms: C_4  and  C_5
REMARK    5  A    between atoms: C_4  and  C_6
REMARK    6  A    between atoms: C_4  and  C_7
REMARK    7  A    between atoms: C_7  and  N_8
REMARK    8  A    between atoms: N_8  and  C_9
REMARK    9  A    between atoms: C_9  and  C_10
REMARK   10  A    between atoms: N_12  and  C_13
REMARK   11  A    between atoms: C_15  and  C_16
REMARK                            x       y       z     vdW  Elec       q    Type
REMARK                         _______ _______ _______ _____ _____    ______ ____
ROOT
ATOM      1  C   UNL     1       5.507   4.418  15.390  0.00  0.00    +0.000 A 
ATOM      2  C   UNL     1       5.515   3.998  14.080  0.00  0.00    +0.000 A 
ATOM      3  N   UNL     1       6.688   4.359  13.535  0.00  0.00    +0.000 N 
ATOM      4  C   UNL     1       7.097   4.125  12.157  0.00  0.00    +0.000 C 
ATOM      5  N   UNL     1       7.429   4.997  14.429  0.00  0.00    +0.000 NA
ATOM      6  C   UNL     1       6.741   5.030  15.590  0.00  0.00    +0.000 A 
ENDROOT
BRANCH   6   7
ATOM      7  C   UNL     1       7.236   5.708  16.819  0.00  0.00    +0.000 A 
ATOM      8  C   UNL     1       7.541   4.952  17.961  0.00  0.00    +0.000 A 
ATOM      9  C   UNL     1       8.039   5.576  19.107  0.00  0.00    +0.000 A 
ATOM     10  C   UNL     1       8.209   6.962  19.114  0.00  0.00    +0.000 A 
ATOM     11  N   UNL     1       7.891   7.686  18.014  0.00  0.00    +0.000 NA
ATOM     12  C   UNL     1       7.422   7.103  16.880  0.00  0.00    +0.000 A 
ENDBRANCH   6   7
BRANCH   1  13
ATOM     13  C   UNL     1       4.329   4.332  16.316  0.00  0.00    +0.000 C 
BRANCH  13  14
ATOM     14  N   UNL     1       4.421   3.123  17.157  0.00  0.00    +0.000 NA
ATOM     15  H   UNL     1       4.823   2.373  16.552  0.00  0.00    +0.000 HD
BRANCH  14  16
ATOM     16  C   UNL     1       3.110   2.696  17.697  0.00  0.00    +0.000 C 
BRANCH  16  17
ATOM     17  C   UNL     1       2.923   2.999  19.225  0.00  0.00    +0.000 C 
ATOM     18  C   UNL     1       4.238   2.644  19.972  0.00  0.00    +0.000 C 
ATOM     19  C   UNL     1       1.787   2.088  19.761  0.00  0.00    +0.000 C 
BRANCH  17  21
ATOM     20  C   UNL     1       1.469   4.677  20.421  0.00  0.00    +0.000 C 
ATOM     21  N   UNL     1       2.534   4.448  19.423  0.00  0.00    +0.000 NA
ATOM     22  C   UNL     1       3.647   5.382  19.712  0.00  0.00    +0.000 C 
ENDBRANCH  17  21
ENDBRANCH  16  17
ENDBRANCH  14  16
ENDBRANCH  13  14
ENDBRANCH   1  13
TORSDOF 6
ENDMDL
MODEL 8
REMARK VINA RESULT:      -6.5      1.802      4.229
REMARK  Name = 
REMARK  11 active torsions:
REMARK  status: ('A' for Active; 'I' for Inactive)
REMARK    1  A    between atoms: C_1  and  N_2
REMARK    2  A    between atoms: N_2  and  C_3
REMARK    3  A    between atoms: N_2  and  C_4
REMARK    4  A    between atoms: C_4  and  C_5
REMARK    5  A    between atoms: C_4  and  C_6
REMARK    6  A    between atoms: C_4  and  C_7
REMARK    7  A    between atoms: C_7  and  N_8
REMARK    8  A    between atoms: N_8  and  C_9
REMARK    9  A    between atoms: C_9  and  C_10
REMARK   10  A    between atoms: N_12  and  C_13
REMARK   11  A    between atoms: C_15  and  C_16
REMARK                            x       y       z     vdW  Elec       q    Type
REMARK                         _______ _______ _______ _____ _____    ______ ____
ROOT
ATOM      1  C   UNL     1       4.635   5.697  18.477  0.00  0.00    +0.000 A 
ATOM      2  C   UNL     1       3.712   6.535  19.059  0.00  0.00    +0.000 A 
ATOM      3  N   UNL     1       3.225   7.344  18.103  0.00  0.00    +0.000 N 
ATOM      4  C   UNL     1       2.238   8.397  18.298  0.00  0.00    +0.000 C 
ATOM      5  N   UNL     1       3.797   7.071  16.940  0.00  0.00    +0.000 NA
ATOM      6  C   UNL     1       4.654   6.046  17.129  0.00  0.00    +0.000 A 
ENDROOT
BRANCH   6   7
ATOM      7  C   UNL     1       5.518   5.488  16.054  0.00  0.00    +0.000 A 
ATOM      8  C   UNL     1       4.976   4.603  15.109  0.00  0.00    +0.000 A 
ATOM      9  C   UNL     1       5.771   4.102  14.075  0.00  0.00    +0.000 A 
ATOM     10  C   UNL     1       7.115   4.472  14.003  0.00  0.00    +0.000 A 
ATOM     11  N   UNL     1       7.635   5.310  14.933  0.00  0.00    +0.000 NA
ATOM     12  C   UNL     1       6.881   5.826  15.938  0.00  0.00    +0.000 A 
ENDBRANCH   6   7
BRANCH   1  13
ATOM     13  C   UNL     1       5.509   4.730  19.219  0.00  0.00    +0.000 C 
BRANCH  13  14
ATOM     14  N   UNL     1       4.743   3.528  19.598  0.00  0.00    +0.000 NA
ATOM     15  H   UNL     1       5.445   2.783  19.804  0.00  0.00    +0.000 HD
BRANCH  14  16
ATOM     16  C   UNL     1       3.816   3.075  18.535  0.00  0.00    +0.000 C 
BRANCH  16  17
ATOM     17  C   UNL     1       2.312   3.038  18.976  0.00  0.00    +0.000 C 
ATOM     18  C   UNL     1       1.789   1.580  18.856  0.00  0.00    +0.000 C 
ATOM     19  C   UNL     1       1.502   3.936  18.004  0.00  0.00    +0.000 C 
BRANCH  17  21
ATOM     20  C   UNL     1       1.192   4.672  20.537  0.00  0.00    +0.000 C 
ATOM     21  N   UNL     1       2.170   3.575  20.384  0.00  0.00    +0.000 NA
ATOM     22  C   UNL     1       1.903   2.568  21.436  0.00  0.00    +0.000 C 
ENDBRANCH  17  21
ENDBRANCH  16  17
ENDBRANCH  14  16
ENDBRANCH  13  14
ENDBRANCH   1  13
TORSDOF 6
ENDMDL
MODEL 9
REMARK VINA RESULT:      -6.4      1.107      1.800
REMARK  Name = 
REMARK  11 active torsions:
REMARK  status: ('A' for Active; 'I' for Inactive)
REMARK    1  A    between atoms: C_1  and  N_2
REMARK    2  A    between atoms: N_2  and  C_3
REMARK    3  A    between atoms: N_2  and  C_4
REMARK    4  A    between atoms: C_4  and  C_5
REMARK    5  A    between atoms: C_4  and  C_6
REMARK    6  A    between atoms: C_4  and  C_7
REMARK    7  A    between atoms: C_7  and  N_8
REMARK    8  A    between atoms: N_8  and  C_9
REMARK    9  A    between atoms: C_9  and  C_10
REMARK   10  A    between atoms: N_12  and  C_13
REMARK   11  A    between atoms: C_15  and  C_16
REMARK                            x       y       z     vdW  Elec       q    Type
REMARK                         _______ _______ _______ _____ _____    ______ ____
ROOT
ATOM      1  C   UNL     1       5.486   4.393  15.465  0.00  0.00    +0.000 A 
ATOM      2  C   UNL     1       5.474   3.957  14.160  0.00  0.00    +0.000 A 
ATOM      3  N   UNL     1       6.634   4.320  13.590  0.00  0.00    +0.000 N 
ATOM      4  C   UNL     1       7.020   4.072  12.207  0.00  0.00    +0.000 C 
ATOM      5  N   UNL     1       7.386   4.975  14.463  0.00  0.00    +0.000 NA
ATOM      6  C   UNL     1       6.719   5.017  15.635  0.00  0.00    +0.000 A 
ENDROOT
BRANCH   6   7
ATOM      7  C   UNL     1       7.230   5.714  16.847  0.00  0.00    +0.000 A 
ATOM      8  C   UNL     1       7.570   4.974  17.988  0.00  0.00    +0.000 A 
ATOM      9  C   UNL     1       8.084   5.616  19.118  0.00  0.00    +0.000 A 
ATOM     10  C   UNL     1       8.235   7.003  19.108  0.00  0.00    +0.000 A 
ATOM     11  N   UNL     1       7.882   7.713  18.008  0.00  0.00    +0.000 NA
ATOM     12  C   UNL     1       7.397   7.112  16.891  0.00  0.00    +0.000 A 
ENDBRANCH   6   7
BRANCH   1  13
ATOM     13  C   UNL     1       4.326   4.310  16.412  0.00  0.00    +0.000 C 
BRANCH  13  14
ATOM     14  N   UNL     1       4.508   3.188  17.353  0.00  0.00    +0.000 NA
ATOM     15  H   UNL     1       5.238   2.568  16.936  0.00  0.00    +0.000 HD
BRANCH  14  16
ATOM     16  C   UNL     1       3.261   2.422  17.585  0.00  0.00    +0.000 C 
BRANCH  16  17
ATOM     17  C   UNL     1       2.266   3.115  18.580  0.00  0.00    +0.000 C 
ATOM     18  C   UNL     1       1.143   2.107  18.950  0.00  0.00    +0.000 C 
ATOM     19  C   UNL     1       1.624   4.327  17.854  0.00  0.00    +0.000 C 
BRANCH  17  21
ATOM     20  C   UNL     1       2.971   5.067  20.012  0.00  0.00    +0.000 C 
ATOM     21  N   UNL     1       3.011   3.605  19.802  0.00  0.00    +0.000 NA
ATOM     22  C   UNL     1       2.660   2.945  21.081  0.00  0.00    +0.000 C 
ENDBRANCH  17  21
ENDBRANCH  16  17
ENDBRANCH  14  16
ENDBRANCH  13  14
ENDBRANCH   1  13
TORSDOF 6
ENDMDL
