MODEL 1
REMARK VINA RESULT:      -7.9      0.000      0.000
REMARK  Name = 
REMARK  9 active torsions:
REMARK  status: ('A' for Active; 'I' for Inactive)
REMARK    1  A    between atoms: C_1  and  O_2
REMARK    2  A    between atoms: O_2  and  C_3
REMARK    3  A    between atoms: C_6  and  C_7
REMARK    4  A    between atoms: C_7  and  O_8
REMARK    5  A    between atoms: O_8  and  C_9
REMARK    6  A    between atoms: N_11  and  C_12
REMARK    7  A    between atoms: N_11  and  C_18
REMARK    8  A    between atoms: C_27  and  O_28
REMARK    9  A    between atoms: O_28  and  C_29
REMARK                            x       y       z     vdW  Elec       q    Type
REMARK                         _______ _______ _______ _____ _____    ______ ____
ROOT
ATOM      1  C   UNL     1       2.442   7.155  19.178  0.00  0.00    +0.000 C 
ATOM      2  O   UNL     1       2.132   7.637  20.259  0.00  0.00    +0.000 OA
ATOM      3  N   UNL     1       3.133   5.955  19.001  0.00  0.00    +0.000 N 
ENDROOT
BRANCH   3   4
ATOM      4  C   UNL     1       2.893   4.827  19.929  0.00  0.00    +0.000 C 
ATOM      5  C   UNL     1       3.832   3.582  19.794  0.00  0.00    +0.000 C 
ATOM      6  N   UNL     1       3.074   2.303  19.752  0.00  0.00    +0.000 NA
ATOM      7  C   UNL     1       2.266   2.170  20.979  0.00  0.00    +0.000 C 
ATOM      8  C   UNL     1       1.326   3.372  21.181  0.00  0.00    +0.000 C 
ATOM      9  C   UNL     1       1.425   4.319  19.965  0.00  0.00    +0.000 C 
ATOM     10  C   UNL     1       1.112   3.463  18.727  0.00  0.00    +0.000 C 
ATOM     11  C   UNL     1       2.163   2.349  18.585  0.00  0.00    +0.000 C 
ENDBRANCH   3   4
BRANCH   3  12
ATOM     12  C   UNL     1       4.126   5.840  17.954  0.00  0.00    +0.000 A 
ATOM     13  C   UNL     1       3.971   4.878  16.936  0.00  0.00    +0.000 A 
ATOM     14  C   UNL     1       4.917   4.720  15.919  0.00  0.00    +0.000 A 
ATOM     15  C   UNL     1       6.044   5.531  15.891  0.00  0.00    +0.000 A 
ATOM     16  C   UNL     1       6.205   6.513  16.862  0.00  0.00    +0.000 A 
ATOM     17  C   UNL     1       5.249   6.677  17.874  0.00  0.00    +0.000 A 
ENDBRANCH   3  12
BRANCH   1  18
ATOM     18  O   UNL     1       2.017   7.662  17.989  0.00  0.00    +0.000 OA
BRANCH  18  19
ATOM     19  C   UNL     1       2.170   9.071  17.786  0.00  0.00    +0.000 C 
BRANCH  19  23
ATOM     20  C   UNL     1      -1.478  11.138  18.771  0.00  0.00    +0.000 A 
ATOM     21  C   UNL     1      -0.325  11.307  19.556  0.00  0.00    +0.000 A 
ATOM     22  C   UNL     1       0.846  10.613  19.262  0.00  0.00    +0.000 A 
ATOM     23  C   UNL     1       0.871   9.701  18.208  0.00  0.00    +0.000 A 
ATOM     24  C   UNL     1      -0.311   9.457  17.496  0.00  0.00    +0.000 A 
ATOM     25  C   UNL     1      -1.495  10.157  17.771  0.00  0.00    +0.000 A 
BRANCH  20  27
ATOM     26  C   UNL     1      -2.498  12.761  20.144  0.00  0.00    +0.000 C 
ATOM     27  O   UNL     1      -2.587  11.913  18.999  0.00  0.00    +0.000 OA
ENDBRANCH  20  27
BRANCH  25  28
ATOM     28  O   UNL     1      -2.525   9.770  16.956  0.00  0.00    +0.000 OA
ATOM     29  C   UNL     1      -2.698  10.424  15.707  0.00  0.00    +0.000 C 
ENDBRANCH  25  28
ENDBRANCH  19  23
ENDBRANCH  18  19
ENDBRANCH   1  18
TORSDOF 7
ENDMDL
MODEL 2
REMARK VINA RESULT:      -7.9      2.101      4.349
REMARK  Name = 
REMARK  9 active torsions:
REMARK  status: ('A' for Active; 'I' for Inactive)
REMARK    1  A    between atoms: C_1  and  O_2
REMARK    2  A    between atoms: O_2  and  C_3
REMARK    3  A    between atoms: C_6  and  C_7
REMARK    4  A    between atoms: C_7  and  O_8
REMARK    5  A    between atoms: O_8  and  C_9
REMARK    6  A    between atoms: N_11  and  C_12
REMARK    7  A    between atoms: N_11  and  C_18
REMARK    8  A    between atoms: C_27  and  O_28
REMARK    9  A    between atoms: O_28  and  C_29
REMARK                            x       y       z     vdW  Elec       q    Type
REMARK                         _______ _______ _______ _____ _____    ______ ____
ROOT
ATOM      1  C   UNL     1       2.979   7.468  17.867  0.00  0.00    +0.000 C 
ATOM      2  O   UNL     1       3.304   8.024  16.827  0.00  0.00    +0.000 OA
ATOM      3  N   UNL     1       3.512   6.268  18.340  0.00  0.00    +0.000 N 
ENDROOT
BRANCH   3   4
ATOM      4  C   UNL     1       4.942   5.962  18.112  0.00  0.00    +0.000 C 
ATOM      5  C   UNL     1       5.744   6.948  17.198  0.00  0.00    +0.000 C 
ATOM      6  N   UNL     1       6.535   6.238  16.157  0.00  0.00    +0.000 NA
ATOM      7  C   UNL     1       7.475   5.305  16.806  0.00  0.00    +0.000 C 
ATOM      8  C   UNL     1       6.752   4.312  17.734  0.00  0.00    +0.000 C 
ATOM      9  C   UNL     1       5.225   4.516  17.622  0.00  0.00    +0.000 C 
ATOM     10  C   UNL     1       4.880   4.366  16.132  0.00  0.00    +0.000 C 
ATOM     11  C   UNL     1       5.594   5.460  15.319  0.00  0.00    +0.000 C 
ENDBRANCH   3   4
BRANCH   3  12
ATOM     12  C   UNL     1       2.653   5.302  18.992  0.00  0.00    +0.000 A 
ATOM     13  C   UNL     1       1.817   4.470  18.222  0.00  0.00    +0.000 A 
ATOM     14  C   UNL     1       0.956   3.539  18.812  0.00  0.00    +0.000 A 
ATOM     15  C   UNL     1       0.919   3.411  20.194  0.00  0.00    +0.000 A 
ATOM     16  C   UNL     1       1.760   4.194  20.977  0.00  0.00    +0.000 A 
ATOM     17  C   UNL     1       2.629   5.119  20.383  0.00  0.00    +0.000 A 
ENDBRANCH   3  12
BRANCH   1  18
ATOM     18  O   UNL     1       2.145   8.033  18.782  0.00  0.00    +0.000 OA
BRANCH  18  19
ATOM     19  C   UNL     1       1.381   9.169  18.358  0.00  0.00    +0.000 C 
BRANCH  19  23
ATOM     20  C   UNL     1      -0.229  10.810  22.000  0.00  0.00    +0.000 A 
ATOM     21  C   UNL     1       0.074   9.441  21.904  0.00  0.00    +0.000 A 
ATOM     22  C   UNL     1       0.561   8.901  20.716  0.00  0.00    +0.000 A 
ATOM     23  C   UNL     1       0.707   9.707  19.589  0.00  0.00    +0.000 A 
ATOM     24  C   UNL     1       0.303  11.048  19.660  0.00  0.00    +0.000 A 
ATOM     25  C   UNL     1      -0.177  11.611  20.852  0.00  0.00    +0.000 A 
BRANCH  20  27
ATOM     26  C   UNL     1      -1.995  11.600  23.347  0.00  0.00    +0.000 C 
ATOM     27  O   UNL     1      -0.596  11.351  23.205  0.00  0.00    +0.000 OA
ENDBRANCH  20  27
BRANCH  25  28
ATOM     28  O   UNL     1      -0.509  12.931  20.702  0.00  0.00    +0.000 OA
ATOM     29  C   UNL     1       0.215  13.721  19.770  0.00  0.00    +0.000 C 
ENDBRANCH  25  28
ENDBRANCH  19  23
ENDBRANCH  18  19
ENDBRANCH   1  18
TORSDOF 7
ENDMDL
MODEL 3
REMARK VINA RESULT:      -7.8      1.615      2.820
REMARK  Name = 
REMARK  9 active torsions:
REMARK  status: ('A' for Active; 'I' for Inactive)
REMARK    1  A    between atoms: C_1  and  O_2
REMARK    2  A    between atoms: O_2  and  C_3
REMARK    3  A    between atoms: C_6  and  C_7
REMARK    4  A    between atoms: C_7  and  O_8
REMARK    5  A    between atoms: O_8  and  C_9
REMARK    6  A    between atoms: N_11  and  C_12
REMARK    7  A    between atoms: N_11  and  C_18
REMARK    8  A    between atoms: C_27  and  O_28
REMARK    9  A    between atoms: O_28  and  C_29
REMARK                            x       y       z     vdW  Elec       q    Type
REMARK                         _______ _______ _______ _____ _____    ______ ____
ROOT
ATOM      1  C   UNL     1       2.757   6.369  19.532  0.00  0.00    +0.000 C 
ATOM      2  O   UNL     1       1.944   6.060  20.392  0.00  0.00    +0.000 OA
ATOM      3  N   UNL     1       3.528   5.470  18.793  0.00  0.00    +0.000 N 
ENDROOT
BRANCH   3   4
ATOM      4  C   UNL     1       2.954   4.163  18.401  0.00  0.00    +0.000 C 
ATOM      5  C   UNL     1       1.401   4.005  18.511  0.00  0.00    +0.000 C 
ATOM      6  N   UNL     1       1.007   2.755  19.214  0.00  0.00    +0.000 NA
ATOM      7  C   UNL     1       1.562   1.593  18.495  0.00  0.00    +0.000 C 
ATOM      8  C   UNL     1       3.091   1.690  18.339  0.00  0.00    +0.000 C 
ATOM      9  C   UNL     1       3.611   2.935  19.089  0.00  0.00    +0.000 C 
ATOM     10  C   UNL     1       3.124   2.797  20.540  0.00  0.00    +0.000 C 
ATOM     11  C   UNL     1       1.586   2.794  20.576  0.00  0.00    +0.000 C 
ENDBRANCH   3   4
BRANCH   3  12
ATOM     12  C   UNL     1       4.902   5.791  18.469  0.00  0.00    +0.000 A 
ATOM     13  C   UNL     1       5.939   5.410  19.343  0.00  0.00    +0.000 A 
ATOM     14  C   UNL     1       7.277   5.720  19.080  0.00  0.00    +0.000 A 
ATOM     15  C   UNL     1       7.612   6.414  17.924  0.00  0.00    +0.000 A 
ATOM     16  C   UNL     1       6.612   6.770  17.027  0.00  0.00    +0.000 A 
ATOM     17  C   UNL     1       5.273   6.450  17.288  0.00  0.00    +0.000 A 
ENDBRANCH   3  12
BRANCH   1  18
ATOM     18  O   UNL     1       2.910   7.642  19.077  0.00  0.00    +0.000 OA
BRANCH  18  19
ATOM     19  C   UNL     1       1.981   8.100  18.088  0.00  0.00    +0.000 C 
BRANCH  19  23
ATOM     20  C   UNL     1      -0.632  10.899  20.060  0.00  0.00    +0.000 A 
ATOM     21  C   UNL     1      -0.688  10.727  18.666  0.00  0.00    +0.000 A 
ATOM     22  C   UNL     1       0.179   9.849  18.021  0.00  0.00    +0.000 A 
ATOM     23  C   UNL     1       1.152   9.165  18.750  0.00  0.00    +0.000 A 
ATOM     24  C   UNL     1       1.273   9.422  20.123  0.00  0.00    +0.000 A 
ATOM     25  C   UNL     1       0.399  10.293  20.790  0.00  0.00    +0.000 A 
BRANCH  20  27
ATOM     26  C   UNL     1      -2.309  12.541  19.837  0.00  0.00    +0.000 C 
ATOM     27  O   UNL     1      -1.566  11.676  20.696  0.00  0.00    +0.000 OA
ENDBRANCH  20  27
BRANCH  25  28
ATOM     28  O   UNL     1       0.690  10.394  22.124  0.00  0.00    +0.000 OA
ATOM     29  C   UNL     1      -0.026   9.589  23.048  0.00  0.00    +0.000 C 
ENDBRANCH  25  28
ENDBRANCH  19  23
ENDBRANCH  18  19
ENDBRANCH   1  18
TORSDOF 7
ENDMDL
MODEL 4
REMARK VINA RESULT:      -7.7      1.459      1.994
REMARK  Name = 
REMARK  9 active torsions:
REMARK  status: ('A' for Active; 'I' for Inactive)
REMARK    1  A    between atoms: C_1  and  O_2
REMARK    2  A    between atoms: O_2  and  C_3
REMARK    3  A    between atoms: C_6  and  C_7
REMARK    4  A    between atoms: C_7  and  O_8
REMARK    5  A    between atoms: O_8  and  C_9
REMARK    6  A    between atoms: N_11  and  C_12
REMARK    7  A    between atoms: N_11  and  C_18
REMARK    8  A    between atoms: C_27  and  O_28
REMARK    9  A    between atoms: O_28  and  C_29
REMARK                            x       y       z     vdW  Elec       q    Type
REMARK                         _______ _______ _______ _____ _____    ______ ____
ROOT
ATOM      1  C   UNL     1       2.585   7.158  19.388  0.00  0.00    +0.000 C 
ATOM      2  O   UNL     1       1.923   7.348  20.399  0.00  0.00    +0.000 OA
ATOM      3  N   UNL     1       3.140   5.935  19.007  0.00  0.00    +0.000 N 
ENDROOT
BRANCH   3   4
ATOM      4  C   UNL     1       2.412   4.679  19.294  0.00  0.00    +0.000 C 
ATOM      5  C   UNL     1       3.212   3.540  20.010  0.00  0.00    +0.000 C 
ATOM      6  N   UNL     1       3.043   2.223  19.339  0.00  0.00    +0.000 NA
ATOM      7  C   UNL     1       1.612   1.866  19.311  0.00  0.00    +0.000 C 
ATOM      8  C   UNL     1       0.762   2.954  18.629  0.00  0.00    +0.000 C 
ATOM      9  C   UNL     1       1.684   4.058  18.070  0.00  0.00    +0.000 C 
ATOM     10  C   UNL     1       2.684   3.353  17.140  0.00  0.00    +0.000 C 
ATOM     11  C   UNL     1       3.530   2.352  17.947  0.00  0.00    +0.000 C 
ENDBRANCH   3   4
BRANCH   3  12
ATOM     12  C   UNL     1       4.452   5.896  18.395  0.00  0.00    +0.000 A 
ATOM     13  C   UNL     1       5.580   5.555  19.167  0.00  0.00    +0.000 A 
ATOM     14  C   UNL     1       6.867   5.527  18.620  0.00  0.00    +0.000 A 
ATOM     15  C   UNL     1       7.055   5.831  17.278  0.00  0.00    +0.000 A 
ATOM     16  C   UNL     1       5.955   6.136  16.485  0.00  0.00    +0.000 A 
ATOM     17  C   UNL     1       4.665   6.153  17.032  0.00  0.00    +0.000 A 
ENDBRANCH   3  12
BRANCH   1  18
ATOM     18  O   UNL     1       2.744   8.097  18.416  0.00  0.00    +0.000 OA
BRANCH  18  19
ATOM     19  C   UNL     1       1.574   8.491  17.688  0.00  0.00    +0.000 C 
BRANCH  19  23
ATOM     20  C   UNL     1       0.457  12.508  18.765  0.00  0.00    +0.000 A 
ATOM     21  C   UNL     1       1.798  12.186  18.494  0.00  0.00    +0.000 A 
ATOM     22  C   UNL     1       2.167  10.881  18.181  0.00  0.00    +0.000 A 
ATOM     23  C   UNL     1       1.213   9.864  18.181  0.00  0.00    +0.000 A 
ATOM     24  C   UNL     1      -0.102  10.171  18.556  0.00  0.00    +0.000 A 
ATOM     25  C   UNL     1      -0.494  11.484  18.862  0.00  0.00    +0.000 A 
BRANCH  20  27
ATOM     26  C   UNL     1       1.173  14.739  19.022  0.00  0.00    +0.000 C 
ATOM     27  O   UNL     1       0.087  13.815  18.958  0.00  0.00    +0.000 OA
ENDBRANCH  20  27
BRANCH  25  28
ATOM     28  O   UNL     1      -1.819  11.561  19.195  0.00  0.00    +0.000 OA
ATOM     29  C   UNL     1      -2.793  11.530  18.162  0.00  0.00    +0.000 C 
ENDBRANCH  25  28
ENDBRANCH  19  23
ENDBRANCH  18  19
ENDBRANCH   1  18
TORSDOF 7
ENDMDL
MODEL 5
REMARK VINA RESULT:      -7.7      1.808      2.416
REMARK  Name = 
REMARK  9 active torsions:
REMARK  status: ('A' for Active; 'I' for Inactive)
REMARK    1  A    between atoms: C_1  and  O_2
REMARK    2  A    between atoms: O_2  and  C_3
REMARK    3  A    between atoms: C_6  and  C_7
REMARK    4  A    between atoms: C_7  and  O_8
REMARK    5  A    between atoms: O_8  and  C_9
REMARK    6  A    between atoms: N_11  and  C_12
REMARK    7  A    between atoms: N_11  and  C_18
REMARK    8  A    between atoms: C_27  and  O_28
REMARK    9  A    between atoms: O_28  and  C_29
REMARK                            x       y       z     vdW  Elec       q    Type
REMARK                         _______ _______ _______ _____ _____    ______ ____
ROOT
ATOM      1  C   UNL     1       2.620   7.065  19.335  0.00  0.00    +0.000 C 
ATOM      2  O   UNL     1       1.978   7.261  20.358  0.00  0.00    +0.000 OA
ATOM      3  N   UNL     1       3.181   5.844  18.959  0.00  0.00    +0.000 N 
ENDROOT
BRANCH   3   4
ATOM      4  C   UNL     1       2.474   4.584  19.278  0.00  0.00    +0.000 C 
ATOM      5  C   UNL     1       3.315   3.444  19.945  0.00  0.00    +0.000 C 
ATOM      6  N   UNL     1       3.116   2.130  19.278  0.00  0.00    +0.000 NA
ATOM      7  C   UNL     1       1.687   1.767  19.324  0.00  0.00    +0.000 C 
ATOM      8  C   UNL     1       0.797   2.854  18.694  0.00  0.00    +0.000 C 
ATOM      9  C   UNL     1       1.684   3.965  18.091  0.00  0.00    +0.000 C 
ATOM     10  C   UNL     1       2.636   3.268  17.106  0.00  0.00    +0.000 C 
ATOM     11  C   UNL     1       3.527   2.267  17.862  0.00  0.00    +0.000 C 
ENDBRANCH   3   4
BRANCH   3  12
ATOM     12  C   UNL     1       4.479   5.811  18.319  0.00  0.00    +0.000 A 
ATOM     13  C   UNL     1       5.632   5.529  19.077  0.00  0.00    +0.000 A 
ATOM     14  C   UNL     1       6.907   5.510  18.502  0.00  0.00    +0.000 A 
ATOM     15  C   UNL     1       7.058   5.764  17.146  0.00  0.00    +0.000 A 
ATOM     16  C   UNL     1       5.933   6.009  16.367  0.00  0.00    +0.000 A 
ATOM     17  C   UNL     1       4.655   6.018  16.942  0.00  0.00    +0.000 A 
ENDBRANCH   3  12
BRANCH   1  18
ATOM     18  O   UNL     1       2.746   7.993  18.348  0.00  0.00    +0.000 OA
BRANCH  18  19
ATOM     19  C   UNL     1       1.539   8.547  17.811  0.00  0.00    +0.000 C 
BRANCH  19  23
ATOM     20  C   UNL     1       0.798  12.464  19.441  0.00  0.00    +0.000 A 
ATOM     21  C   UNL     1       1.885  12.241  18.579  0.00  0.00    +0.000 A 
ATOM     22  C   UNL     1       2.149  10.968  18.079  0.00  0.00    +0.000 A 
ATOM     23  C   UNL     1       1.361   9.887  18.469  0.00  0.00    +0.000 A 
ATOM     24  C   UNL     1       0.345  10.096  19.412  0.00  0.00    +0.000 A 
ATOM     25  C   UNL     1       0.058  11.373  19.915  0.00  0.00    +0.000 A 
BRANCH  20  27
ATOM     26  C   UNL     1      -0.021  14.577  18.791  0.00  0.00    +0.000 C 
ATOM     27  O   UNL     1       0.480  13.739  19.833  0.00  0.00    +0.000 OA
ENDBRANCH  20  27
BRANCH  25  28
ATOM     28  O   UNL     1      -0.974  11.353  20.815  0.00  0.00    +0.000 OA
ATOM     29  C   UNL     1      -0.707  10.988  22.161  0.00  0.00    +0.000 C 
ENDBRANCH  25  28
ENDBRANCH  19  23
ENDBRANCH  18  19
ENDBRANCH   1  18
TORSDOF 7
ENDMDL
MODEL 6
REMARK VINA RESULT:      -7.6      2.225      4.474
REMARK  Name = 
REMARK  9 active torsions:
REMARK  status: ('A' for Active; 'I' for Inactive)
REMARK    1  A    between atoms: C_1  and  O_2
REMARK    2  A    between atoms: O_2  and  C_3
REMARK    3  A    between atoms: C_6  and  C_7
REMARK    4  A    between atoms: C_7  and  O_8
REMARK    5  A    between atoms: O_8  and  C_9
REMARK    6  A    between atoms: N_11  and  C_12
REMARK    7  A    between atoms: N_11  and  C_18
REMARK    8  A    between atoms: C_27  and  O_28
REMARK    9  A    between atoms: O_28  and  C_29
REMARK                            x       y       z     vdW  Elec       q    Type
REMARK                         _______ _______ _______ _____ _____    ______ ____
ROOT
ATOM      1  C   UNL     1       2.822   7.512  17.897  0.00  0.00    +0.000 C 
ATOM      2  O   UNL     1       3.153   8.104  16.879  0.00  0.00    +0.000 OA
ATOM      3  N   UNL     1       3.388   6.320  18.355  0.00  0.00    +0.000 N 
ENDROOT
BRANCH   3   4
ATOM      4  C   UNL     1       4.833   6.072  18.157  0.00  0.00    +0.000 C 
ATOM      5  C   UNL     1       5.603   7.062  17.221  0.00  0.00    +0.000 C 
ATOM      6  N   UNL     1       6.440   6.355  16.215  0.00  0.00    +0.000 NA
ATOM      7  C   UNL     1       7.412   5.487  16.908  0.00  0.00    +0.000 C 
ATOM      8  C   UNL     1       6.720   4.494  17.859  0.00  0.00    +0.000 C 
ATOM      9  C   UNL     1       5.188   4.624  17.720  0.00  0.00    +0.000 C 
ATOM     10  C   UNL     1       4.871   4.410  16.231  0.00  0.00    +0.000 C 
ATOM     11  C   UNL     1       5.548   5.507  15.391  0.00  0.00    +0.000 C 
ENDBRANCH   3   4
BRANCH   3  12
ATOM     12  C   UNL     1       2.549   5.308  18.962  0.00  0.00    +0.000 A 
ATOM     13  C   UNL     1       1.768   4.461  18.151  0.00  0.00    +0.000 A 
ATOM     14  C   UNL     1       0.928   3.485  18.697  0.00  0.00    +0.000 A 
ATOM     15  C   UNL     1       0.856   3.327  20.075  0.00  0.00    +0.000 A 
ATOM     16  C   UNL     1       1.643   4.125  20.897  0.00  0.00    +0.000 A 
ATOM     17  C   UNL     1       2.492   5.095  20.347  0.00  0.00    +0.000 A 
ENDBRANCH   3  12
BRANCH   1  18
ATOM     18  O   UNL     1       1.946   8.024  18.803  0.00  0.00    +0.000 OA
BRANCH  18  19
ATOM     19  C   UNL     1       1.006   8.995  18.329  0.00  0.00    +0.000 C 
BRANCH  19  23
ATOM     20  C   UNL     1       0.888  12.400  20.963  0.00  0.00    +0.000 A 
ATOM     21  C   UNL     1       1.437  12.510  19.674  0.00  0.00    +0.000 A 
ATOM     22  C   UNL     1       1.509  11.403  18.833  0.00  0.00    +0.000 A 
ATOM     23  C   UNL     1       1.080  10.155  19.282  0.00  0.00    +0.000 A 
ATOM     24  C   UNL     1       0.633  10.029  20.605  0.00  0.00    +0.000 A 
ATOM     25  C   UNL     1       0.542  11.137  21.460  0.00  0.00    +0.000 A 
BRANCH  20  27
ATOM     26  C   UNL     1      -0.608  14.054  21.728  0.00  0.00    +0.000 C 
ATOM     27  O   UNL     1       0.716  13.519  21.737  0.00  0.00    +0.000 OA
ENDBRANCH  20  27
BRANCH  25  28
ATOM     28  O   UNL     1       0.077  10.793  22.701  0.00  0.00    +0.000 OA
ATOM     29  C   UNL     1       0.027   9.420  23.063  0.00  0.00    +0.000 C 
ENDBRANCH  25  28
ENDBRANCH  19  23
ENDBRANCH  18  19
ENDBRANCH   1  18
TORSDOF 7
ENDMDL
MODEL 7
REMARK VINA RESULT:      -7.6      1.760      2.519
REMARK  Name = 
REMARK  9 active torsions:
REMARK  status: ('A' for Active; 'I' for Inactive)
REMARK    1  A    between atoms: C_1  and  O_2
REMARK    2  A    between atoms: O_2  and  C_3
REMARK    3  A    between atoms: C_6  and  C_7
REMARK    4  A    between atoms: C_7  and  O_8
REMARK    5  A    between atoms: O_8  and  C_9
REMARK    6  A    between atoms: N_11  and  C_12
REMARK    7  A    between atoms: N_11  and  C_18
REMARK    8  A    between atoms: C_27  and  O_28
REMARK    9  A    between atoms: O_28  and  C_29
REMARK                            x       y       z     vdW  Elec       q    Type
REMARK                         _______ _______ _______ _____ _____    ______ ____
ROOT
ATOM      1  C   UNL     1       2.541   7.188  19.398  0.00  0.00    +0.000 C 
ATOM      2  O   UNL     1       1.878   7.370  20.410  0.00  0.00    +0.000 OA
ATOM      3  N   UNL     1       3.104   5.969  19.013  0.00  0.00    +0.000 N 
ENDROOT
BRANCH   3   4
ATOM      4  C   UNL     1       2.383   4.708  19.294  0.00  0.00    +0.000 C 
ATOM      5  C   UNL     1       3.184   3.576  20.018  0.00  0.00    +0.000 C 
ATOM      6  N   UNL     1       3.033   2.257  19.348  0.00  0.00    +0.000 NA
ATOM      7  C   UNL     1       1.604   1.889  19.307  0.00  0.00    +0.000 C 
ATOM      8  C   UNL     1       0.752   2.969  18.617  0.00  0.00    +0.000 C 
ATOM      9  C   UNL     1       1.671   4.080  18.064  0.00  0.00    +0.000 C 
ATOM     10  C   UNL     1       2.685   3.381  17.144  0.00  0.00    +0.000 C 
ATOM     11  C   UNL     1       3.530   2.389  17.960  0.00  0.00    +0.000 C 
ENDBRANCH   3   4
BRANCH   3  12
ATOM     12  C   UNL     1       4.415   5.940  18.400  0.00  0.00    +0.000 A 
ATOM     13  C   UNL     1       5.543   5.581  19.165  0.00  0.00    +0.000 A 
ATOM     14  C   UNL     1       6.830   5.561  18.618  0.00  0.00    +0.000 A 
ATOM     15  C   UNL     1       7.019   5.893  17.284  0.00  0.00    +0.000 A 
ATOM     16  C   UNL     1       5.920   6.216  16.496  0.00  0.00    +0.000 A 
ATOM     17  C   UNL     1       4.630   6.225  17.043  0.00  0.00    +0.000 A 
ENDBRANCH   3  12
BRANCH   1  18
ATOM     18  O   UNL     1       2.695   8.131  18.430  0.00  0.00    +0.000 OA
BRANCH  18  19
ATOM     19  C   UNL     1       1.539   8.465  17.652  0.00  0.00    +0.000 C 
BRANCH  19  23
ATOM     20  C   UNL     1       0.235  12.161  19.438  0.00  0.00    +0.000 A 
ATOM     21  C   UNL     1      -0.687  11.142  19.145  0.00  0.00    +0.000 A 
ATOM     22  C   UNL     1      -0.275   9.961  18.535  0.00  0.00    +0.000 A 
ATOM     23  C   UNL     1       1.058   9.795  18.161  0.00  0.00    +0.000 A 
ATOM     24  C   UNL     1       1.952  10.856  18.358  0.00  0.00    +0.000 A 
ATOM     25  C   UNL     1       1.556  12.048  18.983  0.00  0.00    +0.000 A 
BRANCH  20  27
ATOM     26  C   UNL     1       0.033  13.180  21.554  0.00  0.00    +0.000 C 
ATOM     27  O   UNL     1      -0.161  13.268  20.143  0.00  0.00    +0.000 OA
ENDBRANCH  20  27
BRANCH  25  28
ATOM     28  O   UNL     1       2.585  12.946  19.081  0.00  0.00    +0.000 OA
ATOM     29  C   UNL     1       2.658  14.014  18.147  0.00  0.00    +0.000 C 
ENDBRANCH  25  28
ENDBRANCH  19  23
ENDBRANCH  18  19
ENDBRANCH   1  18
TORSDOF 7
ENDMDL
MODEL 8
REMARK VINA RESULT:      -7.6      1.058      2.028
REMARK  Name = 
REMARK  9 active torsions:
REMARK  status: ('A' for Active; 'I' for Inactive)
REMARK    1  A    between atoms: C_1  and  O_2
REMARK    2  A    between atoms: O_2  and  C_3
REMARK    3  A    between atoms: C_6  and  C_7
REMARK    4  A    between atoms: C_7  and  O_8
REMARK    5  A    between atoms: O_8  and  C_9
REMARK    6  A    between atoms: N_11  and  C_12
REMARK    7  A    between atoms: N_11  and  C_18
REMARK    8  A    between atoms: C_27  and  O_28
REMARK    9  A    between atoms: O_28  and  C_29
REMARK                            x       y       z     vdW  Elec       q    Type
REMARK                         _______ _______ _______ _____ _____    ______ ____
ROOT
ATOM      1  C   UNL     1       2.495   7.080  19.185  0.00  0.00    +0.000 C 
ATOM      2  O   UNL     1       2.141   7.551  20.257  0.00  0.00    +0.000 OA
ATOM      3  N   UNL     1       3.173   5.871  19.022  0.00  0.00    +0.000 N 
ENDROOT
BRANCH   3   4
ATOM      4  C   UNL     1       2.868   4.734  19.918  0.00  0.00    +0.000 C 
ATOM      5  C   UNL     1       3.815   3.490  19.839  0.00  0.00    +0.000 C 
ATOM      6  N   UNL     1       3.064   2.212  19.728  0.00  0.00    +0.000 NA
ATOM      7  C   UNL     1       2.169   2.066  20.892  0.00  0.00    +0.000 C 
ATOM      8  C   UNL     1       1.215   3.265  21.038  0.00  0.00    +0.000 C 
ATOM      9  C   UNL     1       1.402   4.225  19.843  0.00  0.00    +0.000 C 
ATOM     10  C   UNL     1       1.181   3.382  18.577  0.00  0.00    +0.000 C 
ATOM     11  C   UNL     1       2.240   2.270  18.499  0.00  0.00    +0.000 C 
ENDBRANCH   3   4
BRANCH   3  12
ATOM     12  C   UNL     1       4.215   5.755  18.024  0.00  0.00    +0.000 A 
ATOM     13  C   UNL     1       5.443   6.421  18.205  0.00  0.00    +0.000 A 
ATOM     14  C   UNL     1       6.467   6.353  17.254  0.00  0.00    +0.000 A 
ATOM     15  C   UNL     1       6.289   5.605  16.099  0.00  0.00    +0.000 A 
ATOM     16  C   UNL     1       5.101   4.908  15.911  0.00  0.00    +0.000 A 
ATOM     17  C   UNL     1       4.080   4.968  16.869  0.00  0.00    +0.000 A 
ENDBRANCH   3  12
BRANCH   1  18
ATOM     18  O   UNL     1       2.140   7.614  17.985  0.00  0.00    +0.000 OA
BRANCH  18  19
ATOM     19  C   UNL     1       2.573   8.951  17.708  0.00  0.00    +0.000 C 
BRANCH  19  23
ATOM     20  C   UNL     1      -0.822  11.351  18.832  0.00  0.00    +0.000 A 
ATOM     21  C   UNL     1      -0.995  10.164  18.101  0.00  0.00    +0.000 A 
ATOM     22  C   UNL     1       0.103   9.404  17.705  0.00  0.00    +0.000 A 
ATOM     23  C   UNL     1       1.395   9.842  17.989  0.00  0.00    +0.000 A 
ATOM     24  C   UNL     1       1.566  11.080  18.624  0.00  0.00    +0.000 A 
ATOM     25  C   UNL     1       0.470  11.851  19.041  0.00  0.00    +0.000 A 
BRANCH  20  27
ATOM     26  C   UNL     1      -3.147  11.706  18.676  0.00  0.00    +0.000 C 
ATOM     27  O   UNL     1      -1.912  12.028  19.316  0.00  0.00    +0.000 OA
ENDBRANCH  20  27
BRANCH  25  28
ATOM     28  O   UNL     1       0.860  13.017  19.644  0.00  0.00    +0.000 OA
ATOM     29  C   UNL     1       0.916  14.207  18.871  0.00  0.00    +0.000 C 
ENDBRANCH  25  28
ENDBRANCH  19  23
ENDBRANCH  18  19
ENDBRANCH   1  18
TORSDOF 7
ENDMDL
MODEL 9
REMARK VINA RESULT:      -7.6      2.482      4.322
REMARK  Name = 
REMARK  9 active torsions:
REMARK  status: ('A' for Active; 'I' for Inactive)
REMARK    1  A    between atoms: C_1  and  O_2
REMARK    2  A    between atoms: O_2  and  C_3
REMARK    3  A    between atoms: C_6  and  C_7
REMARK    4  A    between atoms: C_7  and  O_8
REMARK    5  A    between atoms: O_8  and  C_9
REMARK    6  A    between atoms: N_11  and  C_12
REMARK    7  A    between atoms: N_11  and  C_18
REMARK    8  A    between atoms: C_27  and  O_28
REMARK    9  A    between atoms: O_28  and  C_29
REMARK                            x       y       z     vdW  Elec       q    Type
REMARK                         _______ _______ _______ _____ _____    ______ ____
ROOT
ATOM      1  C   UNL     1       2.262   7.652  18.781  0.00  0.00    +0.000 C 
ATOM      2  O   UNL     1       2.495   8.549  17.983  0.00  0.00    +0.000 OA
ATOM      3  N   UNL     1       2.952   6.441  18.855  0.00  0.00    +0.000 N 
ENDROOT
BRANCH   3   4
ATOM      4  C   UNL     1       4.405   6.407  18.576  0.00  0.00    +0.000 C 
ATOM      5  C   UNL     1       4.842   6.470  17.075  0.00  0.00    +0.000 C 
ATOM      6  N   UNL     1       5.843   5.424  16.732  0.00  0.00    +0.000 NA
ATOM      7  C   UNL     1       7.032   5.584  17.591  0.00  0.00    +0.000 C 
ATOM      8  C   UNL     1       6.671   5.545  19.087  0.00  0.00    +0.000 C 
ATOM      9  C   UNL     1       5.167   5.234  19.250  0.00  0.00    +0.000 C 
ATOM     10  C   UNL     1       4.917   3.917  18.497  0.00  0.00    +0.000 C 
ATOM     11  C   UNL     1       5.234   4.102  17.003  0.00  0.00    +0.000 C 
ENDBRANCH   3   4
BRANCH   3  12
ATOM     12  C   UNL     1       2.235   5.216  19.141  0.00  0.00    +0.000 A 
ATOM     13  C   UNL     1       1.747   4.422  18.084  0.00  0.00    +0.000 A 
ATOM     14  C   UNL     1       1.030   3.244  18.316  0.00  0.00    +0.000 A 
ATOM     15  C   UNL     1       0.791   2.825  19.618  0.00  0.00    +0.000 A 
ATOM     16  C   UNL     1       1.292   3.570  20.679  0.00  0.00    +0.000 A 
ATOM     17  C   UNL     1       2.019   4.745  20.445  0.00  0.00    +0.000 A 
ENDBRANCH   3  12
BRANCH   1  18
ATOM     18  O   UNL     1       1.379   7.782  19.808  0.00  0.00    +0.000 OA
BRANCH  18  19
ATOM     19  C   UNL     1       1.882   8.313  21.040  0.00  0.00    +0.000 C 
BRANCH  19  23
ATOM     20  C   UNL     1      -0.729  11.380  22.562  0.00  0.00    +0.000 A 
ATOM     21  C   UNL     1      -0.723  10.096  23.134  0.00  0.00    +0.000 A 
ATOM     22  C   UNL     1       0.094   9.092  22.621  0.00  0.00    +0.000 A 
ATOM     23  C   UNL     1       0.882   9.337  21.498  0.00  0.00    +0.000 A 
ATOM     24  C   UNL     1       0.792  10.586  20.868  0.00  0.00    +0.000 A 
ATOM     25  C   UNL     1      -0.017  11.613  21.379  0.00  0.00    +0.000 A 
BRANCH  20  27
ATOM     26  C   UNL     1      -2.856  12.160  23.216  0.00  0.00    +0.000 C 
ATOM     27  O   UNL     1      -1.449  12.391  23.146  0.00  0.00    +0.000 OA
ENDBRANCH  20  27
BRANCH  25  28
ATOM     28  O   UNL     1       0.047  12.747  20.615  0.00  0.00    +0.000 OA
ATOM     29  C   UNL     1       1.314  13.334  20.357  0.00  0.00    +0.000 C 
ENDBRANCH  25  28
ENDBRANCH  19  23
ENDBRANCH  18  19
ENDBRANCH   1  18
TORSDOF 7
ENDMDL
