MODEL 1
REMARK VINA RESULT:      -8.4      0.000      0.000
REMARK  Name = 
REMARK  8 active torsions:
REMARK  status: ('A' for Active; 'I' for Inactive)
REMARK    1  A    between atoms: C_1  and  C_2
REMARK    2  A    between atoms: C_5  and  N_6
REMARK    3  A    between atoms: N_6  and  S_7
REMARK    4  A    between atoms: S_7  and  C_10
REMARK    5  A    between atoms: C_13  and  N_14
REMARK    6  A    between atoms: C_15  and  C_17
REMARK    7  A    between atoms: C_21  and  C_22
REMARK    8  A    between atoms: C_25  and  C_26
REMARK                            x       y       z     vdW  Elec       q    Type
REMARK                         _______ _______ _______ _____ _____    ______ ____
ROOT
ATOM      1  C   UNL     1       6.639   5.690  17.382  0.00  0.00    +0.000 A 
ATOM      2  C   UNL     1       6.597   6.964  16.815  0.00  0.00    +0.000 A 
ATOM      3  C   UNL     1       7.372   7.989  17.358  0.00  0.00    +0.000 A 
ATOM      4  C   UNL     1       8.179   7.776  18.477  0.00  0.00    +0.000 A 
ATOM      5  C   UNL     1       8.240   6.485  19.023  0.00  0.00    +0.000 A 
ATOM      6  C   UNL     1       7.463   5.443  18.481  0.00  0.00    +0.000 A 
ENDROOT
BRANCH   4   7
ATOM      7  N   UNL     1       8.923   8.829  19.090  0.00  0.00    +0.000 N 
ATOM      8  C   UNL     1       8.948  10.150  18.706  0.00  0.00    +0.000 C 
ATOM      9  O   UNL     1       8.373  10.621  17.729  0.00  0.00    +0.000 OA
ATOM     10  H   UNL     1       9.429   8.576  19.936  0.00  0.00    +0.000 HD
BRANCH   8  11
ATOM     11  C   UNL     1       9.726  11.052  19.564  0.00  0.00    +0.000 A 
ATOM     12  C   UNL     1       9.481  11.472  20.895  0.00  0.00    +0.000 A 
ATOM     13  C   UNL     1      10.478  12.359  21.229  0.00  0.00    +0.000 A 
ATOM     14  O   UNL     1      11.332  12.499  20.185  0.00  0.00    +0.000 OA
ATOM     15  C   UNL     1      10.884  11.732  19.170  0.00  0.00    +0.000 A 
ATOM     16  C   UNL     1      11.664  11.801  17.916  0.00  0.00    +0.000 C 
ENDBRANCH   8  11
ENDBRANCH   4   7
BRANCH   1  17
ATOM     17  S   UNL     1       5.600   4.420  16.699  0.00  0.00    +0.000 S 
ATOM     18  O   UNL     1       6.428   3.654  15.783  0.00  0.00    +0.000 OA
ATOM     19  O   UNL     1       4.373   5.040  16.281  0.00  0.00    +0.000 OA
BRANCH  17  20
ATOM     20  N   UNL     1       5.317   3.453  18.064  0.00  0.00    +0.000 N 
ATOM     21  H   UNL     1       6.149   3.136  18.563  0.00  0.00    +0.000 HD
BRANCH  20  26
ATOM     22  C   UNL     1       0.954   3.425  20.448  0.00  0.00    +0.000 C 
ATOM     23  C   UNL     1       2.282   3.812  19.911  0.00  0.00    +0.000 A 
ATOM     24  N   UNL     1       2.893   4.936  20.308  0.00  0.00    +0.000 NA
ATOM     25  O   UNL     1       4.116   4.953  19.649  0.00  0.00    +0.000 OA
ATOM     26  C   UNL     1       4.203   3.864  18.831  0.00  0.00    +0.000 A 
ATOM     27  C   UNL     1       3.078   3.095  18.981  0.00  0.00    +0.000 A 
ATOM     28  C   UNL     1       2.776   1.793  18.344  0.00  0.00    +0.000 C 
ENDBRANCH  20  26
ENDBRANCH  17  20
ENDBRANCH   1  17
TORSDOF 5
ENDMDL
MODEL 2
REMARK VINA RESULT:      -8.4      1.350      1.625
REMARK  Name = 
REMARK  8 active torsions:
REMARK  status: ('A' for Active; 'I' for Inactive)
REMARK    1  A    between atoms: C_1  and  C_2
REMARK    2  A    between atoms: C_5  and  N_6
REMARK    3  A    between atoms: N_6  and  S_7
REMARK    4  A    between atoms: S_7  and  C_10
REMARK    5  A    between atoms: C_13  and  N_14
REMARK    6  A    between atoms: C_15  and  C_17
REMARK    7  A    between atoms: C_21  and  C_22
REMARK    8  A    between atoms: C_25  and  C_26
REMARK                            x       y       z     vdW  Elec       q    Type
REMARK                         _______ _______ _______ _____ _____    ______ ____
ROOT
ATOM      1  C   UNL     1       6.514   5.332  17.393  0.00  0.00    +0.000 A 
ATOM      2  C   UNL     1       6.601   6.535  16.693  0.00  0.00    +0.000 A 
ATOM      3  C   UNL     1       7.383   7.574  17.199  0.00  0.00    +0.000 A 
ATOM      4  C   UNL     1       8.071   7.446  18.407  0.00  0.00    +0.000 A 
ATOM      5  C   UNL     1       8.004   6.221  19.089  0.00  0.00    +0.000 A 
ATOM      6  C   UNL     1       7.218   5.166  18.587  0.00  0.00    +0.000 A 
ENDROOT
BRANCH   4   7
ATOM      7  N   UNL     1       8.817   8.521  18.975  0.00  0.00    +0.000 N 
ATOM      8  C   UNL     1       8.744   9.850  18.623  0.00  0.00    +0.000 C 
ATOM      9  O   UNL     1       8.059  10.312  17.716  0.00  0.00    +0.000 OA
ATOM     10  H   UNL     1       9.412   8.276  19.764  0.00  0.00    +0.000 HD
BRANCH   8  11
ATOM     11  C   UNL     1       9.555  10.771  19.429  0.00  0.00    +0.000 A 
ATOM     12  C   UNL     1       9.430  11.132  20.793  0.00  0.00    +0.000 A 
ATOM     13  C   UNL     1      10.403  12.070  21.055  0.00  0.00    +0.000 A 
ATOM     14  O   UNL     1      11.129  12.297  19.932  0.00  0.00    +0.000 OA
ATOM     15  C   UNL     1      10.621  11.536  18.941  0.00  0.00    +0.000 A 
ATOM     16  C   UNL     1      11.256  11.694  17.616  0.00  0.00    +0.000 C 
ENDBRANCH   8  11
ENDBRANCH   4   7
BRANCH   1  17
ATOM     17  S   UNL     1       5.467   4.047  16.750  0.00  0.00    +0.000 S 
ATOM     18  O   UNL     1       5.350   3.045  17.796  0.00  0.00    +0.000 OA
ATOM     19  O   UNL     1       5.937   3.722  15.432  0.00  0.00    +0.000 OA
BRANCH  17  20
ATOM     20  N   UNL     1       3.979   4.854  16.645  0.00  0.00    +0.000 N 
ATOM     21  H   UNL     1       3.717   5.183  15.716  0.00  0.00    +0.000 HD
BRANCH  20  26
ATOM     22  C   UNL     1       0.826   4.077  20.411  0.00  0.00    +0.000 C 
ATOM     23  C   UNL     1       1.555   3.990  19.122  0.00  0.00    +0.000 A 
ATOM     24  N   UNL     1       1.146   3.169  18.145  0.00  0.00    +0.000 NA
ATOM     25  O   UNL     1       2.020   3.380  17.085  0.00  0.00    +0.000 OA
ATOM     26  C   UNL     1       2.968   4.289  17.456  0.00  0.00    +0.000 A 
ATOM     27  C   UNL     1       2.701   4.726  18.728  0.00  0.00    +0.000 A 
ATOM     28  C   UNL     1       3.426   5.759  19.504  0.00  0.00    +0.000 C 
ENDBRANCH  20  26
ENDBRANCH  17  20
ENDBRANCH   1  17
TORSDOF 5
ENDMDL
MODEL 3
REMARK VINA RESULT:      -8.4      0.453      1.535
REMARK  Name = 
REMARK  8 active torsions:
REMARK  status: ('A' for Active; 'I' for Inactive)
REMARK    1  A    between atoms: C_1  and  C_2
REMARK    2  A    between atoms: C_5  and  N_6
REMARK    3  A    between atoms: N_6  and  S_7
REMARK    4  A    between atoms: S_7  and  C_10
REMARK    5  A    between atoms: C_13  and  N_14
REMARK    6  A    between atoms: C_15  and  C_17
REMARK    7  A    between atoms: C_21  and  C_22
REMARK    8  A    between atoms: C_25  and  C_26
REMARK                            x       y       z     vdW  Elec       q    Type
REMARK                         _______ _______ _______ _____ _____    ______ ____
ROOT
ATOM      1  C   UNL     1       6.588   5.799  17.526  0.00  0.00    +0.000 A 
ATOM      2  C   UNL     1       7.426   5.552  18.613  0.00  0.00    +0.000 A 
ATOM      3  C   UNL     1       8.241   6.572  19.105  0.00  0.00    +0.000 A 
ATOM      4  C   UNL     1       8.253   7.840  18.519  0.00  0.00    +0.000 A 
ATOM      5  C   UNL     1       7.384   8.090  17.445  0.00  0.00    +0.000 A 
ATOM      6  C   UNL     1       6.557   7.067  16.942  0.00  0.00    +0.000 A 
ENDROOT
BRANCH   4   7
ATOM      7  N   UNL     1       9.131   8.874  18.963  0.00  0.00    +0.000 N 
ATOM      8  C   UNL     1       9.061  10.208  18.636  0.00  0.00    +0.000 C 
ATOM      9  O   UNL     1       8.257  10.712  17.857  0.00  0.00    +0.000 OA
ATOM     10  H   UNL     1       9.835   8.592  19.641  0.00  0.00    +0.000 HD
BRANCH   8  11
ATOM     11  C   UNL     1      10.034  11.083  19.302  0.00  0.00    +0.000 A 
ATOM     12  C   UNL     1      11.320  11.498  18.876  0.00  0.00    +0.000 A 
ATOM     13  C   UNL     1      11.849  12.273  19.883  0.00  0.00    +0.000 A 
ATOM     14  O   UNL     1      10.956  12.369  20.900  0.00  0.00    +0.000 OA
ATOM     15  C   UNL     1       9.867  11.646  20.573  0.00  0.00    +0.000 A 
ATOM     16  C   UNL     1       8.800  11.588  21.595  0.00  0.00    +0.000 C 
ENDBRANCH   8  11
ENDBRANCH   4   7
BRANCH   1  17
ATOM     17  S   UNL     1       5.603   4.463  16.889  0.00  0.00    +0.000 S 
ATOM     18  O   UNL     1       6.444   3.738  15.951  0.00  0.00    +0.000 OA
ATOM     19  O   UNL     1       4.329   5.006  16.508  0.00  0.00    +0.000 OA
BRANCH  17  20
ATOM     20  N   UNL     1       5.425   3.495  18.270  0.00  0.00    +0.000 N 
ATOM     21  H   UNL     1       6.283   3.288  18.781  0.00  0.00    +0.000 HD
BRANCH  20  26
ATOM     22  C   UNL     1       1.055   2.999  20.590  0.00  0.00    +0.000 C 
ATOM     23  C   UNL     1       2.341   3.526  20.072  0.00  0.00    +0.000 A 
ATOM     24  N   UNL     1       2.823   4.709  20.476  0.00  0.00    +0.000 NA
ATOM     25  O   UNL     1       4.047   4.857  19.835  0.00  0.00    +0.000 OA
ATOM     26  C   UNL     1       4.262   3.784  19.020  0.00  0.00    +0.000 A 
ATOM     27  C   UNL     1       3.223   2.898  19.155  0.00  0.00    +0.000 A 
ATOM     28  C   UNL     1       3.071   1.572  18.515  0.00  0.00    +0.000 C 
ENDBRANCH  20  26
ENDBRANCH  17  20
ENDBRANCH   1  17
TORSDOF 5
ENDMDL
MODEL 4
REMARK VINA RESULT:      -8.3      1.104      1.287
REMARK  Name = 
REMARK  8 active torsions:
REMARK  status: ('A' for Active; 'I' for Inactive)
REMARK    1  A    between atoms: C_1  and  C_2
REMARK    2  A    between atoms: C_5  and  N_6
REMARK    3  A    between atoms: N_6  and  S_7
REMARK    4  A    between atoms: S_7  and  C_10
REMARK    5  A    between atoms: C_13  and  N_14
REMARK    6  A    between atoms: C_15  and  C_17
REMARK    7  A    between atoms: C_21  and  C_22
REMARK    8  A    between atoms: C_25  and  C_26
REMARK                            x       y       z     vdW  Elec       q    Type
REMARK                         _______ _______ _______ _____ _____    ______ ____
ROOT
ATOM      1  C   UNL     1       6.408   5.504  17.276  0.00  0.00    +0.000 A 
ATOM      2  C   UNL     1       6.297   6.802  16.778  0.00  0.00    +0.000 A 
ATOM      3  C   UNL     1       7.088   7.819  17.314  0.00  0.00    +0.000 A 
ATOM      4  C   UNL     1       7.981   7.572  18.358  0.00  0.00    +0.000 A 
ATOM      5  C   UNL     1       8.110   6.257  18.833  0.00  0.00    +0.000 A 
ATOM      6  C   UNL     1       7.316   5.224  18.298  0.00  0.00    +0.000 A 
ENDROOT
BRANCH   4   7
ATOM      7  N   UNL     1       8.746   8.612  18.967  0.00  0.00    +0.000 N 
ATOM      8  C   UNL     1       8.803   9.929  18.574  0.00  0.00    +0.000 C 
ATOM      9  O   UNL     1       8.243  10.406  17.592  0.00  0.00    +0.000 OA
ATOM     10  H   UNL     1       9.243   8.353  19.817  0.00  0.00    +0.000 HD
BRANCH   8  11
ATOM     11  C   UNL     1       9.598  10.819  19.429  0.00  0.00    +0.000 A 
ATOM     12  C   UNL     1       9.423  11.159  20.793  0.00  0.00    +0.000 A 
ATOM     13  C   UNL     1      10.404  12.071  21.112  0.00  0.00    +0.000 A 
ATOM     14  O   UNL     1      11.180  12.302  20.024  0.00  0.00    +0.000 OA
ATOM     15  C   UNL     1      10.699  11.569  19.000  0.00  0.00    +0.000 A 
ATOM     16  C   UNL     1      11.391  11.737  17.705  0.00  0.00    +0.000 C 
ENDBRANCH   8  11
ENDBRANCH   4   7
BRANCH   1  17
ATOM     17  S   UNL     1       5.347   4.243  16.609  0.00  0.00    +0.000 S 
ATOM     18  O   UNL     1       6.105   3.572  15.567  0.00  0.00    +0.000 OA
ATOM     19  O   UNL     1       4.066   4.842  16.355  0.00  0.00    +0.000 OA
BRANCH  17  20
ATOM     20  N   UNL     1       5.231   3.178  17.924  0.00  0.00    +0.000 N 
ATOM     21  H   UNL     1       5.966   3.257  18.626  0.00  0.00    +0.000 HD
BRANCH  20  26
ATOM     22  C   UNL     1       0.811   3.903  20.082  0.00  0.00    +0.000 C 
ATOM     23  C   UNL     1       1.942   3.337  19.308  0.00  0.00    +0.000 A 
ATOM     24  N   UNL     1       1.792   2.238  18.556  0.00  0.00    +0.000 NA
ATOM     25  O   UNL     1       3.022   2.027  17.946  0.00  0.00    +0.000 OA
ATOM     26  C   UNL     1       3.906   2.974  18.374  0.00  0.00    +0.000 A 
ATOM     27  C   UNL     1       3.264   3.844  19.217  0.00  0.00    +0.000 A 
ATOM     28  C   UNL     1       3.815   5.059  19.861  0.00  0.00    +0.000 C 
ENDBRANCH  20  26
ENDBRANCH  17  20
ENDBRANCH   1  17
TORSDOF 5
ENDMDL
MODEL 5
REMARK VINA RESULT:      -8.3      4.589      7.040
REMARK  Name = 
REMARK  8 active torsions:
REMARK  status: ('A' for Active; 'I' for Inactive)
REMARK    1  A    between atoms: C_1  and  C_2
REMARK    2  A    between atoms: C_5  and  N_6
REMARK    3  A    between atoms: N_6  and  S_7
REMARK    4  A    between atoms: S_7  and  C_10
REMARK    5  A    between atoms: C_13  and  N_14
REMARK    6  A    between atoms: C_15  and  C_17
REMARK    7  A    between atoms: C_21  and  C_22
REMARK    8  A    between atoms: C_25  and  C_26
REMARK                            x       y       z     vdW  Elec       q    Type
REMARK                         _______ _______ _______ _____ _____    ______ ____
ROOT
ATOM      1  C   UNL     1       3.340   4.626  18.731  0.00  0.00    +0.000 A 
ATOM      2  C   UNL     1       3.510   5.304  19.937  0.00  0.00    +0.000 A 
ATOM      3  C   UNL     1       2.886   6.537  20.132  0.00  0.00    +0.000 A 
ATOM      4  C   UNL     1       2.105   7.123  19.133  0.00  0.00    +0.000 A 
ATOM      5  C   UNL     1       1.914   6.420  17.934  0.00  0.00    +0.000 A 
ATOM      6  C   UNL     1       2.539   5.174  17.728  0.00  0.00    +0.000 A 
ENDROOT
BRANCH   4   7
ATOM      7  N   UNL     1       1.518   8.414  19.287  0.00  0.00    +0.000 N 
ATOM      8  C   UNL     1       1.581   9.458  18.393  0.00  0.00    +0.000 C 
ATOM      9  O   UNL     1       2.209   9.459  17.339  0.00  0.00    +0.000 OA
ATOM     10  H   UNL     1       0.942   8.540  20.117  0.00  0.00    +0.000 HD
BRANCH   8  11
ATOM     11  C   UNL     1       0.811  10.656  18.751  0.00  0.00    +0.000 A 
ATOM     12  C   UNL     1       1.200  11.793  19.502  0.00  0.00    +0.000 A 
ATOM     13  C   UNL     1       0.097  12.611  19.598  0.00  0.00    +0.000 A 
ATOM     14  O   UNL     1      -0.945  12.048  18.938  0.00  0.00    +0.000 OA
ATOM     15  C   UNL     1      -0.537  10.865  18.437  0.00  0.00    +0.000 A 
ATOM     16  C   UNL     1      -1.565  10.075  17.726  0.00  0.00    +0.000 C 
ENDBRANCH   8  11
ENDBRANCH   4   7
BRANCH   1  17
ATOM     17  S   UNL     1       4.193   3.084  18.494  0.00  0.00    +0.000 S 
ATOM     18  O   UNL     1       3.221   2.152  17.947  0.00  0.00    +0.000 OA
ATOM     19  O   UNL     1       4.924   2.802  19.698  0.00  0.00    +0.000 OA
BRANCH  17  20
ATOM     20  N   UNL     1       5.271   3.488  17.249  0.00  0.00    +0.000 N 
ATOM     21  H   UNL     1       4.872   3.525  16.311  0.00  0.00    +0.000 HD
BRANCH  20  26
ATOM     22  C   UNL     1       7.647   7.844  17.560  0.00  0.00    +0.000 C 
ATOM     23  C   UNL     1       7.219   6.438  17.757  0.00  0.00    +0.000 A 
ATOM     24  N   UNL     1       7.747   5.678  18.727  0.00  0.00    +0.000 NA
ATOM     25  O   UNL     1       7.088   4.458  18.650  0.00  0.00    +0.000 OA
ATOM     26  C   UNL     1       6.207   4.485  17.609  0.00  0.00    +0.000 A 
ATOM     27  C   UNL     1       6.231   5.727  17.028  0.00  0.00    +0.000 A 
ATOM     28  C   UNL     1       5.394   6.226  15.913  0.00  0.00    +0.000 C 
ENDBRANCH  20  26
ENDBRANCH  17  20
ENDBRANCH   1  17
TORSDOF 5
ENDMDL
MODEL 6
REMARK VINA RESULT:      -8.3      1.181      1.764
REMARK  Name = 
REMARK  8 active torsions:
REMARK  status: ('A' for Active; 'I' for Inactive)
REMARK    1  A    between atoms: C_1  and  C_2
REMARK    2  A    between atoms: C_5  and  N_6
REMARK    3  A    between atoms: N_6  and  S_7
REMARK    4  A    between atoms: S_7  and  C_10
REMARK    5  A    between atoms: C_13  and  N_14
REMARK    6  A    between atoms: C_15  and  C_17
REMARK    7  A    between atoms: C_21  and  C_22
REMARK    8  A    between atoms: C_25  and  C_26
REMARK                            x       y       z     vdW  Elec       q    Type
REMARK                         _______ _______ _______ _____ _____    ______ ____
ROOT
ATOM      1  C   UNL     1       6.525   5.663  17.599  0.00  0.00    +0.000 A 
ATOM      2  C   UNL     1       6.540   6.888  16.933  0.00  0.00    +0.000 A 
ATOM      3  C   UNL     1       7.395   7.902  17.367  0.00  0.00    +0.000 A 
ATOM      4  C   UNL     1       8.230   7.726  18.472  0.00  0.00    +0.000 A 
ATOM      5  C   UNL     1       8.231   6.480  19.119  0.00  0.00    +0.000 A 
ATOM      6  C   UNL     1       7.373   5.450  18.687  0.00  0.00    +0.000 A 
ENDROOT
BRANCH   4   7
ATOM      7  N   UNL     1       9.058   8.774  18.974  0.00  0.00    +0.000 N 
ATOM      8  C   UNL     1       8.983  10.109  18.650  0.00  0.00    +0.000 C 
ATOM      9  O   UNL     1       8.219  10.602  17.826  0.00  0.00    +0.000 OA
ATOM     10  H   UNL     1       9.725   8.502  19.693  0.00  0.00    +0.000 HD
BRANCH   8  11
ATOM     11  C   UNL     1       9.896  10.997  19.379  0.00  0.00    +0.000 A 
ATOM     12  C   UNL     1      11.161  11.508  18.996  0.00  0.00    +0.000 A 
ATOM     13  C   UNL     1      11.634  12.253  20.054  0.00  0.00    +0.000 A 
ATOM     14  O   UNL     1      10.724  12.241  21.060  0.00  0.00    +0.000 OA
ATOM     15  C   UNL     1       9.682  11.478  20.676  0.00  0.00    +0.000 A 
ATOM     16  C   UNL     1       8.608  11.302  21.677  0.00  0.00    +0.000 C 
ENDBRANCH   8  11
ENDBRANCH   4   7
BRANCH   1  17
ATOM     17  S   UNL     1       5.385   4.412  17.055  0.00  0.00    +0.000 S 
ATOM     18  O   UNL     1       6.059   3.665  16.006  0.00  0.00    +0.000 OA
ATOM     19  O   UNL     1       4.113   5.046  16.843  0.00  0.00    +0.000 OA
BRANCH  17  20
ATOM     20  N   UNL     1       5.308   3.415  18.425  0.00  0.00    +0.000 N 
ATOM     21  H   UNL     1       5.907   3.685  19.205  0.00  0.00    +0.000 HD
BRANCH  20  26
ATOM     22  C   UNL     1       0.620   3.248  20.072  0.00  0.00    +0.000 C 
ATOM     23  C   UNL     1       1.916   2.923  19.428  0.00  0.00    +0.000 A 
ATOM     24  N   UNL     1       2.058   1.836  18.658  0.00  0.00    +0.000 NA
ATOM     25  O   UNL     1       3.366   1.874  18.190  0.00  0.00    +0.000 OA
ATOM     26  C   UNL     1       4.004   2.956  18.721  0.00  0.00    +0.000 A 
ATOM     27  C   UNL     1       3.121   3.670  19.491  0.00  0.00    +0.000 A 
ATOM     28  C   UNL     1       3.359   4.948  20.200  0.00  0.00    +0.000 C 
ENDBRANCH  20  26
ENDBRANCH  17  20
ENDBRANCH   1  17
TORSDOF 5
ENDMDL
MODEL 7
REMARK VINA RESULT:      -8.2      1.351      2.204
REMARK  Name = 
REMARK  8 active torsions:
REMARK  status: ('A' for Active; 'I' for Inactive)
REMARK    1  A    between atoms: C_1  and  C_2
REMARK    2  A    between atoms: C_5  and  N_6
REMARK    3  A    between atoms: N_6  and  S_7
REMARK    4  A    between atoms: S_7  and  C_10
REMARK    5  A    between atoms: C_13  and  N_14
REMARK    6  A    between atoms: C_15  and  C_17
REMARK    7  A    between atoms: C_21  and  C_22
REMARK    8  A    between atoms: C_25  and  C_26
REMARK                            x       y       z     vdW  Elec       q    Type
REMARK                         _______ _______ _______ _____ _____    ______ ____
ROOT
ATOM      1  C   UNL     1       6.528   5.666  17.553  0.00  0.00    +0.000 A 
ATOM      2  C   UNL     1       7.359   5.433  18.648  0.00  0.00    +0.000 A 
ATOM      3  C   UNL     1       8.169   6.460  19.134  0.00  0.00    +0.000 A 
ATOM      4  C   UNL     1       8.183   7.720  18.534  0.00  0.00    +0.000 A 
ATOM      5  C   UNL     1       7.321   7.957  17.451  0.00  0.00    +0.000 A 
ATOM      6  C   UNL     1       6.499   6.927  16.954  0.00  0.00    +0.000 A 
ENDROOT
BRANCH   4   7
ATOM      7  N   UNL     1       9.056   8.761  18.971  0.00  0.00    +0.000 N 
ATOM      8  C   UNL     1       8.984  10.092  18.632  0.00  0.00    +0.000 C 
ATOM      9  O   UNL     1       8.183  10.586  17.844  0.00  0.00    +0.000 OA
ATOM     10  H   UNL     1       9.758   8.488  19.656  0.00  0.00    +0.000 HD
BRANCH   8  11
ATOM     11  C   UNL     1       9.952  10.976  19.294  0.00  0.00    +0.000 A 
ATOM     12  C   UNL     1      11.223  11.420  18.853  0.00  0.00    +0.000 A 
ATOM     13  C   UNL     1      11.755  12.191  19.862  0.00  0.00    +0.000 A 
ATOM     14  O   UNL     1      10.877  12.258  20.893  0.00  0.00    +0.000 OA
ATOM     15  C   UNL     1       9.795  11.519  20.575  0.00  0.00    +0.000 A 
ATOM     16  C   UNL     1       8.747  11.428  21.612  0.00  0.00    +0.000 C 
ENDBRANCH   8  11
ENDBRANCH   4   7
BRANCH   1  17
ATOM     17  S   UNL     1       5.550   4.321  16.925  0.00  0.00    +0.000 S 
ATOM     18  O   UNL     1       5.468   3.335  17.989  0.00  0.00    +0.000 OA
ATOM     19  O   UNL     1       6.050   3.993  15.618  0.00  0.00    +0.000 OA
BRANCH  17  20
ATOM     20  N   UNL     1       4.026   5.054  16.788  0.00  0.00    +0.000 N 
ATOM     21  H   UNL     1       3.788   5.413  15.864  0.00  0.00    +0.000 HD
BRANCH  20  26
ATOM     22  C   UNL     1       0.770   3.931  20.374  0.00  0.00    +0.000 C 
ATOM     23  C   UNL     1       1.552   3.947  19.114  0.00  0.00    +0.000 A 
ATOM     24  N   UNL     1       1.221   3.163  18.079  0.00  0.00    +0.000 NA
ATOM     25  O   UNL     1       2.125   3.470  17.069  0.00  0.00    +0.000 OA
ATOM     26  C   UNL     1       3.013   4.400  17.525  0.00  0.00    +0.000 A 
ATOM     27  C   UNL     1       2.677   4.756  18.807  0.00  0.00    +0.000 A 
ATOM     28  C   UNL     1       3.320   5.777  19.665  0.00  0.00    +0.000 C 
ENDBRANCH  20  26
ENDBRANCH  17  20
ENDBRANCH   1  17
TORSDOF 5
ENDMDL
MODEL 8
REMARK VINA RESULT:      -8.2      4.775      7.080
REMARK  Name = 
REMARK  8 active torsions:
REMARK  status: ('A' for Active; 'I' for Inactive)
REMARK    1  A    between atoms: C_1  and  C_2
REMARK    2  A    between atoms: C_5  and  N_6
REMARK    3  A    between atoms: N_6  and  S_7
REMARK    4  A    between atoms: S_7  and  C_10
REMARK    5  A    between atoms: C_13  and  N_14
REMARK    6  A    between atoms: C_15  and  C_17
REMARK    7  A    between atoms: C_21  and  C_22
REMARK    8  A    between atoms: C_25  and  C_26
REMARK                            x       y       z     vdW  Elec       q    Type
REMARK                         _______ _______ _______ _____ _____    ______ ____
ROOT
ATOM      1  C   UNL     1       2.502   4.997  18.904  0.00  0.00    +0.000 A 
ATOM      2  C   UNL     1       2.047   5.172  20.211  0.00  0.00    +0.000 A 
ATOM      3  C   UNL     1       1.721   6.450  20.665  0.00  0.00    +0.000 A 
ATOM      4  C   UNL     1       1.858   7.571  19.843  0.00  0.00    +0.000 A 
ATOM      5  C   UNL     1       2.287   7.383  18.520  0.00  0.00    +0.000 A 
ATOM      6  C   UNL     1       2.617   6.096  18.052  0.00  0.00    +0.000 A 
ENDROOT
BRANCH   4   7
ATOM      7  N   UNL     1       1.597   8.893  20.311  0.00  0.00    +0.000 N 
ATOM      8  C   UNL     1       0.717   9.800  19.768  0.00  0.00    +0.000 C 
ATOM      9  O   UNL     1       0.054   9.630  18.749  0.00  0.00    +0.000 OA
ATOM     10  H   UNL     1       2.069   9.156  21.175  0.00  0.00    +0.000 HD
BRANCH   8  11
ATOM     11  C   UNL     1       0.568  11.065  20.498  0.00  0.00    +0.000 A 
ATOM     12  C   UNL     1       0.994  12.370  20.145  0.00  0.00    +0.000 A 
ATOM     13  C   UNL     1       0.659  13.200  21.191  0.00  0.00    +0.000 A 
ATOM     14  O   UNL     1       0.039  12.483  22.161  0.00  0.00    +0.000 OA
ATOM     15  C   UNL     1      -0.009  11.195  21.766  0.00  0.00    +0.000 A 
ATOM     16  C   UNL     1      -0.606  10.246  22.730  0.00  0.00    +0.000 C 
ENDBRANCH   8  11
ENDBRANCH   4   7
BRANCH   1  17
ATOM     17  S   UNL     1       2.961   3.363  18.375  0.00  0.00    +0.000 S 
ATOM     18  O   UNL     1       1.873   2.875  17.543  0.00  0.00    +0.000 OA
ATOM     19  O   UNL     1       3.418   2.643  19.531  0.00  0.00    +0.000 OA
BRANCH  17  20
ATOM     20  N   UNL     1       4.272   3.701  17.354  0.00  0.00    +0.000 N 
ATOM     21  H   UNL     1       4.033   4.003  16.409  0.00  0.00    +0.000 HD
BRANCH  20  26
ATOM     22  C   UNL     1       7.894   6.942  18.402  0.00  0.00    +0.000 C 
ATOM     23  C   UNL     1       6.921   5.825  18.464  0.00  0.00    +0.000 A 
ATOM     24  N   UNL     1       6.770   5.093  19.576  0.00  0.00    +0.000 NA
ATOM     25  O   UNL     1       5.758   4.184  19.294  0.00  0.00    +0.000 OA
ATOM     26  C   UNL     1       5.346   4.352  18.004  0.00  0.00    +0.000 A 
ATOM     27  C   UNL     1       6.032   5.398  17.443  0.00  0.00    +0.000 A 
ATOM     28  C   UNL     1       5.863   5.975  16.090  0.00  0.00    +0.000 C 
ENDBRANCH  20  26
ENDBRANCH  17  20
ENDBRANCH   1  17
TORSDOF 5
ENDMDL
MODEL 9
REMARK VINA RESULT:      -8.2      4.189      7.091
REMARK  Name = 
REMARK  8 active torsions:
REMARK  status: ('A' for Active; 'I' for Inactive)
REMARK    1  A    between atoms: C_1  and  C_2
REMARK    2  A    between atoms: C_5  and  N_6
REMARK    3  A    between atoms: N_6  and  S_7
REMARK    4  A    between atoms: S_7  and  C_10
REMARK    5  A    between atoms: C_13  and  N_14
REMARK    6  A    between atoms: C_15  and  C_17
REMARK    7  A    between atoms: C_21  and  C_22
REMARK    8  A    between atoms: C_25  and  C_26
REMARK                            x       y       z     vdW  Elec       q    Type
REMARK                         _______ _______ _______ _____ _____    ______ ____
ROOT
ATOM      1  C   UNL     1       3.852   5.055  17.966  0.00  0.00    +0.000 A 
ATOM      2  C   UNL     1       3.347   4.596  19.182  0.00  0.00    +0.000 A 
ATOM      3  C   UNL     1       2.667   5.475  20.025  0.00  0.00    +0.000 A 
ATOM      4  C   UNL     1       2.494   6.819  19.688  0.00  0.00    +0.000 A 
ATOM      5  C   UNL     1       2.978   7.266  18.449  0.00  0.00    +0.000 A 
ATOM      6  C   UNL     1       3.665   6.386  17.590  0.00  0.00    +0.000 A 
ENDROOT
BRANCH   4   7
ATOM      7  N   UNL     1       1.864   7.749  20.568  0.00  0.00    +0.000 N 
ATOM      8  C   UNL     1       1.110   8.842  20.208  0.00  0.00    +0.000 C 
ATOM      9  O   UNL     1       0.909   9.224  19.059  0.00  0.00    +0.000 OA
ATOM     10  H   UNL     1       1.932   7.532  21.560  0.00  0.00    +0.000 HD
BRANCH   8  11
ATOM     11  C   UNL     1       0.495   9.588  21.312  0.00  0.00    +0.000 A 
ATOM     12  C   UNL     1      -0.306   9.123  22.384  0.00  0.00    +0.000 A 
ATOM     13  C   UNL     1      -0.677  10.226  23.120  0.00  0.00    +0.000 A 
ATOM     14  O   UNL     1      -0.138  11.342  22.570  0.00  0.00    +0.000 OA
ATOM     15  C   UNL     1       0.556  10.978  21.473  0.00  0.00    +0.000 A 
ATOM     16  C   UNL     1       1.172  12.078  20.703  0.00  0.00    +0.000 C 
ENDBRANCH   8  11
ENDBRANCH   4   7
BRANCH   1  17
ATOM     17  S   UNL     1       4.761   3.923  16.940  0.00  0.00    +0.000 S 
ATOM     18  O   UNL     1       4.714   4.457  15.589  0.00  0.00    +0.000 OA
ATOM     19  O   UNL     1       4.309   2.595  17.251  0.00  0.00    +0.000 OA
BRANCH  17  20
ATOM     20  N   UNL     1       6.339   4.142  17.522  0.00  0.00    +0.000 N 
ATOM     21  H   UNL     1       6.999   3.394  17.307  0.00  0.00    +0.000 HD
BRANCH  20  26
ATOM     22  C   UNL     1       8.550   8.461  18.605  0.00  0.00    +0.000 C 
ATOM     23  C   UNL     1       7.820   7.368  17.920  0.00  0.00    +0.000 A 
ATOM     24  N   UNL     1       7.482   7.459  16.627  0.00  0.00    +0.000 NA
ATOM     25  O   UNL     1       6.864   6.255  16.312  0.00  0.00    +0.000 OA
ATOM     26  C   UNL     1       6.799   5.476  17.430  0.00  0.00    +0.000 A 
ATOM     27  C   UNL     1       7.416   6.124  18.470  0.00  0.00    +0.000 A 
ATOM     28  C   UNL     1       7.640   5.626  19.846  0.00  0.00    +0.000 C 
ENDBRANCH  20  26
ENDBRANCH  17  20
ENDBRANCH   1  17
TORSDOF 5
ENDMDL
