MODEL 1
REMARK VINA RESULT:      -7.9      0.000      0.000
REMARK  Name = 
REMARK  2 active torsions:
REMARK  status: ('A' for Active; 'I' for Inactive)
REMARK    1  A    between atoms: C_5  and  C_6
REMARK    2  A    between atoms: C_6  and  N_7
REMARK                            x       y       z     vdW  Elec       q    Type
REMARK                         _______ _______ _______ _____ _____    ______ ____
ROOT
ATOM      1  N   UNL     1       6.326   5.577  18.064  0.00  0.00    +0.000 NA
ATOM      2  C   UNL     1       5.632   4.712  19.005  0.00  0.00    +0.000 C 
ATOM      3  C   UNL     1       4.508   5.475  19.666  0.00  0.00    +0.000 C 
ATOM      4  C   UNL     1       3.372   5.717  18.656  0.00  0.00    +0.000 C 
ATOM      5  C   UNL     1       3.929   6.282  17.331  0.00  0.00    +0.000 C 
ATOM      6  C   UNL     1       5.458   6.481  17.289  0.00  0.00    +0.000 C 
ATOM      7  O   UNL     1       2.423   6.678  19.191  0.00  0.00    +0.000 OA
ATOM      8  C   UNL     1       1.872   6.334  20.475  0.00  0.00    +0.000 C 
ATOM      9  C   UNL     1       1.174   4.961  20.529  0.00  0.00    +0.000 C 
ATOM     10  C   UNL     1       1.657   4.018  19.475  0.00  0.00    +0.000 A 
ATOM     11  C   UNL     1       1.340   2.634  19.342  0.00  0.00    +0.000 A 
ATOM     12  C   UNL     1       1.903   2.082  18.213  0.00  0.00    +0.000 A 
ATOM     13  S   UNL     1       2.789   3.232  17.314  0.00  0.00    +0.000 S 
ATOM     14  C   UNL     1       2.576   4.421  18.522  0.00  0.00    +0.000 A 
ENDROOT
BRANCH   1  15
ATOM     15  C   UNL     1       7.302   4.800  17.296  0.00  0.00    +0.000 C 
BRANCH  15  20
ATOM     16  F   UNL     1       5.934   3.790  11.924  0.00  0.00    +0.000 F 
ATOM     17  C   UNL     1       6.257   4.043  13.202  0.00  0.00    +0.000 A 
ATOM     18  C   UNL     1       7.283   4.936  13.485  0.00  0.00    +0.000 A 
ATOM     19  C   UNL     1       7.620   5.196  14.813  0.00  0.00    +0.000 A 
ATOM     20  C   UNL     1       6.921   4.565  15.856  0.00  0.00    +0.000 A 
ATOM     21  C   UNL     1       5.890   3.660  15.544  0.00  0.00    +0.000 A 
ATOM     22  C   UNL     1       5.559   3.404  14.216  0.00  0.00    +0.000 A 
ENDBRANCH  15  20
ENDBRANCH   1  15
TORSDOF 2
ENDMDL
MODEL 2
REMARK VINA RESULT:      -7.7      0.100      1.037
REMARK  Name = 
REMARK  2 active torsions:
REMARK  status: ('A' for Active; 'I' for Inactive)
REMARK    1  A    between atoms: C_5  and  C_6
REMARK    2  A    between atoms: C_6  and  N_7
REMARK                            x       y       z     vdW  Elec       q    Type
REMARK                         _______ _______ _______ _____ _____    ______ ____
ROOT
ATOM      1  N   UNL     1       6.347   5.606  18.025  0.00  0.00    +0.000 NA
ATOM      2  C   UNL     1       5.652   4.762  18.984  0.00  0.00    +0.000 C 
ATOM      3  C   UNL     1       4.533   5.542  19.634  0.00  0.00    +0.000 C 
ATOM      4  C   UNL     1       3.395   5.770  18.623  0.00  0.00    +0.000 C 
ATOM      5  C   UNL     1       3.951   6.308  17.286  0.00  0.00    +0.000 C 
ATOM      6  C   UNL     1       5.481   6.499  17.236  0.00  0.00    +0.000 C 
ATOM      7  O   UNL     1       2.452   6.745  19.142  0.00  0.00    +0.000 OA
ATOM      8  C   UNL     1       1.903   6.427  20.434  0.00  0.00    +0.000 C 
ATOM      9  C   UNL     1       1.199   5.059  20.516  0.00  0.00    +0.000 C 
ATOM     10  C   UNL     1       1.675   4.094  19.478  0.00  0.00    +0.000 A 
ATOM     11  C   UNL     1       1.352   2.709  19.372  0.00  0.00    +0.000 A 
ATOM     12  C   UNL     1       1.910   2.134  18.252  0.00  0.00    +0.000 A 
ATOM     13  S   UNL     1       2.797   3.263  17.329  0.00  0.00    +0.000 S 
ATOM     14  C   UNL     1       2.593   4.475  18.515  0.00  0.00    +0.000 A 
ENDROOT
BRANCH   1  15
ATOM     15  C   UNL     1       7.318   4.810  17.270  0.00  0.00    +0.000 C 
BRANCH  15  20
ATOM     16  F   UNL     1       5.710   3.773  11.970  0.00  0.00    +0.000 F 
ATOM     17  C   UNL     1       6.095   4.007  13.233  0.00  0.00    +0.000 A 
ATOM     18  C   UNL     1       5.429   3.382  14.280  0.00  0.00    +0.000 A 
ATOM     19  C   UNL     1       5.829   3.628  15.593  0.00  0.00    +0.000 A 
ATOM     20  C   UNL     1       6.902   4.497  15.854  0.00  0.00    +0.000 A 
ATOM     21  C   UNL     1       7.557   5.123  14.778  0.00  0.00    +0.000 A 
ATOM     22  C   UNL     1       7.153   4.874  13.469  0.00  0.00    +0.000 A 
ENDBRANCH  15  20
ENDBRANCH   1  15
TORSDOF 2
ENDMDL
MODEL 3
REMARK VINA RESULT:      -6.8      1.993      2.779
REMARK  Name = 
REMARK  2 active torsions:
REMARK  status: ('A' for Active; 'I' for Inactive)
REMARK    1  A    between atoms: C_5  and  C_6
REMARK    2  A    between atoms: C_6  and  N_7
REMARK                            x       y       z     vdW  Elec       q    Type
REMARK                         _______ _______ _______ _____ _____    ______ ____
ROOT
ATOM      1  N   UNL     1       5.379   4.162  16.553  0.00  0.00    +0.000 NA
ATOM      2  C   UNL     1       4.019   3.886  16.987  0.00  0.00    +0.000 C 
ATOM      3  C   UNL     1       4.044   3.000  18.211  0.00  0.00    +0.000 C 
ATOM      4  C   UNL     1       4.544   3.798  19.428  0.00  0.00    +0.000 C 
ATOM      5  C   UNL     1       5.838   4.568  19.083  0.00  0.00    +0.000 C 
ATOM      6  C   UNL     1       6.348   4.389  17.638  0.00  0.00    +0.000 C 
ATOM      7  O   UNL     1       4.837   2.900  20.531  0.00  0.00    +0.000 OA
ATOM      8  C   UNL     1       3.747   2.044  20.920  0.00  0.00    +0.000 C 
ATOM      9  C   UNL     1       2.451   2.786  21.299  0.00  0.00    +0.000 C 
ATOM     10  C   UNL     1       2.353   4.145  20.684  0.00  0.00    +0.000 A 
ATOM     11  C   UNL     1       1.230   5.024  20.700  0.00  0.00    +0.000 A 
ATOM     12  C   UNL     1       1.509   6.229  20.096  0.00  0.00    +0.000 A 
ATOM     13  S   UNL     1       3.119   6.303  19.533  0.00  0.00    +0.000 S 
ATOM     14  C   UNL     1       3.391   4.664  19.930  0.00  0.00    +0.000 A 
ENDROOT
BRANCH   1  15
ATOM     15  C   UNL     1       5.367   5.156  15.476  0.00  0.00    +0.000 C 
BRANCH  15  20
ATOM     16  F   UNL     1       7.630   3.236  10.686  0.00  0.00    +0.000 F 
ATOM     17  C   UNL     1       7.091   3.705  11.821  0.00  0.00    +0.000 A 
ATOM     18  C   UNL     1       7.770   4.671  12.554  0.00  0.00    +0.000 A 
ATOM     19  C   UNL     1       7.210   5.156  13.735  0.00  0.00    +0.000 A 
ATOM     20  C   UNL     1       5.965   4.676  14.177  0.00  0.00    +0.000 A 
ATOM     21  C   UNL     1       5.300   3.694  13.421  0.00  0.00    +0.000 A 
ATOM     22  C   UNL     1       5.864   3.213  12.242  0.00  0.00    +0.000 A 
ENDBRANCH  15  20
ENDBRANCH   1  15
TORSDOF 2
ENDMDL
MODEL 4
REMARK VINA RESULT:      -6.7      1.993      2.943
REMARK  Name = 
REMARK  2 active torsions:
REMARK  status: ('A' for Active; 'I' for Inactive)
REMARK    1  A    between atoms: C_5  and  C_6
REMARK    2  A    between atoms: C_6  and  N_7
REMARK                            x       y       z     vdW  Elec       q    Type
REMARK                         _______ _______ _______ _____ _____    ______ ____
ROOT
ATOM      1  N   UNL     1       5.378   4.119  16.586  0.00  0.00    +0.000 NA
ATOM      2  C   UNL     1       4.016   3.843  17.016  0.00  0.00    +0.000 C 
ATOM      3  C   UNL     1       4.037   2.971  18.249  0.00  0.00    +0.000 C 
ATOM      4  C   UNL     1       4.526   3.784  19.460  0.00  0.00    +0.000 C 
ATOM      5  C   UNL     1       5.820   4.554  19.115  0.00  0.00    +0.000 C 
ATOM      6  C   UNL     1       6.340   4.360  17.675  0.00  0.00    +0.000 C 
ATOM      7  O   UNL     1       4.815   2.899  20.576  0.00  0.00    +0.000 OA
ATOM      8  C   UNL     1       3.725   2.045  20.967  0.00  0.00    +0.000 C 
ATOM      9  C   UNL     1       2.424   2.787  21.330  0.00  0.00    +0.000 C 
ATOM     10  C   UNL     1       2.327   4.138  20.698  0.00  0.00    +0.000 A 
ATOM     11  C   UNL     1       1.200   5.013  20.698  0.00  0.00    +0.000 A 
ATOM     12  C   UNL     1       1.480   6.213  20.082  0.00  0.00    +0.000 A 
ATOM     13  S   UNL     1       3.093   6.286  19.529  0.00  0.00    +0.000 S 
ATOM     14  C   UNL     1       3.367   4.652  19.945  0.00  0.00    +0.000 A 
ENDROOT
BRANCH   1  15
ATOM     15  C   UNL     1       5.370   5.100  15.499  0.00  0.00    +0.000 C 
BRANCH  15  20
ATOM     16  F   UNL     1       7.669   3.410  10.639  0.00  0.00    +0.000 F 
ATOM     17  C   UNL     1       7.122   3.800  11.800  0.00  0.00    +0.000 A 
ATOM     18  C   UNL     1       5.899   3.271  12.193  0.00  0.00    +0.000 A 
ATOM     19  C   UNL     1       5.330   3.679  13.400  0.00  0.00    +0.000 A 
ATOM     20  C   UNL     1       5.993   4.613  14.214  0.00  0.00    +0.000 A 
ATOM     21  C   UNL     1       7.227   5.139  13.792  0.00  0.00    +0.000 A 
ATOM     22  C   UNL     1       7.790   4.728  12.586  0.00  0.00    +0.000 A 
ENDBRANCH  15  20
ENDBRANCH   1  15
TORSDOF 2
ENDMDL
MODEL 5
REMARK VINA RESULT:      -6.3      1.365      1.916
REMARK  Name = 
REMARK  2 active torsions:
REMARK  status: ('A' for Active; 'I' for Inactive)
REMARK    1  A    between atoms: C_5  and  C_6
REMARK    2  A    between atoms: C_6  and  N_7
REMARK                            x       y       z     vdW  Elec       q    Type
REMARK                         _______ _______ _______ _____ _____    ______ ____
ROOT
ATOM      1  N   UNL     1       4.752   6.892  18.395  0.00  0.00    +0.000 NA
ATOM      2  C   UNL     1       4.940   5.655  19.136  0.00  0.00    +0.000 C 
ATOM      3  C   UNL     1       3.711   5.363  19.963  0.00  0.00    +0.000 C 
ATOM      4  C   UNL     1       2.549   4.939  19.047  0.00  0.00    +0.000 C 
ATOM      5  C   UNL     1       2.393   5.925  17.869  0.00  0.00    +0.000 C 
ATOM      6  C   UNL     1       3.400   7.094  17.849  0.00  0.00    +0.000 C 
ATOM      7  O   UNL     1       1.301   4.928  19.792  0.00  0.00    +0.000 OA
ATOM      8  C   UNL     1       1.313   4.113  20.979  0.00  0.00    +0.000 C 
ATOM      9  C   UNL     1       1.689   2.637  20.743  0.00  0.00    +0.000 C 
ATOM     10  C   UNL     1       2.496   2.431  19.502  0.00  0.00    +0.000 A 
ATOM     11  C   UNL     1       3.134   1.229  19.075  0.00  0.00    +0.000 A 
ATOM     12  C   UNL     1       3.736   1.373  17.845  0.00  0.00    +0.000 A 
ATOM     13  S   UNL     1       3.513   2.940  17.205  0.00  0.00    +0.000 S 
ATOM     14  C   UNL     1       2.773   3.482  18.646  0.00  0.00    +0.000 A 
ENDROOT
BRANCH   1  15
ATOM     15  C   UNL     1       5.865   7.092  17.463  0.00  0.00    +0.000 C 
BRANCH  15  20
ATOM     16  F   UNL     1       6.487   3.143  13.492  0.00  0.00    +0.000 F 
ATOM     17  C   UNL     1       6.327   4.079  14.439  0.00  0.00    +0.000 A 
ATOM     18  C   UNL     1       5.359   5.062  14.274  0.00  0.00    +0.000 A 
ATOM     19  C   UNL     1       5.194   6.036  15.258  0.00  0.00    +0.000 A 
ATOM     20  C   UNL     1       5.998   6.019  16.411  0.00  0.00    +0.000 A 
ATOM     21  C   UNL     1       6.975   5.018  16.553  0.00  0.00    +0.000 A 
ATOM     22  C   UNL     1       7.135   4.048  15.566  0.00  0.00    +0.000 A 
ENDBRANCH  15  20
ENDBRANCH   1  15
TORSDOF 2
ENDMDL
MODEL 6
REMARK VINA RESULT:      -6.3      1.380      1.950
REMARK  Name = 
REMARK  2 active torsions:
REMARK  status: ('A' for Active; 'I' for Inactive)
REMARK    1  A    between atoms: C_5  and  C_6
REMARK    2  A    between atoms: C_6  and  N_7
REMARK                            x       y       z     vdW  Elec       q    Type
REMARK                         _______ _______ _______ _____ _____    ______ ____
ROOT
ATOM      1  N   UNL     1       4.711   6.919  18.447  0.00  0.00    +0.000 NA
ATOM      2  C   UNL     1       4.911   5.671  19.166  0.00  0.00    +0.000 C 
ATOM      3  C   UNL     1       3.675   5.341  19.969  0.00  0.00    +0.000 C 
ATOM      4  C   UNL     1       2.535   4.913  19.028  0.00  0.00    +0.000 C 
ATOM      5  C   UNL     1       2.379   5.919  17.866  0.00  0.00    +0.000 C 
ATOM      6  C   UNL     1       3.363   7.106  17.883  0.00  0.00    +0.000 C 
ATOM      7  O   UNL     1       1.277   4.864  19.753  0.00  0.00    +0.000 OA
ATOM      8  C   UNL     1       1.286   4.028  20.924  0.00  0.00    +0.000 C 
ATOM      9  C   UNL     1       1.693   2.564  20.666  0.00  0.00    +0.000 C 
ATOM     10  C   UNL     1       2.523   2.396  19.434  0.00  0.00    +0.000 A 
ATOM     11  C   UNL     1       3.189   1.214  18.994  0.00  0.00    +0.000 A 
ATOM     12  C   UNL     1       3.807   1.393  17.776  0.00  0.00    +0.000 A 
ATOM     13  S   UNL     1       3.564   2.968  17.163  0.00  0.00    +0.000 S 
ATOM     14  C   UNL     1       2.793   3.469  18.602  0.00  0.00    +0.000 A 
ENDROOT
BRANCH   1  15
ATOM     15  C   UNL     1       5.833   7.156  17.535  0.00  0.00    +0.000 C 
BRANCH  15  20
ATOM     16  F   UNL     1       6.420   3.107  13.661  0.00  0.00    +0.000 F 
ATOM     17  C   UNL     1       6.293   4.075  14.582  0.00  0.00    +0.000 A 
ATOM     18  C   UNL     1       7.108   4.061  15.706  0.00  0.00    +0.000 A 
ATOM     19  C   UNL     1       6.973   5.067  16.664  0.00  0.00    +0.000 A 
ATOM     20  C   UNL     1       6.024   6.088  16.488  0.00  0.00    +0.000 A 
ATOM     21  C   UNL     1       5.206   6.076  15.344  0.00  0.00    +0.000 A 
ATOM     22  C   UNL     1       5.345   5.070  14.391  0.00  0.00    +0.000 A 
ENDBRANCH  15  20
ENDBRANCH   1  15
TORSDOF 2
ENDMDL
MODEL 7
REMARK VINA RESULT:      -6.1      5.952      7.672
REMARK  Name = 
REMARK  2 active torsions:
REMARK  status: ('A' for Active; 'I' for Inactive)
REMARK    1  A    between atoms: C_5  and  C_6
REMARK    2  A    between atoms: C_6  and  N_7
REMARK                            x       y       z     vdW  Elec       q    Type
REMARK                         _______ _______ _______ _____ _____    ______ ____
ROOT
ATOM      1  N   UNL     1       1.457   9.797  18.879  0.00  0.00    +0.000 NA
ATOM      2  C   UNL     1       0.122   9.647  19.435  0.00  0.00    +0.000 C 
ATOM      3  C   UNL     1      -0.161  10.779  20.395  0.00  0.00    +0.000 C 
ATOM      4  C   UNL     1      -0.355  12.093  19.616  0.00  0.00    +0.000 C 
ATOM      5  C   UNL     1       0.787  12.297  18.596  0.00  0.00    +0.000 C 
ATOM      6  C   UNL     1       1.851  11.181  18.564  0.00  0.00    +0.000 C 
ATOM      7  O   UNL     1      -0.349  13.223  20.530  0.00  0.00    +0.000 OA
ATOM      8  C   UNL     1      -1.309  13.141  21.599  0.00  0.00    +0.000 C 
ATOM      9  C   UNL     1      -2.769  12.963  21.141  0.00  0.00    +0.000 C 
ATOM     10  C   UNL     1      -2.885  12.357  19.779  0.00  0.00    +0.000 A 
ATOM     11  C   UNL     1      -4.075  11.917  19.127  0.00  0.00    +0.000 A 
ATOM     12  C   UNL     1      -3.827  11.474  17.847  0.00  0.00    +0.000 A 
ATOM     13  S   UNL     1      -2.176  11.608  17.433  0.00  0.00    +0.000 S 
ATOM     14  C   UNL     1      -1.761  12.084  19.020  0.00  0.00    +0.000 A 
ENDROOT
BRANCH   1  15
ATOM     15  C   UNL     1       1.674   8.805  17.824  0.00  0.00    +0.000 C 
BRANCH  15  20
ATOM     16  F   UNL     1       5.034   4.574  19.424  0.00  0.00    +0.000 F 
ATOM     17  C   UNL     1       4.231   5.575  19.032  0.00  0.00    +0.000 A 
ATOM     18  C   UNL     1       4.511   6.255  17.853  0.00  0.00    +0.000 A 
ATOM     19  C   UNL     1       3.677   7.297  17.448  0.00  0.00    +0.000 A 
ATOM     20  C   UNL     1       2.559   7.651  18.223  0.00  0.00    +0.000 A 
ATOM     21  C   UNL     1       2.301   6.952  19.416  0.00  0.00    +0.000 A 
ATOM     22  C   UNL     1       3.137   5.912  19.815  0.00  0.00    +0.000 A 
ENDBRANCH  15  20
ENDBRANCH   1  15
TORSDOF 2
ENDMDL
MODEL 8
REMARK VINA RESULT:      -6.1      5.485      7.413
REMARK  Name = 
REMARK  2 active torsions:
REMARK  status: ('A' for Active; 'I' for Inactive)
REMARK    1  A    between atoms: C_5  and  C_6
REMARK    2  A    between atoms: C_6  and  N_7
REMARK                            x       y       z     vdW  Elec       q    Type
REMARK                         _______ _______ _______ _____ _____    ______ ____
ROOT
ATOM      1  N   UNL     1       1.414   8.765  18.743  0.00  0.00    +0.000 NA
ATOM      2  C   UNL     1       0.787   9.890  18.069  0.00  0.00    +0.000 C 
ATOM      3  C   UNL     1      -0.431  10.336  18.844  0.00  0.00    +0.000 C 
ATOM      4  C   UNL     1       0.000  11.028  20.148  0.00  0.00    +0.000 C 
ATOM      5  C   UNL     1       1.046  10.176  20.900  0.00  0.00    +0.000 C 
ATOM      6  C   UNL     1       1.435   8.850  20.214  0.00  0.00    +0.000 C 
ATOM      7  O   UNL     1      -1.146  11.208  21.023  0.00  0.00    +0.000 OA
ATOM      8  C   UNL     1      -2.251  11.917  20.434  0.00  0.00    +0.000 C 
ATOM      9  C   UNL     1      -1.901  13.314  19.888  0.00  0.00    +0.000 C 
ATOM     10  C   UNL     1      -0.453  13.464  19.549  0.00  0.00    +0.000 A 
ATOM     11  C   UNL     1       0.171  14.561  18.883  0.00  0.00    +0.000 A 
ATOM     12  C   UNL     1       1.536  14.402  18.797  0.00  0.00    +0.000 A 
ATOM     13  S   UNL     1       2.058  12.953  19.531  0.00  0.00    +0.000 S 
ATOM     14  C   UNL     1       0.449  12.447  19.803  0.00  0.00    +0.000 A 
ENDROOT
BRANCH   1  15
ATOM     15  C   UNL     1       2.686   8.439  18.095  0.00  0.00    +0.000 C 
BRANCH  15  20
ATOM     16  F   UNL     1       3.615   2.941  17.280  0.00  0.00    +0.000 F 
ATOM     17  C   UNL     1       3.391   4.248  17.487  0.00  0.00    +0.000 A 
ATOM     18  C   UNL     1       2.158   4.663  17.972  0.00  0.00    +0.000 A 
ATOM     19  C   UNL     1       1.926   6.023  18.184  0.00  0.00    +0.000 A 
ATOM     20  C   UNL     1       2.936   6.962  17.915  0.00  0.00    +0.000 A 
ATOM     21  C   UNL     1       4.174   6.518  17.418  0.00  0.00    +0.000 A 
ATOM     22  C   UNL     1       4.400   5.159  17.209  0.00  0.00    +0.000 A 
ENDBRANCH  15  20
ENDBRANCH   1  15
TORSDOF 2
ENDMDL
MODEL 9
REMARK VINA RESULT:      -6.0      5.486      7.353
REMARK  Name = 
REMARK  2 active torsions:
REMARK  status: ('A' for Active; 'I' for Inactive)
REMARK    1  A    between atoms: C_5  and  C_6
REMARK    2  A    between atoms: C_6  and  N_7
REMARK                            x       y       z     vdW  Elec       q    Type
REMARK                         _______ _______ _______ _____ _____    ______ ____
ROOT
ATOM      1  N   UNL     1       1.424   8.758  18.739  0.00  0.00    +0.000 NA
ATOM      2  C   UNL     1       0.810   9.887  18.059  0.00  0.00    +0.000 C 
ATOM      3  C   UNL     1      -0.417  10.334  18.820  0.00  0.00    +0.000 C 
ATOM      4  C   UNL     1      -0.001  11.022  20.132  0.00  0.00    +0.000 C 
ATOM      5  C   UNL     1       1.033  10.164  20.895  0.00  0.00    +0.000 C 
ATOM      6  C   UNL     1       1.426   8.839  20.209  0.00  0.00    +0.000 C 
ATOM      7  O   UNL     1      -1.157  11.202  20.993  0.00  0.00    +0.000 OA
ATOM      8  C   UNL     1      -2.253  11.916  20.391  0.00  0.00    +0.000 C 
ATOM      9  C   UNL     1      -1.892  13.314  19.853  0.00  0.00    +0.000 C 
ATOM     10  C   UNL     1      -0.439  13.461  19.534  0.00  0.00    +0.000 A 
ATOM     11  C   UNL     1       0.197  14.557  18.879  0.00  0.00    +0.000 A 
ATOM     12  C   UNL     1       1.563  14.395  18.810  0.00  0.00    +0.000 A 
ATOM     13  S   UNL     1       2.071  12.941  19.547  0.00  0.00    +0.000 S 
ATOM     14  C   UNL     1       0.457  12.440  19.797  0.00  0.00    +0.000 A 
ENDROOT
BRANCH   1  15
ATOM     15  C   UNL     1       2.704   8.430  18.106  0.00  0.00    +0.000 C 
BRANCH  15  20
ATOM     16  F   UNL     1       3.529   2.905  17.365  0.00  0.00    +0.000 F 
ATOM     17  C   UNL     1       3.335   4.223  17.528  0.00  0.00    +0.000 A 
ATOM     18  C   UNL     1       4.366   5.108  17.239  0.00  0.00    +0.000 A 
ATOM     19  C   UNL     1       4.164   6.477  17.412  0.00  0.00    +0.000 A 
ATOM     20  C   UNL     1       2.924   6.956  17.869  0.00  0.00    +0.000 A 
ATOM     21  C   UNL     1       1.899   6.040  18.162  0.00  0.00    +0.000 A 
ATOM     22  C   UNL     1       2.106   4.674  17.987  0.00  0.00    +0.000 A 
ENDBRANCH  15  20
ENDBRANCH   1  15
TORSDOF 2
ENDMDL
