MODEL 1
REMARK VINA RESULT:      -6.8      0.000      0.000
REMARK  Name = 
REMARK  3 active torsions:
REMARK  status: ('A' for Active; 'I' for Inactive)
REMARK    1  A    between atoms: C_1  and  C_2
REMARK    2  A    between atoms: C_12  and  N_13
REMARK    3  A    between atoms: C_17  and  C_18
REMARK                            x       y       z     vdW  Elec       q    Type
REMARK                         _______ _______ _______ _____ _____    ______ ____
ROOT
ATOM      1  C   UNL     1       0.270  11.882  20.914  0.00  0.00    +0.000 C 
ATOM      2  C   UNL     1       0.502  11.239  19.572  0.00  0.00    +0.000 C 
ATOM      3  O   UNL     1       0.570  11.932  18.558  0.00  0.00    +0.000 OA
ATOM      4  N   UNL     1       0.698   9.873  19.558  0.00  0.00    +0.000 N 
ATOM      5  C   UNL     1       1.118   9.213  18.315  0.00  0.00    +0.000 C 
ATOM      6  C   UNL     1       2.373   8.351  18.549  0.00  0.00    +0.000 C 
ATOM      7  N   UNL     1       2.153   7.456  19.682  0.00  0.00    +0.000 N 
ATOM      8  C   UNL     1       2.308   6.103  19.561  0.00  0.00    +0.000 A 
ATOM      9  N   UNL     1       2.031   5.341  20.628  0.00  0.00    +0.000 NA
ATOM     10  C   UNL     1       2.157   4.019  20.493  0.00  0.00    +0.000 A 
ATOM     11  C   UNL     1       2.570   3.429  19.333  0.00  0.00    +0.000 A 
ATOM     12  C   UNL     1       2.895   4.263  18.290  0.00  0.00    +0.000 A 
ATOM     13  N   UNL     1       2.730   5.594  18.392  0.00  0.00    +0.000 NA
ATOM     14  C   UNL     1       1.705   8.058  20.935  0.00  0.00    +0.000 C 
ATOM     15  C   UNL     1       0.480   8.956  20.685  0.00  0.00    +0.000 C 
ENDROOT
BRANCH  12  16
ATOM     16  N   UNL     1       3.447   3.805  17.081  0.00  0.00    +0.000 N 
ATOM     17  C   UNL     1       4.688   4.129  16.651  0.00  0.00    +0.000 A 
ATOM     18  N   UNL     1       5.722   4.389  17.425  0.00  0.00    +0.000 NA
ATOM     19  C   UNL     1       6.805   4.804  16.689  0.00  0.00    +0.000 A 
ATOM     20  C   UNL     1       6.601   4.847  15.332  0.00  0.00    +0.000 A 
ATOM     21  S   UNL     1       5.027   4.277  14.965  0.00  0.00    +0.000 S 
ATOM     22  H   UNL     1       2.706   3.697  16.399  0.00  0.00    +0.000 HD
BRANCH  20  23
ATOM     23  C   UNL     1       7.544   5.304  14.379  0.00  0.00    +0.000 C 
ATOM     24  N   UNL     1       8.342   5.650  13.605  0.00  0.00    +0.000 NA
ENDBRANCH  20  23
ENDBRANCH  12  16
TORSDOF 2
ENDMDL
MODEL 2
REMARK VINA RESULT:      -6.3      4.394      9.031
REMARK  Name = 
REMARK  3 active torsions:
REMARK  status: ('A' for Active; 'I' for Inactive)
REMARK    1  A    between atoms: C_1  and  C_2
REMARK    2  A    between atoms: C_12  and  N_13
REMARK    3  A    between atoms: C_17  and  C_18
REMARK                            x       y       z     vdW  Elec       q    Type
REMARK                         _______ _______ _______ _____ _____    ______ ____
ROOT
ATOM      1  C   UNL     1       3.334   1.763  18.231  0.00  0.00    +0.000 C 
ATOM      2  C   UNL     1       2.361   2.409  19.181  0.00  0.00    +0.000 C 
ATOM      3  O   UNL     1       1.892   1.767  20.119  0.00  0.00    +0.000 OA
ATOM      4  N   UNL     1       2.087   3.747  18.982  0.00  0.00    +0.000 N 
ATOM      5  C   UNL     1       1.301   4.484  19.980  0.00  0.00    +0.000 C 
ATOM      6  C   UNL     1       2.038   5.761  20.424  0.00  0.00    +0.000 C 
ATOM      7  N   UNL     1       2.432   6.538  19.251  0.00  0.00    +0.000 N 
ATOM      8  C   UNL     1       2.062   7.845  19.105  0.00  0.00    +0.000 A 
ATOM      9  N   UNL     1       2.411   8.474  17.975  0.00  0.00    +0.000 NA
ATOM     10  C   UNL     1       2.020   9.742  17.826  0.00  0.00    +0.000 A 
ATOM     11  C   UNL     1       1.307  10.413  18.778  0.00  0.00    +0.000 A 
ATOM     12  C   UNL     1       1.026   9.737  19.941  0.00  0.00    +0.000 A 
ATOM     13  N   UNL     1       1.371   8.445  20.090  0.00  0.00    +0.000 NA
ATOM     14  C   UNL     1       3.191   5.844  18.213  0.00  0.00    +0.000 C 
ATOM     15  C   UNL     1       2.473   4.544  17.809  0.00  0.00    +0.000 C 
ENDROOT
BRANCH  12  16
ATOM     16  N   UNL     1       0.408  10.336  21.052  0.00  0.00    +0.000 N 
ATOM     17  C   UNL     1      -0.571  11.265  20.955  0.00  0.00    +0.000 A 
ATOM     18  N   UNL     1      -1.455  11.347  19.982  0.00  0.00    +0.000 NA
ATOM     19  C   UNL     1      -2.236  12.471  20.109  0.00  0.00    +0.000 A 
ATOM     20  C   UNL     1      -1.954  13.251  21.203  0.00  0.00    +0.000 A 
ATOM     21  S   UNL     1      -0.724  12.511  22.141  0.00  0.00    +0.000 S 
ATOM     22  H   UNL     1       1.081  10.411  21.805  0.00  0.00    +0.000 HD
BRANCH  20  23
ATOM     23  C   UNL     1      -2.576  14.486  21.507  0.00  0.00    +0.000 C 
ATOM     24  N   UNL     1      -3.053  15.518  21.754  0.00  0.00    +0.000 NA
ENDBRANCH  20  23
ENDBRANCH  12  16
TORSDOF 2
ENDMDL
MODEL 3
REMARK VINA RESULT:      -6.3      4.006      7.857
REMARK  Name = 
REMARK  3 active torsions:
REMARK  status: ('A' for Active; 'I' for Inactive)
REMARK    1  A    between atoms: C_1  and  C_2
REMARK    2  A    between atoms: C_12  and  N_13
REMARK    3  A    between atoms: C_17  and  C_18
REMARK                            x       y       z     vdW  Elec       q    Type
REMARK                         _______ _______ _______ _____ _____    ______ ____
ROOT
ATOM      1  C   UNL     1       4.769   3.702  17.659  0.00  0.00    +0.000 C 
ATOM      2  C   UNL     1       4.635   5.114  17.154  0.00  0.00    +0.000 C 
ATOM      3  O   UNL     1       4.971   5.393  16.004  0.00  0.00    +0.000 OA
ATOM      4  N   UNL     1       4.066   6.034  18.009  0.00  0.00    +0.000 N 
ATOM      5  C   UNL     1       3.731   7.377  17.515  0.00  0.00    +0.000 C 
ATOM      6  C   UNL     1       2.263   7.724  17.822  0.00  0.00    +0.000 C 
ATOM      7  N   UNL     1       1.988   7.501  19.239  0.00  0.00    +0.000 N 
ATOM      8  C   UNL     1       1.482   8.493  20.032  0.00  0.00    +0.000 A 
ATOM      9  N   UNL     1       1.312   8.231  21.335  0.00  0.00    +0.000 NA
ATOM     10  C   UNL     1       0.845   9.214  22.107  0.00  0.00    +0.000 A 
ATOM     11  C   UNL     1       0.521  10.449  21.620  0.00  0.00    +0.000 A 
ATOM     12  C   UNL     1       0.660  10.642  20.267  0.00  0.00    +0.000 A 
ATOM     13  N   UNL     1       1.174   9.679  19.480  0.00  0.00    +0.000 NA
ATOM     14  C   UNL     1       2.330   6.192  19.790  0.00  0.00    +0.000 C 
ATOM     15  C   UNL     1       3.784   5.830  19.437  0.00  0.00    +0.000 C 
ENDROOT
BRANCH  12  16
ATOM     16  N   UNL     1       0.254  11.817  19.610  0.00  0.00    +0.000 N 
ATOM     17  C   UNL     1       1.113  12.734  19.112  0.00  0.00    +0.000 A 
ATOM     18  N   UNL     1       2.320  12.481  18.648  0.00  0.00    +0.000 NA
ATOM     19  C   UNL     1       2.987  13.639  18.329  0.00  0.00    +0.000 A 
ATOM     20  C   UNL     1       2.275  14.793  18.539  0.00  0.00    +0.000 A 
ATOM     21  S   UNL     1       0.694  14.409  19.079  0.00  0.00    +0.000 S 
ATOM     22  H   UNL     1      -0.622  12.132  20.009  0.00  0.00    +0.000 HD
BRANCH  20  23
ATOM     23  C   UNL     1       2.773  16.106  18.349  0.00  0.00    +0.000 C 
ATOM     24  N   UNL     1       3.216  17.172  18.204  0.00  0.00    +0.000 NA
ENDBRANCH  20  23
ENDBRANCH  12  16
TORSDOF 2
ENDMDL
MODEL 4
REMARK VINA RESULT:      -6.0      3.281      7.689
REMARK  Name = 
REMARK  3 active torsions:
REMARK  status: ('A' for Active; 'I' for Inactive)
REMARK    1  A    between atoms: C_1  and  C_2
REMARK    2  A    between atoms: C_12  and  N_13
REMARK    3  A    between atoms: C_17  and  C_18
REMARK                            x       y       z     vdW  Elec       q    Type
REMARK                         _______ _______ _______ _____ _____    ______ ____
ROOT
ATOM      1  C   UNL     1       6.464   3.666  14.413  0.00  0.00    +0.000 C 
ATOM      2  C   UNL     1       6.598   4.906  15.256  0.00  0.00    +0.000 C 
ATOM      3  O   UNL     1       7.392   5.788  14.936  0.00  0.00    +0.000 OA
ATOM      4  N   UNL     1       5.751   5.020  16.340  0.00  0.00    +0.000 N 
ATOM      5  C   UNL     1       5.696   6.284  17.088  0.00  0.00    +0.000 C 
ATOM      6  C   UNL     1       4.245   6.785  17.211  0.00  0.00    +0.000 C 
ATOM      7  N   UNL     1       3.397   5.718  17.735  0.00  0.00    +0.000 N 
ATOM      8  C   UNL     1       2.636   5.898  18.857  0.00  0.00    +0.000 A 
ATOM      9  N   UNL     1       1.929   4.855  19.311  0.00  0.00    +0.000 NA
ATOM     10  C   UNL     1       1.212   5.031  20.423  0.00  0.00    +0.000 A 
ATOM     11  C   UNL     1       1.160   6.222  21.091  0.00  0.00    +0.000 A 
ATOM     12  C   UNL     1       1.859   7.273  20.547  0.00  0.00    +0.000 A 
ATOM     13  N   UNL     1       2.624   7.102  19.453  0.00  0.00    +0.000 NA
ATOM     14  C   UNL     1       3.436   4.430  17.046  0.00  0.00    +0.000 C 
ATOM     15  C   UNL     1       4.892   3.959  16.883  0.00  0.00    +0.000 C 
ENDROOT
BRANCH  12  16
ATOM     16  N   UNL     1       1.801   8.582  21.055  0.00  0.00    +0.000 N 
ATOM     17  C   UNL     1       0.957   9.531  20.590  0.00  0.00    +0.000 A 
ATOM     18  N   UNL     1      -0.234   9.310  20.072  0.00  0.00    +0.000 NA
ATOM     19  C   UNL     1      -0.788  10.467  19.581  0.00  0.00    +0.000 A 
ATOM     20  C   UNL     1      -0.017  11.591  19.740  0.00  0.00    +0.000 A 
ATOM     21  S   UNL     1       1.413  11.197  20.599  0.00  0.00    +0.000 S 
ATOM     22  H   UNL     1       2.725   8.858  21.365  0.00  0.00    +0.000 HD
BRANCH  20  23
ATOM     23  C   UNL     1      -0.347  12.882  19.258  0.00  0.00    +0.000 C 
ATOM     24  N   UNL     1      -0.599  13.934  18.830  0.00  0.00    +0.000 NA
ENDBRANCH  20  23
ENDBRANCH  12  16
TORSDOF 2
ENDMDL
MODEL 5
REMARK VINA RESULT:      -6.0      3.791      8.240
REMARK  Name = 
REMARK  3 active torsions:
REMARK  status: ('A' for Active; 'I' for Inactive)
REMARK    1  A    between atoms: C_1  and  C_2
REMARK    2  A    between atoms: C_12  and  N_13
REMARK    3  A    between atoms: C_17  and  C_18
REMARK                            x       y       z     vdW  Elec       q    Type
REMARK                         _______ _______ _______ _____ _____    ______ ____
ROOT
ATOM      1  C   UNL     1       7.474   4.205  17.360  0.00  0.00    +0.000 C 
ATOM      2  C   UNL     1       7.017   5.546  16.848  0.00  0.00    +0.000 C 
ATOM      3  O   UNL     1       7.473   5.994  15.797  0.00  0.00    +0.000 OA
ATOM      4  N   UNL     1       6.035   6.190  17.572  0.00  0.00    +0.000 N 
ATOM      5  C   UNL     1       5.410   7.404  17.028  0.00  0.00    +0.000 C 
ATOM      6  C   UNL     1       3.876   7.275  17.021  0.00  0.00    +0.000 C 
ATOM      7  N   UNL     1       3.407   6.878  18.346  0.00  0.00    +0.000 N 
ATOM      8  C   UNL     1       2.475   7.614  19.022  0.00  0.00    +0.000 A 
ATOM      9  N   UNL     1       2.138   7.221  20.257  0.00  0.00    +0.000 NA
ATOM     10  C   UNL     1       1.248   7.962  20.922  0.00  0.00    +0.000 A 
ATOM     11  C   UNL     1       0.665   9.075  20.387  0.00  0.00    +0.000 A 
ATOM     12  C   UNL     1       1.005   9.399  19.095  0.00  0.00    +0.000 A 
ATOM     13  N   UNL     1       1.934   8.692  18.427  0.00  0.00    +0.000 NA
ATOM     14  C   UNL     1       4.018   5.695  18.947  0.00  0.00    +0.000 C 
ATOM     15  C   UNL     1       5.552   5.809  18.906  0.00  0.00    +0.000 C 
ENDROOT
BRANCH  12  16
ATOM     16  N   UNL     1       0.396  10.443  18.376  0.00  0.00    +0.000 N 
ATOM     17  C   UNL     1       0.486  11.746  18.726  0.00  0.00    +0.000 A 
ATOM     18  N   UNL     1       1.505  12.304  19.347  0.00  0.00    +0.000 NA
ATOM     19  C   UNL     1       1.240  13.613  19.668  0.00  0.00    +0.000 A 
ATOM     20  C   UNL     1       0.006  14.067  19.273  0.00  0.00    +0.000 A 
ATOM     21  S   UNL     1      -0.814  12.837  18.406  0.00  0.00    +0.000 S 
ATOM     22  H   UNL     1      -0.466  10.104  17.967  0.00  0.00    +0.000 HD
BRANCH  20  23
ATOM     23  C   UNL     1      -0.517  15.354  19.549  0.00  0.00    +0.000 C 
ATOM     24  N   UNL     1      -0.941  16.421  19.738  0.00  0.00    +0.000 NA
ENDBRANCH  20  23
ENDBRANCH  12  16
TORSDOF 2
ENDMDL
MODEL 6
REMARK VINA RESULT:      -5.9      3.228      7.526
REMARK  Name = 
REMARK  3 active torsions:
REMARK  status: ('A' for Active; 'I' for Inactive)
REMARK    1  A    between atoms: C_1  and  C_2
REMARK    2  A    between atoms: C_12  and  N_13
REMARK    3  A    between atoms: C_17  and  C_18
REMARK                            x       y       z     vdW  Elec       q    Type
REMARK                         _______ _______ _______ _____ _____    ______ ____
ROOT
ATOM      1  C   UNL     1       6.738   4.027  13.987  0.00  0.00    +0.000 C 
ATOM      2  C   UNL     1       6.845   4.934  15.184  0.00  0.00    +0.000 C 
ATOM      3  O   UNL     1       7.699   5.820  15.214  0.00  0.00    +0.000 OA
ATOM      4  N   UNL     1       5.912   4.763  16.185  0.00  0.00    +0.000 N 
ATOM      5  C   UNL     1       5.840   5.733  17.286  0.00  0.00    +0.000 C 
ATOM      6  C   UNL     1       4.405   6.264  17.455  0.00  0.00    +0.000 C 
ATOM      7  N   UNL     1       3.472   5.145  17.556  0.00  0.00    +0.000 N 
ATOM      8  C   UNL     1       2.623   5.018  18.620  0.00  0.00    +0.000 A 
ATOM      9  N   UNL     1       1.839   3.933  18.672  0.00  0.00    +0.000 NA
ATOM     10  C   UNL     1       1.033   3.803  19.729  0.00  0.00    +0.000 A 
ATOM     11  C   UNL     1       0.969   4.730  20.730  0.00  0.00    +0.000 A 
ATOM     12  C   UNL     1       1.754   5.850  20.595  0.00  0.00    +0.000 A 
ATOM     13  N   UNL     1       2.605   5.977  19.561  0.00  0.00    +0.000 NA
ATOM     14  C   UNL     1       3.522   4.134  16.502  0.00  0.00    +0.000 C 
ATOM     15  C   UNL     1       4.968   3.643  16.305  0.00  0.00    +0.000 C 
ENDROOT
BRANCH  12  16
ATOM     16  N   UNL     1       1.702   6.939  21.483  0.00  0.00    +0.000 N 
ATOM     17  C   UNL     1       1.148   8.133  21.174  0.00  0.00    +0.000 A 
ATOM     18  N   UNL     1       0.143   8.319  20.342  0.00  0.00    +0.000 NA
ATOM     19  C   UNL     1      -0.105   9.657  20.149  0.00  0.00    +0.000 A 
ATOM     20  C   UNL     1       0.711  10.505  20.855  0.00  0.00    +0.000 A 
ATOM     21  S   UNL     1       1.771   9.595  21.849  0.00  0.00    +0.000 S 
ATOM     22  H   UNL     1       2.520   6.918  22.080  0.00  0.00    +0.000 HD
BRANCH  20  23
ATOM     23  C   UNL     1       0.689  11.919  20.770  0.00  0.00    +0.000 C 
ATOM     24  N   UNL     1       0.668  13.077  20.661  0.00  0.00    +0.000 NA
ENDBRANCH  20  23
ENDBRANCH  12  16
TORSDOF 2
ENDMDL
MODEL 7
REMARK VINA RESULT:      -5.9      3.702      8.474
REMARK  Name = 
REMARK  3 active torsions:
REMARK  status: ('A' for Active; 'I' for Inactive)
REMARK    1  A    between atoms: C_1  and  C_2
REMARK    2  A    between atoms: C_12  and  N_13
REMARK    3  A    between atoms: C_17  and  C_18
REMARK                            x       y       z     vdW  Elec       q    Type
REMARK                         _______ _______ _______ _____ _____    ______ ____
ROOT
ATOM      1  C   UNL     1       7.033   3.802  15.493  0.00  0.00    +0.000 C 
ATOM      2  C   UNL     1       6.906   5.231  15.950  0.00  0.00    +0.000 C 
ATOM      3  O   UNL     1       7.554   6.117  15.397  0.00  0.00    +0.000 OA
ATOM      4  N   UNL     1       5.993   5.488  16.953  0.00  0.00    +0.000 N 
ATOM      5  C   UNL     1       5.681   6.878  17.313  0.00  0.00    +0.000 C 
ATOM      6  C   UNL     1       4.162   7.125  17.281  0.00  0.00    +0.000 C 
ATOM      7  N   UNL     1       3.480   6.111  18.082  0.00  0.00    +0.000 N 
ATOM      8  C   UNL     1       2.639   6.456  19.102  0.00  0.00    +0.000 A 
ATOM      9  N   UNL     1       2.096   5.470  19.830  0.00  0.00    +0.000 NA
ATOM     10  C   UNL     1       1.299   5.817  20.843  0.00  0.00    +0.000 A 
ATOM     11  C   UNL     1       1.007   7.116  21.145  0.00  0.00    +0.000 A 
ATOM     12  C   UNL     1       1.545   8.083  20.330  0.00  0.00    +0.000 A 
ATOM     13  N   UNL     1       2.388   7.756  19.333  0.00  0.00    +0.000 NA
ATOM     14  C   UNL     1       3.777   4.711  17.786  0.00  0.00    +0.000 C 
ATOM     15  C   UNL     1       5.299   4.483  17.771  0.00  0.00    +0.000 C 
ENDROOT
BRANCH  12  16
ATOM     16  N   UNL     1       1.236   9.449  20.446  0.00  0.00    +0.000 N 
ATOM     17  C   UNL     1       0.439   9.959  21.413  0.00  0.00    +0.000 A 
ATOM     18  N   UNL     1       0.301   9.469  22.629  0.00  0.00    +0.000 NA
ATOM     19  C   UNL     1      -0.672  10.139  23.330  0.00  0.00    +0.000 A 
ATOM     20  C   UNL     1      -1.276  11.165  22.646  0.00  0.00    +0.000 A 
ATOM     21  S   UNL     1      -0.548  11.342  21.105  0.00  0.00    +0.000 S 
ATOM     22  H   UNL     1       1.210   9.862  19.522  0.00  0.00    +0.000 HD
BRANCH  20  23
ATOM     23  C   UNL     1      -2.348  11.952  23.134  0.00  0.00    +0.000 C 
ATOM     24  N   UNL     1      -3.245  12.596  23.501  0.00  0.00    +0.000 NA
ENDBRANCH  20  23
ENDBRANCH  12  16
TORSDOF 2
ENDMDL
MODEL 8
REMARK VINA RESULT:      -5.9      3.574      5.685
REMARK  Name = 
REMARK  3 active torsions:
REMARK  status: ('A' for Active; 'I' for Inactive)
REMARK    1  A    between atoms: C_1  and  C_2
REMARK    2  A    between atoms: C_12  and  N_13
REMARK    3  A    between atoms: C_17  and  C_18
REMARK                            x       y       z     vdW  Elec       q    Type
REMARK                         _______ _______ _______ _____ _____    ______ ____
ROOT
ATOM      1  C   UNL     1      -6.327  13.666  18.804  0.00  0.00    +0.000 C 
ATOM      2  C   UNL     1      -5.721  12.523  18.035  0.00  0.00    +0.000 C 
ATOM      3  O   UNL     1      -6.204  12.177  16.958  0.00  0.00    +0.000 OA
ATOM      4  N   UNL     1      -4.583  11.948  18.562  0.00  0.00    +0.000 N 
ATOM      5  C   UNL     1      -3.834  10.962  17.771  0.00  0.00    +0.000 C 
ATOM      6  C   UNL     1      -2.347  11.350  17.675  0.00  0.00    +0.000 C 
ATOM      7  N   UNL     1      -1.816  11.603  19.012  0.00  0.00    +0.000 N 
ATOM      8  C   UNL     1      -0.717  10.938  19.480  0.00  0.00    +0.000 A 
ATOM      9  N   UNL     1      -0.324  11.180  20.737  0.00  0.00    +0.000 NA
ATOM     10  C   UNL     1       0.733  10.505  21.196  0.00  0.00    +0.000 A 
ATOM     11  C   UNL     1       1.426   9.607  20.434  0.00  0.00    +0.000 A 
ATOM     12  C   UNL     1       1.013   9.442  19.133  0.00  0.00    +0.000 A 
ATOM     13  N   UNL     1      -0.077  10.078  18.668  0.00  0.00    +0.000 NA
ATOM     14  C   UNL     1      -2.540  12.553  19.853  0.00  0.00    +0.000 C 
ATOM     15  C   UNL     1      -4.034  12.187  19.904  0.00  0.00    +0.000 C 
ENDROOT
BRANCH  12  16
ATOM     16  N   UNL     1       1.702   8.646  18.202  0.00  0.00    +0.000 N 
ATOM     17  C   UNL     1       2.416   7.547  18.536  0.00  0.00    +0.000 A 
ATOM     18  N   UNL     1       2.159   6.746  19.550  0.00  0.00    +0.000 NA
ATOM     19  C   UNL     1       3.138   5.793  19.695  0.00  0.00    +0.000 A 
ATOM     20  C   UNL     1       4.150   5.857  18.769  0.00  0.00    +0.000 A 
ATOM     21  S   UNL     1       3.822   7.102  17.638  0.00  0.00    +0.000 S 
ATOM     22  H   UNL     1       2.031   9.233  17.445  0.00  0.00    +0.000 HD
BRANCH  20  23
ATOM     23  C   UNL     1       5.298   5.027  18.755  0.00  0.00    +0.000 C 
ATOM     24  N   UNL     1       6.243   4.350  18.782  0.00  0.00    +0.000 NA
ENDBRANCH  20  23
ENDBRANCH  12  16
TORSDOF 2
ENDMDL
MODEL 9
REMARK VINA RESULT:      -5.7      3.088      5.005
REMARK  Name = 
REMARK  3 active torsions:
REMARK  status: ('A' for Active; 'I' for Inactive)
REMARK    1  A    between atoms: C_1  and  C_2
REMARK    2  A    between atoms: C_12  and  N_13
REMARK    3  A    between atoms: C_17  and  C_18
REMARK                            x       y       z     vdW  Elec       q    Type
REMARK                         _______ _______ _______ _____ _____    ______ ____
ROOT
ATOM      1  C   UNL     1      -2.407  15.082  21.397  0.00  0.00    +0.000 C 
ATOM      2  C   UNL     1      -1.764  13.995  22.216  0.00  0.00    +0.000 C 
ATOM      3  O   UNL     1      -2.034  13.878  23.410  0.00  0.00    +0.000 OA
ATOM      4  N   UNL     1      -0.929  13.121  21.550  0.00  0.00    +0.000 N 
ATOM      5  C   UNL     1      -0.423  11.929  22.244  0.00  0.00    +0.000 C 
ATOM      6  C   UNL     1      -0.709  10.656  21.427  0.00  0.00    +0.000 C 
ATOM      7  N   UNL     1      -0.225  10.827  20.059  0.00  0.00    +0.000 N 
ATOM      8  C   UNL     1       0.654   9.944  19.499  0.00  0.00    +0.000 A 
ATOM      9  N   UNL     1       1.098  10.200  18.261  0.00  0.00    +0.000 NA
ATOM     10  C   UNL     1       1.980   9.348  17.732  0.00  0.00    +0.000 A 
ATOM     11  C   UNL     1       2.420   8.235  18.389  0.00  0.00    +0.000 A 
ATOM     12  C   UNL     1       1.887   7.992  19.632  0.00  0.00    +0.000 A 
ATOM     13  N   UNL     1       1.034   8.863  20.200  0.00  0.00    +0.000 NA
ATOM     14  C   UNL     1      -0.675  12.013  19.334  0.00  0.00    +0.000 C 
ATOM     15  C   UNL     1      -0.430  13.277  20.177  0.00  0.00    +0.000 C 
ENDROOT
BRANCH  12  16
ATOM     16  N   UNL     1       2.155   6.826  20.371  0.00  0.00    +0.000 N 
ATOM     17  C   UNL     1       2.795   5.748  19.865  0.00  0.00    +0.000 A 
ATOM     18  N   UNL     1       3.713   5.775  18.921  0.00  0.00    +0.000 NA
ATOM     19  C   UNL     1       4.080   4.506  18.543  0.00  0.00    +0.000 A 
ATOM     20  C   UNL     1       3.444   3.494  19.219  0.00  0.00    +0.000 A 
ATOM     21  S   UNL     1       2.412   4.156  20.416  0.00  0.00    +0.000 S 
ATOM     22  H   UNL     1       1.411   6.684  21.044  0.00  0.00    +0.000 HD
BRANCH  20  23
ATOM     23  C   UNL     1       3.607   2.111  18.960  0.00  0.00    +0.000 C 
ATOM     24  N   UNL     1       3.754   0.971  18.783  0.00  0.00    +0.000 NA
ENDBRANCH  20  23
ENDBRANCH  12  16
TORSDOF 2
ENDMDL
