MODEL 1
REMARK VINA RESULT:      -7.8      0.000      0.000
REMARK  Name = 
REMARK  4 active torsions:
REMARK  status: ('A' for Active; 'I' for Inactive)
REMARK    1  A    between atoms: C_2  and  C_3
REMARK    2  A    between atoms: C_17  and  C_18
REMARK    3  A    between atoms: C_18  and  O_19
REMARK    4  A    between atoms: O_19  and  C_20
REMARK                            x       y       z     vdW  Elec       q    Type
REMARK                         _______ _______ _______ _____ _____    ______ ____
ROOT
ATOM      1  O   UNL     1       7.939   4.068  16.654  0.00  0.00    +0.000 OA
ATOM      2  C   UNL     1       6.929   4.617  16.210  0.00  0.00    +0.000 C 
ATOM      3  N   UNL     1       5.845   4.887  17.085  0.00  0.00    +0.000 N 
ATOM      4  C   UNL     1       4.591   5.543  16.705  0.00  0.00    +0.000 C 
ATOM      5  C   UNL     1       3.382   4.940  17.408  0.00  0.00    +0.000 C 
ATOM      6  C   UNL     1       3.555   4.953  18.935  0.00  0.00    +0.000 C 
ATOM      7  C   UNL     1       4.746   4.018  19.194  0.00  0.00    +0.000 C 
ATOM      8  C   UNL     1       6.021   4.539  18.509  0.00  0.00    +0.000 C 
ATOM      9  C   UNL     1       2.268   4.510  19.642  0.00  0.00    +0.000 C 
ATOM     10  O   UNL     1       1.716   5.650  20.326  0.00  0.00    +0.000 OA
ATOM     11  C   UNL     1       2.412   6.837  19.911  0.00  0.00    +0.000 C 
ATOM     12  C   UNL     1       3.794   6.341  19.536  0.00  0.00    +0.000 C 
ENDROOT
BRANCH   2  13
ATOM     13  C   UNL     1       6.836   4.739  14.685  0.00  0.00    +0.000 A 
ATOM     14  N   UNL     1       7.799   5.500  14.122  0.00  0.00    +0.000 NA
ATOM     15  C   UNL     1       8.044   5.306  12.812  0.00  0.00    +0.000 A 
ATOM     16  C   UNL     1       7.377   4.382  12.045  0.00  0.00    +0.000 A 
ATOM     17  C   UNL     1       6.402   3.674  12.696  0.00  0.00    +0.000 A 
ATOM     18  N   UNL     1       6.123   3.831  14.002  0.00  0.00    +0.000 NA
ENDBRANCH   2  13
BRANCH  11  19
ATOM     19  C   UNL     1       1.680   7.521  18.750  0.00  0.00    +0.000 C 
BRANCH  19  20
ATOM     20  O   UNL     1       1.979   8.920  18.722  0.00  0.00    +0.000 OA
BRANCH  20  21
ATOM     21  C   UNL     1       0.840   9.678  18.932  0.00  0.00    +0.000 A 
ATOM     22  C   UNL     1       0.750  10.344  20.142  0.00  0.00    +0.000 A 
ATOM     23  C   UNL     1      -0.354  11.164  20.358  0.00  0.00    +0.000 A 
ATOM     24  C   UNL     1      -1.324  11.280  19.367  0.00  0.00    +0.000 A 
ATOM     25  C   UNL     1      -1.155  10.561  18.196  0.00  0.00    +0.000 A 
ATOM     26  N   UNL     1      -0.095   9.764  17.956  0.00  0.00    +0.000 NA
ENDBRANCH  20  21
ENDBRANCH  19  20
ENDBRANCH  11  19
TORSDOF 4
ENDMDL
MODEL 2
REMARK VINA RESULT:      -7.2      1.736      8.390
REMARK  Name = 
REMARK  4 active torsions:
REMARK  status: ('A' for Active; 'I' for Inactive)
REMARK    1  A    between atoms: C_2  and  C_3
REMARK    2  A    between atoms: C_17  and  C_18
REMARK    3  A    between atoms: C_18  and  O_19
REMARK    4  A    between atoms: O_19  and  C_20
REMARK                            x       y       z     vdW  Elec       q    Type
REMARK                         _______ _______ _______ _____ _____    ______ ____
ROOT
ATOM      1  O   UNL     1       1.965   5.787  20.674  0.00  0.00    +0.000 OA
ATOM      2  C   UNL     1       2.429   6.451  19.745  0.00  0.00    +0.000 C 
ATOM      3  N   UNL     1       3.506   5.924  18.986  0.00  0.00    +0.000 N 
ATOM      4  C   UNL     1       4.150   6.588  17.851  0.00  0.00    +0.000 C 
ATOM      5  C   UNL     1       5.657   6.364  17.822  0.00  0.00    +0.000 C 
ATOM      6  C   UNL     1       6.002   4.866  17.836  0.00  0.00    +0.000 C 
ATOM      7  C   UNL     1       5.493   4.368  19.197  0.00  0.00    +0.000 C 
ATOM      8  C   UNL     1       3.973   4.565  19.328  0.00  0.00    +0.000 C 
ATOM      9  C   UNL     1       7.506   4.644  17.629  0.00  0.00    +0.000 C 
ATOM     10  O   UNL     1       7.696   4.032  16.340  0.00  0.00    +0.000 OA
ATOM     11  C   UNL     1       6.461   4.073  15.608  0.00  0.00    +0.000 C 
ATOM     12  C   UNL     1       5.394   4.062  16.684  0.00  0.00    +0.000 C 
ENDROOT
BRANCH   2  13
ATOM     13  C   UNL     1       1.957   7.906  19.646  0.00  0.00    +0.000 A 
ATOM     14  N   UNL     1       1.949   8.409  18.393  0.00  0.00    +0.000 NA
ATOM     15  C   UNL     1       1.164   9.481  18.170  0.00  0.00    +0.000 A 
ATOM     16  C   UNL     1       0.383  10.063  19.139  0.00  0.00    +0.000 A 
ATOM     17  C   UNL     1       0.474   9.499  20.383  0.00  0.00    +0.000 A 
ATOM     18  N   UNL     1       1.242   8.428  20.653  0.00  0.00    +0.000 NA
ENDBRANCH   2  13
BRANCH  11  19
ATOM     19  C   UNL     1       6.399   5.312  14.708  0.00  0.00    +0.000 C 
BRANCH  19  20
ATOM     20  O   UNL     1       7.135   5.095  13.500  0.00  0.00    +0.000 OA
BRANCH  20  21
ATOM     21  C   UNL     1       6.584   4.066  12.757  0.00  0.00    +0.000 A 
ATOM     22  C   UNL     1       5.202   4.007  12.705  0.00  0.00    +0.000 A 
ATOM     23  C   UNL     1       4.617   3.021  11.916  0.00  0.00    +0.000 A 
ATOM     24  C   UNL     1       5.430   2.132  11.218  0.00  0.00    +0.000 A 
ATOM     25  C   UNL     1       6.802   2.259  11.347  0.00  0.00    +0.000 A 
ATOM     26  N   UNL     1       7.397   3.207  12.099  0.00  0.00    +0.000 NA
ENDBRANCH  20  21
ENDBRANCH  19  20
ENDBRANCH  11  19
TORSDOF 4
ENDMDL
MODEL 3
REMARK VINA RESULT:      -7.1      2.494      7.786
REMARK  Name = 
REMARK  4 active torsions:
REMARK  status: ('A' for Active; 'I' for Inactive)
REMARK    1  A    between atoms: C_2  and  C_3
REMARK    2  A    between atoms: C_17  and  C_18
REMARK    3  A    between atoms: C_18  and  O_19
REMARK    4  A    between atoms: O_19  and  C_20
REMARK                            x       y       z     vdW  Elec       q    Type
REMARK                         _______ _______ _______ _____ _____    ______ ____
ROOT
ATOM      1  O   UNL     1      -0.067   7.795  21.543  0.00  0.00    +0.000 OA
ATOM      2  C   UNL     1       0.818   7.999  20.710  0.00  0.00    +0.000 C 
ATOM      3  N   UNL     1       1.559   6.900  20.202  0.00  0.00    +0.000 N 
ATOM      4  C   UNL     1       2.626   6.985  19.203  0.00  0.00    +0.000 C 
ATOM      5  C   UNL     1       3.769   6.019  19.487  0.00  0.00    +0.000 C 
ATOM      6  C   UNL     1       3.264   4.573  19.614  0.00  0.00    +0.000 C 
ATOM      7  C   UNL     1       2.361   4.589  20.856  0.00  0.00    +0.000 C 
ATOM      8  C   UNL     1       1.176   5.553  20.669  0.00  0.00    +0.000 C 
ATOM      9  C   UNL     1       4.434   3.586  19.724  0.00  0.00    +0.000 C 
ATOM     10  O   UNL     1       4.473   2.800  18.518  0.00  0.00    +0.000 OA
ATOM     11  C   UNL     1       3.580   3.372  17.549  0.00  0.00    +0.000 C 
ATOM     12  C   UNL     1       2.514   4.051  18.386  0.00  0.00    +0.000 C 
ENDROOT
BRANCH   2  13
ATOM     13  C   UNL     1       1.209   9.462  20.475  0.00  0.00    +0.000 A 
ATOM     14  N   UNL     1       1.227   9.838  19.179  0.00  0.00    +0.000 NA
ATOM     15  C   UNL     1       1.128  11.157  18.924  0.00  0.00    +0.000 A 
ATOM     16  C   UNL     1       1.004  12.112  19.904  0.00  0.00    +0.000 A 
ATOM     17  C   UNL     1       1.020  11.638  21.188  0.00  0.00    +0.000 A 
ATOM     18  N   UNL     1       1.114  10.332  21.492  0.00  0.00    +0.000 NA
ENDBRANCH   2  13
BRANCH  11  19
ATOM     19  C   UNL     1       4.326   4.337  16.620  0.00  0.00    +0.000 C 
BRANCH  19  20
ATOM     20  O   UNL     1       5.737   4.106  16.682  0.00  0.00    +0.000 OA
BRANCH  20  21
ATOM     21  C   UNL     1       6.403   5.215  17.172  0.00  0.00    +0.000 A 
ATOM     22  C   UNL     1       7.224   5.014  18.268  0.00  0.00    +0.000 A 
ATOM     23  C   UNL     1       7.957   6.097  18.746  0.00  0.00    +0.000 A 
ATOM     24  C   UNL     1       7.837   7.334  18.119  0.00  0.00    +0.000 A 
ATOM     25  C   UNL     1       6.977   7.441  17.039  0.00  0.00    +0.000 A 
ATOM     26  N   UNL     1       6.259   6.410  16.551  0.00  0.00    +0.000 NA
ENDBRANCH  20  21
ENDBRANCH  19  20
ENDBRANCH  11  19
TORSDOF 4
ENDMDL
MODEL 4
REMARK VINA RESULT:      -7.1      1.777      8.412
REMARK  Name = 
REMARK  4 active torsions:
REMARK  status: ('A' for Active; 'I' for Inactive)
REMARK    1  A    between atoms: C_2  and  C_3
REMARK    2  A    between atoms: C_17  and  C_18
REMARK    3  A    between atoms: C_18  and  O_19
REMARK    4  A    between atoms: O_19  and  C_20
REMARK                            x       y       z     vdW  Elec       q    Type
REMARK                         _______ _______ _______ _____ _____    ______ ____
ROOT
ATOM      1  O   UNL     1       1.882   6.137  20.537  0.00  0.00    +0.000 OA
ATOM      2  C   UNL     1       2.270   6.680  19.500  0.00  0.00    +0.000 C 
ATOM      3  N   UNL     1       3.396   6.148  18.819  0.00  0.00    +0.000 N 
ATOM      4  C   UNL     1       3.961   6.675  17.575  0.00  0.00    +0.000 C 
ATOM      5  C   UNL     1       5.483   6.609  17.553  0.00  0.00    +0.000 C 
ATOM      6  C   UNL     1       5.988   5.181  17.811  0.00  0.00    +0.000 C 
ATOM      7  C   UNL     1       5.539   4.869  19.247  0.00  0.00    +0.000 C 
ATOM      8  C   UNL     1       4.007   4.924  19.374  0.00  0.00    +0.000 C 
ATOM      9  C   UNL     1       7.506   5.087  17.614  0.00  0.00    +0.000 C 
ATOM     10  O   UNL     1       7.758   4.289  16.442  0.00  0.00    +0.000 OA
ATOM     11  C   UNL     1       6.524   4.074  15.739  0.00  0.00    +0.000 C 
ATOM     12  C   UNL     1       5.467   4.134  16.824  0.00  0.00    +0.000 C 
ENDROOT
BRANCH   2  13
ATOM     13  C   UNL     1       1.645   8.039  19.168  0.00  0.00    +0.000 A 
ATOM     14  N   UNL     1       1.182   8.721  20.237  0.00  0.00    +0.000 NA
ATOM     15  C   UNL     1       1.030  10.052  20.094  0.00  0.00    +0.000 A 
ATOM     16  C   UNL     1       1.328  10.729  18.937  0.00  0.00    +0.000 A 
ATOM     17  C   UNL     1       1.768   9.951  17.900  0.00  0.00    +0.000 A 
ATOM     18  N   UNL     1       1.938   8.620  17.995  0.00  0.00    +0.000 NA
ENDBRANCH   2  13
BRANCH  11  19
ATOM     19  C   UNL     1       6.327   5.130  14.645  0.00  0.00    +0.000 C 
BRANCH  19  20
ATOM     20  O   UNL     1       7.158   4.846  13.515  0.00  0.00    +0.000 OA
BRANCH  20  21
ATOM     21  C   UNL     1       6.563   3.918  12.679  0.00  0.00    +0.000 A 
ATOM     22  C   UNL     1       7.410   3.071  11.985  0.00  0.00    +0.000 A 
ATOM     23  C   UNL     1       6.839   2.086  11.184  0.00  0.00    +0.000 A 
ATOM     24  C   UNL     1       5.453   1.990  11.099  0.00  0.00    +0.000 A 
ATOM     25  C   UNL     1       4.689   2.894  11.817  0.00  0.00    +0.000 A 
ATOM     26  N   UNL     1       5.212   3.854  12.605  0.00  0.00    +0.000 NA
ENDBRANCH  20  21
ENDBRANCH  19  20
ENDBRANCH  11  19
TORSDOF 4
ENDMDL
MODEL 5
REMARK VINA RESULT:      -7.0      1.689      8.440
REMARK  Name = 
REMARK  4 active torsions:
REMARK  status: ('A' for Active; 'I' for Inactive)
REMARK    1  A    between atoms: C_2  and  C_3
REMARK    2  A    between atoms: C_17  and  C_18
REMARK    3  A    between atoms: C_18  and  O_19
REMARK    4  A    between atoms: O_19  and  C_20
REMARK                            x       y       z     vdW  Elec       q    Type
REMARK                         _______ _______ _______ _____ _____    ______ ____
ROOT
ATOM      1  O   UNL     1       1.905   6.521  20.715  0.00  0.00    +0.000 OA
ATOM      2  C   UNL     1       2.307   7.039  19.671  0.00  0.00    +0.000 C 
ATOM      3  N   UNL     1       3.380   6.434  18.966  0.00  0.00    +0.000 N 
ATOM      4  C   UNL     1       3.954   6.925  17.711  0.00  0.00    +0.000 C 
ATOM      5  C   UNL     1       5.467   6.755  17.657  0.00  0.00    +0.000 C 
ATOM      6  C   UNL     1       5.878   5.294  17.902  0.00  0.00    +0.000 C 
ATOM      7  C   UNL     1       5.439   5.009  19.346  0.00  0.00    +0.000 C 
ATOM      8  C   UNL     1       3.917   5.169  19.506  0.00  0.00    +0.000 C 
ATOM      9  C   UNL     1       7.382   5.097  17.673  0.00  0.00    +0.000 C 
ATOM     10  O   UNL     1       7.554   4.287  16.495  0.00  0.00    +0.000 OA
ATOM     11  C   UNL     1       6.293   4.160  15.817  0.00  0.00    +0.000 C 
ATOM     12  C   UNL     1       5.266   4.288  16.924  0.00  0.00    +0.000 C 
ENDROOT
BRANCH   2  13
ATOM     13  C   UNL     1       1.770   8.439  19.354  0.00  0.00    +0.000 A 
ATOM     14  N   UNL     1       1.484   8.649  18.051  0.00  0.00    +0.000 NA
ATOM     15  C   UNL     1       0.629   9.650  17.767  0.00  0.00    +0.000 A 
ATOM     16  C   UNL     1       0.043  10.442  18.725  0.00  0.00    +0.000 A 
ATOM     17  C   UNL     1       0.410  10.169  20.016  0.00  0.00    +0.000 A 
ATOM     18  N   UNL     1       1.258   9.180  20.348  0.00  0.00    +0.000 NA
ENDBRANCH   2  13
BRANCH  11  19
ATOM     19  C   UNL     1       6.147   5.231  14.730  0.00  0.00    +0.000 C 
BRANCH  19  20
ATOM     20  O   UNL     1       7.012   4.948  13.625  0.00  0.00    +0.000 OA
BRANCH  20  21
ATOM     21  C   UNL     1       6.449   4.014  12.775  0.00  0.00    +0.000 A 
ATOM     22  C   UNL     1       7.320   3.158  12.124  0.00  0.00    +0.000 A 
ATOM     23  C   UNL     1       6.780   2.167  11.310  0.00  0.00    +0.000 A 
ATOM     24  C   UNL     1       5.398   2.072  11.173  0.00  0.00    +0.000 A 
ATOM     25  C   UNL     1       4.608   2.984  11.851  0.00  0.00    +0.000 A 
ATOM     26  N   UNL     1       5.102   3.951  12.650  0.00  0.00    +0.000 NA
ENDBRANCH  20  21
ENDBRANCH  19  20
ENDBRANCH  11  19
TORSDOF 4
ENDMDL
MODEL 6
REMARK VINA RESULT:      -7.0      1.028      1.236
REMARK  Name = 
REMARK  4 active torsions:
REMARK  status: ('A' for Active; 'I' for Inactive)
REMARK    1  A    between atoms: C_2  and  C_3
REMARK    2  A    between atoms: C_17  and  C_18
REMARK    3  A    between atoms: C_18  and  O_19
REMARK    4  A    between atoms: O_19  and  C_20
REMARK                            x       y       z     vdW  Elec       q    Type
REMARK                         _______ _______ _______ _____ _____    ______ ____
ROOT
ATOM      1  O   UNL     1       7.921   4.233  16.661  0.00  0.00    +0.000 OA
ATOM      2  C   UNL     1       6.918   4.771  16.189  0.00  0.00    +0.000 C 
ATOM      3  N   UNL     1       5.845   5.115  17.052  0.00  0.00    +0.000 N 
ATOM      4  C   UNL     1       4.601   5.768  16.639  0.00  0.00    +0.000 C 
ATOM      5  C   UNL     1       3.386   5.233  17.387  0.00  0.00    +0.000 C 
ATOM      6  C   UNL     1       3.572   5.339  18.909  0.00  0.00    +0.000 C 
ATOM      7  C   UNL     1       4.748   4.400  19.219  0.00  0.00    +0.000 C 
ATOM      8  C   UNL     1       6.027   4.854  18.494  0.00  0.00    +0.000 C 
ATOM      9  C   UNL     1       2.282   4.964  19.651  0.00  0.00    +0.000 C 
ATOM     10  O   UNL     1       1.755   6.155  20.265  0.00  0.00    +0.000 OA
ATOM     11  C   UNL     1       2.468   7.300  19.772  0.00  0.00    +0.000 C 
ATOM     12  C   UNL     1       3.839   6.757  19.420  0.00  0.00    +0.000 C 
ENDROOT
BRANCH   2  13
ATOM     13  C   UNL     1       6.816   4.799  14.660  0.00  0.00    +0.000 A 
ATOM     14  N   UNL     1       7.791   5.501  14.044  0.00  0.00    +0.000 NA
ATOM     15  C   UNL     1       8.021   5.220  12.747  0.00  0.00    +0.000 A 
ATOM     16  C   UNL     1       7.328   4.264  12.044  0.00  0.00    +0.000 A 
ATOM     17  C   UNL     1       6.344   3.620  12.745  0.00  0.00    +0.000 A 
ATOM     18  N   UNL     1       6.079   3.865  14.040  0.00  0.00    +0.000 NA
ENDBRANCH   2  13
BRANCH  11  19
ATOM     19  C   UNL     1       1.741   7.923  18.575  0.00  0.00    +0.000 C 
BRANCH  19  20
ATOM     20  O   UNL     1       0.698   8.796  19.018  0.00  0.00    +0.000 OA
BRANCH  20  21
ATOM     21  C   UNL     1       1.139  10.106  19.088  0.00  0.00    +0.000 A 
ATOM     22  C   UNL     1       0.808  10.815  20.230  0.00  0.00    +0.000 A 
ATOM     23  C   UNL     1       1.290  12.114  20.357  0.00  0.00    +0.000 A 
ATOM     24  C   UNL     1       2.073  12.656  19.342  0.00  0.00    +0.000 A 
ATOM     25  C   UNL     1       2.337  11.875  18.229  0.00  0.00    +0.000 A 
ATOM     26  N   UNL     1       1.889  10.613  18.081  0.00  0.00    +0.000 NA
ENDBRANCH  20  21
ENDBRANCH  19  20
ENDBRANCH  11  19
TORSDOF 4
ENDMDL
MODEL 7
REMARK VINA RESULT:      -6.9      1.068      1.517
REMARK  Name = 
REMARK  4 active torsions:
REMARK  status: ('A' for Active; 'I' for Inactive)
REMARK    1  A    between atoms: C_2  and  C_3
REMARK    2  A    between atoms: C_17  and  C_18
REMARK    3  A    between atoms: C_18  and  O_19
REMARK    4  A    between atoms: O_19  and  C_20
REMARK                            x       y       z     vdW  Elec       q    Type
REMARK                         _______ _______ _______ _____ _____    ______ ____
ROOT
ATOM      1  O   UNL     1       8.166   4.187  17.245  0.00  0.00    +0.000 OA
ATOM      2  C   UNL     1       7.192   4.591  16.607  0.00  0.00    +0.000 C 
ATOM      3  N   UNL     1       6.028   5.004  17.305  0.00  0.00    +0.000 N 
ATOM      4  C   UNL     1       4.804   5.516  16.686  0.00  0.00    +0.000 C 
ATOM      5  C   UNL     1       3.545   5.037  17.398  0.00  0.00    +0.000 C 
ATOM      6  C   UNL     1       3.579   5.385  18.895  0.00  0.00    +0.000 C 
ATOM      7  C   UNL     1       4.756   4.572  19.452  0.00  0.00    +0.000 C 
ATOM      8  C   UNL     1       6.080   4.978  18.781  0.00  0.00    +0.000 C 
ATOM      9  C   UNL     1       2.240   5.058  19.568  0.00  0.00    +0.000 C 
ATOM     10  O   UNL     1       1.609   6.298  19.938  0.00  0.00    +0.000 OA
ATOM     11  C   UNL     1       2.319   7.392  19.334  0.00  0.00    +0.000 C 
ATOM     12  C   UNL     1       3.739   6.877  19.197  0.00  0.00    +0.000 C 
ENDROOT
BRANCH   2  13
ATOM     13  C   UNL     1       7.236   4.378  15.089  0.00  0.00    +0.000 A 
ATOM     14  N   UNL     1       6.265   3.575  14.606  0.00  0.00    +0.000 NA
ATOM     15  C   UNL     1       5.974   3.687  13.296  0.00  0.00    +0.000 A 
ATOM     16  C   UNL     1       6.603   4.571  12.453  0.00  0.00    +0.000 A 
ATOM     17  C   UNL     1       7.590   5.327  13.027  0.00  0.00    +0.000 A 
ATOM     18  N   UNL     1       7.914   5.251  14.330  0.00  0.00    +0.000 NA
ENDBRANCH   2  13
BRANCH  11  19
ATOM     19  C   UNL     1       1.686   7.782  17.994  0.00  0.00    +0.000 C 
BRANCH  19  20
ATOM     20  O   UNL     1       2.264   8.994  17.498  0.00  0.00    +0.000 OA
BRANCH  20  21
ATOM     21  C   UNL     1       1.585  10.102  17.974  0.00  0.00    +0.000 A 
ATOM     22  C   UNL     1       0.245   9.930  18.275  0.00  0.00    +0.000 A 
ATOM     23  C   UNL     1      -0.450  11.009  18.814  0.00  0.00    +0.000 A 
ATOM     24  C   UNL     1       0.214  12.214  19.024  0.00  0.00    +0.000 A 
ATOM     25  C   UNL     1       1.551  12.295  18.675  0.00  0.00    +0.000 A 
ATOM     26  N   UNL     1       2.251  11.267  18.157  0.00  0.00    +0.000 NA
ENDBRANCH  20  21
ENDBRANCH  19  20
ENDBRANCH  11  19
TORSDOF 4
ENDMDL
MODEL 8
REMARK VINA RESULT:      -6.8      0.743      1.182
REMARK  Name = 
REMARK  4 active torsions:
REMARK  status: ('A' for Active; 'I' for Inactive)
REMARK    1  A    between atoms: C_2  and  C_3
REMARK    2  A    between atoms: C_17  and  C_18
REMARK    3  A    between atoms: C_18  and  O_19
REMARK    4  A    between atoms: O_19  and  C_20
REMARK                            x       y       z     vdW  Elec       q    Type
REMARK                         _______ _______ _______ _____ _____    ______ ____
ROOT
ATOM      1  O   UNL     1       8.164   4.270  17.311  0.00  0.00    +0.000 OA
ATOM      2  C   UNL     1       7.203   4.662  16.645  0.00  0.00    +0.000 C 
ATOM      3  N   UNL     1       6.029   5.097  17.313  0.00  0.00    +0.000 N 
ATOM      4  C   UNL     1       4.818   5.600  16.659  0.00  0.00    +0.000 C 
ATOM      5  C   UNL     1       3.545   5.142  17.360  0.00  0.00    +0.000 C 
ATOM      6  C   UNL     1       3.553   5.526  18.848  0.00  0.00    +0.000 C 
ATOM      7  C   UNL     1       4.717   4.722  19.446  0.00  0.00    +0.000 C 
ATOM      8  C   UNL     1       6.054   5.106  18.789  0.00  0.00    +0.000 C 
ATOM      9  C   UNL     1       2.201   5.222  19.505  0.00  0.00    +0.000 C 
ATOM     10  O   UNL     1       1.569   6.473  19.833  0.00  0.00    +0.000 OA
ATOM     11  C   UNL     1       2.295   7.549  19.217  0.00  0.00    +0.000 C 
ATOM     12  C   UNL     1       3.715   7.025  19.117  0.00  0.00    +0.000 C 
ENDROOT
BRANCH   2  13
ATOM     13  C   UNL     1       7.274   4.413  15.134  0.00  0.00    +0.000 A 
ATOM     14  N   UNL     1       6.338   3.562  14.661  0.00  0.00    +0.000 NA
ATOM     15  C   UNL     1       6.059   3.630  13.345  0.00  0.00    +0.000 A 
ATOM     16  C   UNL     1       6.666   4.515  12.487  0.00  0.00    +0.000 A 
ATOM     17  C   UNL     1       7.618   5.321  13.052  0.00  0.00    +0.000 A 
ATOM     18  N   UNL     1       7.928   5.291  14.360  0.00  0.00    +0.000 NA
ENDBRANCH   2  13
BRANCH  11  19
ATOM     19  C   UNL     1       1.688   7.910  17.856  0.00  0.00    +0.000 C 
BRANCH  19  20
ATOM     20  O   UNL     1       1.840   9.308  17.592  0.00  0.00    +0.000 OA
BRANCH  20  21
ATOM     21  C   UNL     1       0.833  10.042  18.195  0.00  0.00    +0.000 A 
ATOM     22  C   UNL     1       1.227  11.027  19.084  0.00  0.00    +0.000 A 
ATOM     23  C   UNL     1       0.241  11.823  19.659  0.00  0.00    +0.000 A 
ATOM     24  C   UNL     1      -1.093  11.603  19.331  0.00  0.00    +0.000 A 
ATOM     25  C   UNL     1      -1.391  10.583  18.444  0.00  0.00    +0.000 A 
ATOM     26  N   UNL     1      -0.458   9.799  17.868  0.00  0.00    +0.000 NA
ENDBRANCH  20  21
ENDBRANCH  19  20
ENDBRANCH  11  19
TORSDOF 4
ENDMDL
MODEL 9
REMARK VINA RESULT:      -6.7      1.735      8.442
REMARK  Name = 
REMARK  4 active torsions:
REMARK  status: ('A' for Active; 'I' for Inactive)
REMARK    1  A    between atoms: C_2  and  C_3
REMARK    2  A    between atoms: C_17  and  C_18
REMARK    3  A    between atoms: C_18  and  O_19
REMARK    4  A    between atoms: O_19  and  C_20
REMARK                            x       y       z     vdW  Elec       q    Type
REMARK                         _______ _______ _______ _____ _____    ______ ____
ROOT
ATOM      1  O   UNL     1       0.227   7.667  21.509  0.00  0.00    +0.000 OA
ATOM      2  C   UNL     1       1.007   7.993  20.612  0.00  0.00    +0.000 C 
ATOM      3  N   UNL     1       1.828   7.001  20.013  0.00  0.00    +0.000 N 
ATOM      4  C   UNL     1       2.788   7.234  18.932  0.00  0.00    +0.000 C 
ATOM      5  C   UNL     1       4.059   6.410  19.093  0.00  0.00    +0.000 C 
ATOM      6  C   UNL     1       3.744   4.911  19.221  0.00  0.00    +0.000 C 
ATOM      7  C   UNL     1       2.955   4.794  20.534  0.00  0.00    +0.000 C 
ATOM      8  C   UNL     1       1.651   5.609  20.473  0.00  0.00    +0.000 C 
ATOM      9  C   UNL     1       5.029   4.073  19.206  0.00  0.00    +0.000 C 
ATOM     10  O   UNL     1       5.059   3.319  17.980  0.00  0.00    +0.000 OA
ATOM     11  C   UNL     1       4.024   3.794  17.104  0.00  0.00    +0.000 C 
ATOM     12  C   UNL     1       2.959   4.323  18.045  0.00  0.00    +0.000 C 
ENDROOT
BRANCH   2  13
ATOM     13  C   UNL     1       1.198   9.497  20.387  0.00  0.00    +0.000 A 
ATOM     14  N   UNL     1       1.002   9.904  19.115  0.00  0.00    +0.000 NA
ATOM     15  C   UNL     1       0.724  11.208  18.926  0.00  0.00    +0.000 A 
ATOM     16  C   UNL     1       0.625  12.118  19.951  0.00  0.00    +0.000 A 
ATOM     17  C   UNL     1       0.863  11.618  21.204  0.00  0.00    +0.000 A 
ATOM     18  N   UNL     1       1.141  10.324  21.441  0.00  0.00    +0.000 NA
ENDBRANCH   2  13
BRANCH  11  19
ATOM     19  C   UNL     1       4.566   4.860  16.145  0.00  0.00    +0.000 C 
BRANCH  19  20
ATOM     20  O   UNL     1       5.994   4.797  16.077  0.00  0.00    +0.000 OA
BRANCH  20  21
ATOM     21  C   UNL     1       6.425   4.624  14.773  0.00  0.00    +0.000 A 
ATOM     22  C   UNL     1       5.714   3.725  13.997  0.00  0.00    +0.000 A 
ATOM     23  C   UNL     1       6.084   3.575  12.664  0.00  0.00    +0.000 A 
ATOM     24  C   UNL     1       7.148   4.319  12.161  0.00  0.00    +0.000 A 
ATOM     25  C   UNL     1       7.809   5.181  13.020  0.00  0.00    +0.000 A 
ATOM     26  N   UNL     1       7.471   5.351  14.313  0.00  0.00    +0.000 NA
ENDBRANCH  20  21
ENDBRANCH  19  20
ENDBRANCH  11  19
TORSDOF 4
ENDMDL
