MODEL 1
REMARK VINA RESULT:      -7.9      0.000      0.000
REMARK  Name = 
REMARK  4 active torsions:
REMARK  status: ('A' for Active; 'I' for Inactive)
REMARK    1  A    between atoms: C_1  and  C_2
REMARK    2  A    between atoms: C_4  and  C_5
REMARK    3  A    between atoms: N_13  and  N_14
REMARK    4  A    between atoms: C_15  and  C_16
REMARK                            x       y       z     vdW  Elec       q    Type
REMARK                         _______ _______ _______ _____ _____    ______ ____
ROOT
ATOM      1  C   UNL     1       1.668   2.575  21.079  0.00  0.00    +0.000 C 
ATOM      2  C   UNL     1       2.080   3.859  20.422  0.00  0.00    +0.000 A 
ATOM      3  C   UNL     1       2.855   3.846  19.283  0.00  0.00    +0.000 A 
ATOM      4  C   UNL     1       3.181   5.070  18.736  0.00  0.00    +0.000 A 
ATOM      5  N   UNL     1       2.774   6.223  19.302  0.00  0.00    +0.000 NA
ATOM      6  C   UNL     1       2.017   6.159  20.411  0.00  0.00    +0.000 A 
ATOM      7  N   UNL     1       1.564   7.338  21.034  0.00  0.00    +0.000 N 
ATOM      8  N   UNL     1       1.654   5.003  20.995  0.00  0.00    +0.000 NA
ATOM      9  H   UNL     1       0.847   7.078  21.704  0.00  0.00    +0.000 HD
ENDROOT
BRANCH   4  10
ATOM     10  C   UNL     1       4.005   5.207  17.516  0.00  0.00    +0.000 A 
ATOM     11  C   UNL     1       4.439   4.088  16.779  0.00  0.00    +0.000 A 
ATOM     12  C   UNL     1       5.231   4.232  15.636  0.00  0.00    +0.000 A 
ATOM     13  C   UNL     1       5.604   5.500  15.199  0.00  0.00    +0.000 A 
ATOM     14  C   UNL     1       5.177   6.624  15.900  0.00  0.00    +0.000 A 
ATOM     15  C   UNL     1       4.385   6.477  17.043  0.00  0.00    +0.000 A 
ENDBRANCH   4  10
BRANCH   7  16
ATOM     16  N   UNL     1       1.413   8.448  20.258  0.00  0.00    +0.000 NA
ATOM     17  C   UNL     1       0.463   9.251  20.614  0.00  0.00    +0.000 C 
BRANCH  17  18
ATOM     18  C   UNL     1       0.195  10.493  19.860  0.00  0.00    +0.000 A 
ATOM     19  C   UNL     1      -0.895  10.568  18.984  0.00  0.00    +0.000 A 
ATOM     20  C   UNL     1      -1.132  11.740  18.265  0.00  0.00    +0.000 A 
ATOM     21  C   UNL     1      -0.283  12.834  18.420  0.00  0.00    +0.000 A 
ATOM     22  C   UNL     1       0.804  12.762  19.294  0.00  0.00    +0.000 A 
ATOM     23  C   UNL     1       1.045  11.590  20.017  0.00  0.00    +0.000 A 
ENDBRANCH  17  18
ENDBRANCH   7  16
TORSDOF 3
ENDMDL
MODEL 2
REMARK VINA RESULT:      -7.9      0.251      1.056
REMARK  Name = 
REMARK  4 active torsions:
REMARK  status: ('A' for Active; 'I' for Inactive)
REMARK    1  A    between atoms: C_1  and  C_2
REMARK    2  A    between atoms: C_4  and  C_5
REMARK    3  A    between atoms: N_13  and  N_14
REMARK    4  A    between atoms: C_15  and  C_16
REMARK                            x       y       z     vdW  Elec       q    Type
REMARK                         _______ _______ _______ _____ _____    ______ ____
ROOT
ATOM      1  C   UNL     1       2.155   2.651  21.385  0.00  0.00    +0.000 C 
ATOM      2  C   UNL     1       2.433   3.917  20.631  0.00  0.00    +0.000 A 
ATOM      3  C   UNL     1       3.166   3.891  19.464  0.00  0.00    +0.000 A 
ATOM      4  C   UNL     1       3.368   5.098  18.827  0.00  0.00    +0.000 A 
ATOM      5  N   UNL     1       2.884   6.249  19.333  0.00  0.00    +0.000 NA
ATOM      6  C   UNL     1       2.174   6.198  20.473  0.00  0.00    +0.000 A 
ATOM      7  N   UNL     1       1.644   7.375  21.037  0.00  0.00    +0.000 N 
ATOM      8  N   UNL     1       1.932   5.058  21.145  0.00  0.00    +0.000 NA
ATOM      9  H   UNL     1       0.976   7.102  21.750  0.00  0.00    +0.000 HD
ENDROOT
BRANCH   4  10
ATOM     10  C   UNL     1       4.135   5.219  17.568  0.00  0.00    +0.000 A 
ATOM     11  C   UNL     1       4.499   6.470  17.033  0.00  0.00    +0.000 A 
ATOM     12  C   UNL     1       5.210   6.569  15.834  0.00  0.00    +0.000 A 
ATOM     13  C   UNL     1       5.579   5.419  15.143  0.00  0.00    +0.000 A 
ATOM     14  C   UNL     1       5.245   4.169  15.656  0.00  0.00    +0.000 A 
ATOM     15  C   UNL     1       4.534   4.072  16.855  0.00  0.00    +0.000 A 
ENDBRANCH   4  10
BRANCH   7  16
ATOM     16  N   UNL     1       1.373   8.413  20.198  0.00  0.00    +0.000 NA
ATOM     17  C   UNL     1       0.498   9.263  20.629  0.00  0.00    +0.000 C 
BRANCH  17  18
ATOM     18  C   UNL     1       0.114  10.438  19.818  0.00  0.00    +0.000 A 
ATOM     19  C   UNL     1      -0.999  10.381  18.972  0.00  0.00    +0.000 A 
ATOM     20  C   UNL     1      -1.345  11.489  18.199  0.00  0.00    +0.000 A 
ATOM     21  C   UNL     1      -0.581  12.652  18.270  0.00  0.00    +0.000 A 
ATOM     22  C   UNL     1       0.530  12.712  19.114  0.00  0.00    +0.000 A 
ATOM     23  C   UNL     1       0.881  11.604  19.892  0.00  0.00    +0.000 A 
ENDBRANCH  17  18
ENDBRANCH   7  16
TORSDOF 3
ENDMDL
MODEL 3
REMARK VINA RESULT:      -7.9      0.081      1.457
REMARK  Name = 
REMARK  4 active torsions:
REMARK  status: ('A' for Active; 'I' for Inactive)
REMARK    1  A    between atoms: C_1  and  C_2
REMARK    2  A    between atoms: C_4  and  C_5
REMARK    3  A    between atoms: N_13  and  N_14
REMARK    4  A    between atoms: C_15  and  C_16
REMARK                            x       y       z     vdW  Elec       q    Type
REMARK                         _______ _______ _______ _____ _____    ______ ____
ROOT
ATOM      1  C   UNL     1       1.596   2.577  20.999  0.00  0.00    +0.000 C 
ATOM      2  C   UNL     1       2.031   3.867  20.371  0.00  0.00    +0.000 A 
ATOM      3  C   UNL     1       2.819   3.865  19.241  0.00  0.00    +0.000 A 
ATOM      4  C   UNL     1       3.167   5.094  18.719  0.00  0.00    +0.000 A 
ATOM      5  N   UNL     1       2.767   6.242  19.301  0.00  0.00    +0.000 NA
ATOM      6  C   UNL     1       1.997   6.167  20.400  0.00  0.00    +0.000 A 
ATOM      7  N   UNL     1       1.551   7.341  21.039  0.00  0.00    +0.000 N 
ATOM      8  N   UNL     1       1.613   5.006  20.959  0.00  0.00    +0.000 NA
ATOM      9  H   UNL     1       0.823   7.077  21.696  0.00  0.00    +0.000 HD
ENDROOT
BRANCH   4  10
ATOM     10  C   UNL     1       4.007   5.243  17.511  0.00  0.00    +0.000 A 
ATOM     11  C   UNL     1       4.404   6.504  17.028  0.00  0.00    +0.000 A 
ATOM     12  C   UNL     1       5.185   6.629  15.876  0.00  0.00    +0.000 A 
ATOM     13  C   UNL     1       5.593   5.494  15.181  0.00  0.00    +0.000 A 
ATOM     14  C   UNL     1       5.227   4.233  15.644  0.00  0.00    +0.000 A 
ATOM     15  C   UNL     1       4.446   4.111  16.797  0.00  0.00    +0.000 A 
ENDBRANCH   4  10
BRANCH   7  16
ATOM     16  N   UNL     1       1.423   8.466  20.282  0.00  0.00    +0.000 NA
ATOM     17  C   UNL     1       0.489   9.282  20.651  0.00  0.00    +0.000 C 
BRANCH  17  18
ATOM     18  C   UNL     1       0.246  10.542  19.918  0.00  0.00    +0.000 A 
ATOM     19  C   UNL     1       1.062  11.658  20.139  0.00  0.00    +0.000 A 
ATOM     20  C   UNL     1       0.816  12.848  19.453  0.00  0.00    +0.000 A 
ATOM     21  C   UNL     1      -0.242  12.924  18.550  0.00  0.00    +0.000 A 
ATOM     22  C   UNL     1      -1.057  11.812  18.327  0.00  0.00    +0.000 A 
ATOM     23  C   UNL     1      -0.814  10.616  19.011  0.00  0.00    +0.000 A 
ENDBRANCH  17  18
ENDBRANCH   7  16
TORSDOF 3
ENDMDL
MODEL 4
REMARK VINA RESULT:      -7.8      0.164      1.044
REMARK  Name = 
REMARK  4 active torsions:
REMARK  status: ('A' for Active; 'I' for Inactive)
REMARK    1  A    between atoms: C_1  and  C_2
REMARK    2  A    between atoms: C_4  and  C_5
REMARK    3  A    between atoms: N_13  and  N_14
REMARK    4  A    between atoms: C_15  and  C_16
REMARK                            x       y       z     vdW  Elec       q    Type
REMARK                         _______ _______ _______ _____ _____    ______ ____
ROOT
ATOM      1  C   UNL     1       1.411   2.643  21.036  0.00  0.00    +0.000 C 
ATOM      2  C   UNL     1       1.887   3.919  20.409  0.00  0.00    +0.000 A 
ATOM      3  C   UNL     1       2.682   3.892  19.284  0.00  0.00    +0.000 A 
ATOM      4  C   UNL     1       3.069   5.110  18.764  0.00  0.00    +0.000 A 
ATOM      5  N   UNL     1       2.699   6.270  19.342  0.00  0.00    +0.000 NA
ATOM      6  C   UNL     1       1.920   6.219  20.436  0.00  0.00    +0.000 A 
ATOM      7  N   UNL     1       1.505   7.406  21.071  0.00  0.00    +0.000 N 
ATOM      8  N   UNL     1       1.499   5.070  20.994  0.00  0.00    +0.000 NA
ATOM      9  H   UNL     1       0.765   7.164  21.724  0.00  0.00    +0.000 HD
ENDROOT
BRANCH   4  10
ATOM     10  C   UNL     1       3.920   5.232  17.560  0.00  0.00    +0.000 A 
ATOM     11  C   UNL     1       4.444   4.105  16.900  0.00  0.00    +0.000 A 
ATOM     12  C   UNL     1       5.260   4.237  15.773  0.00  0.00    +0.000 A 
ATOM     13  C   UNL     1       5.568   5.500  15.276  0.00  0.00    +0.000 A 
ATOM     14  C   UNL     1       5.051   6.631  15.901  0.00  0.00    +0.000 A 
ATOM     15  C   UNL     1       4.234   6.497  17.027  0.00  0.00    +0.000 A 
ENDBRANCH   4  10
BRANCH   7  16
ATOM     16  N   UNL     1       1.414   8.533  20.312  0.00  0.00    +0.000 NA
ATOM     17  C   UNL     1       0.472   9.354  20.645  0.00  0.00    +0.000 C 
BRANCH  17  18
ATOM     18  C   UNL     1       0.266  10.618  19.906  0.00  0.00    +0.000 A 
ATOM     19  C   UNL     1       1.098  11.719  20.141  0.00  0.00    +0.000 A 
ATOM     20  C   UNL     1       0.888  12.912  19.449  0.00  0.00    +0.000 A 
ATOM     21  C   UNL     1      -0.151  13.006  18.526  0.00  0.00    +0.000 A 
ATOM     22  C   UNL     1      -0.982  11.908  18.289  0.00  0.00    +0.000 A 
ATOM     23  C   UNL     1      -0.775  10.710  18.979  0.00  0.00    +0.000 A 
ENDBRANCH  17  18
ENDBRANCH   7  16
TORSDOF 3
ENDMDL
MODEL 5
REMARK VINA RESULT:      -7.7      1.866      4.370
REMARK  Name = 
REMARK  4 active torsions:
REMARK  status: ('A' for Active; 'I' for Inactive)
REMARK    1  A    between atoms: C_1  and  C_2
REMARK    2  A    between atoms: C_4  and  C_5
REMARK    3  A    between atoms: N_13  and  N_14
REMARK    4  A    between atoms: C_15  and  C_16
REMARK                            x       y       z     vdW  Elec       q    Type
REMARK                         _______ _______ _______ _____ _____    ______ ____
ROOT
ATOM      1  C   UNL     1       5.884   6.840  16.754  0.00  0.00    +0.000 C 
ATOM      2  C   UNL     1       4.540   6.828  17.420  0.00  0.00    +0.000 A 
ATOM      3  C   UNL     1       4.115   5.720  18.119  0.00  0.00    +0.000 A 
ATOM      4  C   UNL     1       2.870   5.795  18.711  0.00  0.00    +0.000 A 
ATOM      5  N   UNL     1       2.102   6.896  18.593  0.00  0.00    +0.000 NA
ATOM      6  C   UNL     1       2.584   7.940  17.899  0.00  0.00    +0.000 A 
ATOM      7  N   UNL     1       1.818   9.114  17.754  0.00  0.00    +0.000 N 
ATOM      8  N   UNL     1       3.789   7.942  17.302  0.00  0.00    +0.000 NA
ATOM      9  H   UNL     1       2.431   9.840  17.398  0.00  0.00    +0.000 HD
ENDROOT
BRANCH   4  10
ATOM     10  C   UNL     1       2.287   4.682  19.491  0.00  0.00    +0.000 A 
ATOM     11  C   UNL     1       1.382   3.766  18.923  0.00  0.00    +0.000 A 
ATOM     12  C   UNL     1       0.827   2.728  19.677  0.00  0.00    +0.000 A 
ATOM     13  C   UNL     1       1.168   2.579  21.018  0.00  0.00    +0.000 A 
ATOM     14  C   UNL     1       2.072   3.462  21.602  0.00  0.00    +0.000 A 
ATOM     15  C   UNL     1       2.626   4.499  20.845  0.00  0.00    +0.000 A 
ENDBRANCH   4  10
BRANCH   7  16
ATOM     16  N   UNL     1       0.902   9.397  18.722  0.00  0.00    +0.000 NA
ATOM     17  C   UNL     1       1.381   9.914  19.807  0.00  0.00    +0.000 C 
BRANCH  17  18
ATOM     18  C   UNL     1       0.495  10.272  20.935  0.00  0.00    +0.000 A 
ATOM     19  C   UNL     1       0.463   9.480  22.088  0.00  0.00    +0.000 A 
ATOM     20  C   UNL     1      -0.386   9.817  23.142  0.00  0.00    +0.000 A 
ATOM     21  C   UNL     1      -1.205  10.941  23.043  0.00  0.00    +0.000 A 
ATOM     22  C   UNL     1      -1.175  11.733  21.893  0.00  0.00    +0.000 A 
ATOM     23  C   UNL     1      -0.324  11.400  20.835  0.00  0.00    +0.000 A 
ENDBRANCH  17  18
ENDBRANCH   7  16
TORSDOF 3
ENDMDL
MODEL 6
REMARK VINA RESULT:      -7.7      2.367      7.237
REMARK  Name = 
REMARK  4 active torsions:
REMARK  status: ('A' for Active; 'I' for Inactive)
REMARK    1  A    between atoms: C_1  and  C_2
REMARK    2  A    between atoms: C_4  and  C_5
REMARK    3  A    between atoms: N_13  and  N_14
REMARK    4  A    between atoms: C_15  and  C_16
REMARK                            x       y       z     vdW  Elec       q    Type
REMARK                         _______ _______ _______ _____ _____    ______ ____
ROOT
ATOM      1  C   UNL     1       2.258   2.797  21.830  0.00  0.00    +0.000 C 
ATOM      2  C   UNL     1       2.584   3.610  20.613  0.00  0.00    +0.000 A 
ATOM      3  C   UNL     1       2.205   4.933  20.532  0.00  0.00    +0.000 A 
ATOM      4  C   UNL     1       2.553   5.613  19.382  0.00  0.00    +0.000 A 
ATOM      5  N   UNL     1       3.218   5.004  18.381  0.00  0.00    +0.000 NA
ATOM      6  C   UNL     1       3.558   3.712  18.531  0.00  0.00    +0.000 A 
ATOM      7  N   UNL     1       4.257   3.036  17.512  0.00  0.00    +0.000 N 
ATOM      8  N   UNL     1       3.259   2.989  19.625  0.00  0.00    +0.000 NA
ATOM      9  H   UNL     1       4.602   2.164  17.901  0.00  0.00    +0.000 HD
ENDROOT
BRANCH   4  10
ATOM     10  C   UNL     1       2.213   7.034  19.160  0.00  0.00    +0.000 A 
ATOM     11  C   UNL     1       2.437   7.671  17.924  0.00  0.00    +0.000 A 
ATOM     12  C   UNL     1       2.124   9.019  17.733  0.00  0.00    +0.000 A 
ATOM     13  C   UNL     1       1.575   9.764  18.773  0.00  0.00    +0.000 A 
ATOM     14  C   UNL     1       1.330   9.156  20.002  0.00  0.00    +0.000 A 
ATOM     15  C   UNL     1       1.643   7.807  20.189  0.00  0.00    +0.000 A 
ENDBRANCH   4  10
BRANCH   7  16
ATOM     16  N   UNL     1       5.040   3.778  16.680  0.00  0.00    +0.000 NA
ATOM     17  C   UNL     1       5.310   3.234  15.538  0.00  0.00    +0.000 C 
BRANCH  17  18
ATOM     18  C   UNL     1       6.146   3.934  14.540  0.00  0.00    +0.000 A 
ATOM     19  C   UNL     1       6.102   3.559  13.192  0.00  0.00    +0.000 A 
ATOM     20  C   UNL     1       6.905   4.215  12.259  0.00  0.00    +0.000 A 
ATOM     21  C   UNL     1       7.752   5.242  12.671  0.00  0.00    +0.000 A 
ATOM     22  C   UNL     1       7.798   5.618  14.016  0.00  0.00    +0.000 A 
ATOM     23  C   UNL     1       6.993   4.964  14.954  0.00  0.00    +0.000 A 
ENDBRANCH  17  18
ENDBRANCH   7  16
TORSDOF 3
ENDMDL
MODEL 7
REMARK VINA RESULT:      -7.6      2.125      7.751
REMARK  Name = 
REMARK  4 active torsions:
REMARK  status: ('A' for Active; 'I' for Inactive)
REMARK    1  A    between atoms: C_1  and  C_2
REMARK    2  A    between atoms: C_4  and  C_5
REMARK    3  A    between atoms: N_13  and  N_14
REMARK    4  A    between atoms: C_15  and  C_16
REMARK                            x       y       z     vdW  Elec       q    Type
REMARK                         _______ _______ _______ _____ _____    ______ ____
ROOT
ATOM      1  C   UNL     1       1.572  13.531  20.890  0.00  0.00    +0.000 C 
ATOM      2  C   UNL     1       0.856  12.258  20.555  0.00  0.00    +0.000 A 
ATOM      3  C   UNL     1      -0.137  12.243  19.600  0.00  0.00    +0.000 A 
ATOM      4  C   UNL     1      -0.740  11.027  19.344  0.00  0.00    +0.000 A 
ATOM      5  N   UNL     1      -0.382   9.913  20.011  0.00  0.00    +0.000 NA
ATOM      6  C   UNL     1       0.597  10.002  20.927  0.00  0.00    +0.000 A 
ATOM      7  N   UNL     1       1.007   8.861  21.646  0.00  0.00    +0.000 N 
ATOM      8  N   UNL     1       1.233  11.149  21.224  0.00  0.00    +0.000 NA
ATOM      9  H   UNL     1       1.881   9.088  22.111  0.00  0.00    +0.000 HD
ENDROOT
BRANCH   4  10
ATOM     10  C   UNL     1      -1.818  10.864  18.346  0.00  0.00    +0.000 A 
ATOM     11  C   UNL     1      -3.037  11.562  18.443  0.00  0.00    +0.000 A 
ATOM     12  C   UNL     1      -4.054  11.385  17.500  0.00  0.00    +0.000 A 
ATOM     13  C   UNL     1      -3.874  10.509  16.434  0.00  0.00    +0.000 A 
ATOM     14  C   UNL     1      -2.673   9.816  16.306  0.00  0.00    +0.000 A 
ATOM     15  C   UNL     1      -1.658   9.995  17.250  0.00  0.00    +0.000 A 
ENDBRANCH   4  10
BRANCH   7  16
ATOM     16  N   UNL     1       0.833   7.645  21.059  0.00  0.00    +0.000 NA
ATOM     17  C   UNL     1       1.885   7.140  20.501  0.00  0.00    +0.000 C 
BRANCH  17  18
ATOM     18  C   UNL     1       1.835   5.824  19.831  0.00  0.00    +0.000 A 
ATOM     19  C   UNL     1       1.325   4.707  20.504  0.00  0.00    +0.000 A 
ATOM     20  C   UNL     1       1.294   3.465  19.869  0.00  0.00    +0.000 A 
ATOM     21  C   UNL     1       1.772   3.338  18.566  0.00  0.00    +0.000 A 
ATOM     22  C   UNL     1       2.280   4.451  17.893  0.00  0.00    +0.000 A 
ATOM     23  C   UNL     1       2.312   5.699  18.524  0.00  0.00    +0.000 A 
ENDBRANCH  17  18
ENDBRANCH   7  16
TORSDOF 3
ENDMDL
MODEL 8
REMARK VINA RESULT:      -7.6      1.899      4.367
REMARK  Name = 
REMARK  4 active torsions:
REMARK  status: ('A' for Active; 'I' for Inactive)
REMARK    1  A    between atoms: C_1  and  C_2
REMARK    2  A    between atoms: C_4  and  C_5
REMARK    3  A    between atoms: N_13  and  N_14
REMARK    4  A    between atoms: C_15  and  C_16
REMARK                            x       y       z     vdW  Elec       q    Type
REMARK                         _______ _______ _______ _____ _____    ______ ____
ROOT
ATOM      1  C   UNL     1       5.891   6.850  16.670  0.00  0.00    +0.000 C 
ATOM      2  C   UNL     1       4.525   6.838  17.288  0.00  0.00    +0.000 A 
ATOM      3  C   UNL     1       4.011   5.681  17.832  0.00  0.00    +0.000 A 
ATOM      4  C   UNL     1       2.752   5.758  18.390  0.00  0.00    +0.000 A 
ATOM      5  N   UNL     1       2.052   6.910  18.387  0.00  0.00    +0.000 NA
ATOM      6  C   UNL     1       2.618   8.000  17.842  0.00  0.00    +0.000 A 
ATOM      7  N   UNL     1       1.926   9.227  17.820  0.00  0.00    +0.000 N 
ATOM      8  N   UNL     1       3.843   8.001  17.286  0.00  0.00    +0.000 NA
ATOM      9  H   UNL     1       2.592   9.953  17.575  0.00  0.00    +0.000 HD
ENDROOT
BRANCH   4  10
ATOM     10  C   UNL     1       2.078   4.596  19.009  0.00  0.00    +0.000 A 
ATOM     11  C   UNL     1       1.889   4.497  20.401  0.00  0.00    +0.000 A 
ATOM     12  C   UNL     1       1.265   3.386  20.973  0.00  0.00    +0.000 A 
ATOM     13  C   UNL     1       0.809   2.347  20.166  0.00  0.00    +0.000 A 
ATOM     14  C   UNL     1       0.970   2.425  18.785  0.00  0.00    +0.000 A 
ATOM     15  C   UNL     1       1.595   3.539  18.216  0.00  0.00    +0.000 A 
ENDBRANCH   4  10
BRANCH   7  16
ATOM     16  N   UNL     1       0.992   9.446  18.788  0.00  0.00    +0.000 NA
ATOM     17  C   UNL     1       1.423  10.039  19.853  0.00  0.00    +0.000 C 
BRANCH  17  18
ATOM     18  C   UNL     1       0.512  10.339  20.978  0.00  0.00    +0.000 A 
ATOM     19  C   UNL     1       0.395   9.447  22.051  0.00  0.00    +0.000 A 
ATOM     20  C   UNL     1      -0.478   9.732  23.102  0.00  0.00    +0.000 A 
ATOM     21  C   UNL     1      -1.234  10.903  23.080  0.00  0.00    +0.000 A 
ATOM     22  C   UNL     1      -1.118  11.794  22.011  0.00  0.00    +0.000 A 
ATOM     23  C   UNL     1      -0.243  11.514  20.957  0.00  0.00    +0.000 A 
ENDBRANCH  17  18
ENDBRANCH   7  16
TORSDOF 3
ENDMDL
MODEL 9
REMARK VINA RESULT:      -7.6      2.530      7.320
REMARK  Name = 
REMARK  4 active torsions:
REMARK  status: ('A' for Active; 'I' for Inactive)
REMARK    1  A    between atoms: C_1  and  C_2
REMARK    2  A    between atoms: C_4  and  C_5
REMARK    3  A    between atoms: N_13  and  N_14
REMARK    4  A    between atoms: C_15  and  C_16
REMARK                            x       y       z     vdW  Elec       q    Type
REMARK                         _______ _______ _______ _____ _____    ______ ____
ROOT
ATOM      1  C   UNL     1       2.599   2.525  21.681  0.00  0.00    +0.000 C 
ATOM      2  C   UNL     1       2.871   3.374  20.475  0.00  0.00    +0.000 A 
ATOM      3  C   UNL     1       2.454   4.686  20.434  0.00  0.00    +0.000 A 
ATOM      4  C   UNL     1       2.754   5.401  19.291  0.00  0.00    +0.000 A 
ATOM      5  N   UNL     1       3.409   4.833  18.260  0.00  0.00    +0.000 NA
ATOM      6  C   UNL     1       3.788   3.549  18.373  0.00  0.00    +0.000 A 
ATOM      7  N   UNL     1       4.480   2.915  17.322  0.00  0.00    +0.000 N 
ATOM      8  N   UNL     1       3.538   2.793  19.457  0.00  0.00    +0.000 NA
ATOM      9  H   UNL     1       4.859   2.045  17.682  0.00  0.00    +0.000 HD
ENDROOT
BRANCH   4  10
ATOM     10  C   UNL     1       2.369   6.817  19.110  0.00  0.00    +0.000 A 
ATOM     11  C   UNL     1       1.761   7.563  20.138  0.00  0.00    +0.000 A 
ATOM     12  C   UNL     1       1.388   8.896  19.946  0.00  0.00    +0.000 A 
ATOM     13  C   UNL     1       1.619   9.518  18.722  0.00  0.00    +0.000 A 
ATOM     14  C   UNL     1       2.231   8.808  17.692  0.00  0.00    +0.000 A 
ATOM     15  C   UNL     1       2.603   7.474  17.887  0.00  0.00    +0.000 A 
ENDBRANCH   4  10
BRANCH   7  16
ATOM     16  N   UNL     1       5.221   3.697  16.487  0.00  0.00    +0.000 NA
ATOM     17  C   UNL     1       5.491   3.179  15.333  0.00  0.00    +0.000 C 
BRANCH  17  18
ATOM     18  C   UNL     1       6.283   3.923  14.332  0.00  0.00    +0.000 A 
ATOM     19  C   UNL     1       6.184   3.604  12.972  0.00  0.00    +0.000 A 
ATOM     20  C   UNL     1       6.946   4.302  12.035  0.00  0.00    +0.000 A 
ATOM     21  C   UNL     1       7.808   5.314  12.455  0.00  0.00    +0.000 A 
ATOM     22  C   UNL     1       7.908   5.634  13.811  0.00  0.00    +0.000 A 
ATOM     23  C   UNL     1       7.145   4.939  14.754  0.00  0.00    +0.000 A 
ENDBRANCH  17  18
ENDBRANCH   7  16
TORSDOF 3
ENDMDL
