MODEL 1
REMARK VINA RESULT:      -7.4      0.000      0.000
REMARK  Name = 
REMARK  17 active torsions:
REMARK  status: ('A' for Active; 'I' for Inactive)
REMARK    1  A    between atoms: C_1  and  C_2
REMARK    2  A    between atoms: C_6  and  N_7
REMARK    3  A    between atoms: C_8  and  C_10
REMARK    4  A    between atoms: C_10  and  S_11
REMARK    5  A    between atoms: S_11  and  C_12
REMARK    6  A    between atoms: C_15  and  C_16
REMARK    7  A    between atoms: C_16  and  C_17
REMARK    8  A    between atoms: C_17  and  C_18
REMARK    9  A    between atoms: C_18  and  C_19
REMARK   10  A    between atoms: C_19  and  C_20
REMARK   11  A    between atoms: C_20  and  N_21
REMARK   12  A    between atoms: C_22  and  O_24
REMARK   13  A    between atoms: O_24  and  C_25
REMARK   14  A    between atoms: C_25  and  C_26
REMARK   15  A    between atoms: C_25  and  C_27
REMARK   16  A    between atoms: C_25  and  C_28
REMARK   17  A    between atoms: C_30  and  C_31
REMARK                            x       y       z     vdW  Elec       q    Type
REMARK                         _______ _______ _______ _____ _____    ______ ____
ROOT
ATOM      1  C   UNL     1       1.724   7.758  20.055  0.00  0.00    +0.000 A 
ATOM      2  N   UNL     1       2.609   7.343  19.173  0.00  0.00    +0.000 NA
ATOM      3  N   UNL     1       2.837   6.008  19.441  0.00  0.00    +0.000 NA
ATOM      4  C   UNL     1       2.062   5.696  20.458  0.00  0.00    +0.000 A 
ATOM      5  O   UNL     1       1.336   6.763  20.915  0.00  0.00    +0.000 OA
ENDROOT
BRANCH   1   6
ATOM      6  S   UNL     1       0.969   9.321  20.053  0.00  0.00    +0.000 S 
BRANCH   6   7
ATOM      7  C   UNL     1      -0.192   9.150  21.440  0.00  0.00    +0.000 C 
BRANCH   7   9
ATOM      8  N   UNL     1      -0.766  11.505  21.853  0.00  0.00    +0.000 N 
ATOM      9  C   UNL     1      -0.286  10.337  22.392  0.00  0.00    +0.000 C 
ATOM     10  O   UNL     1       0.003  10.169  23.590  0.00  0.00    +0.000 OA
ATOM     11  H   UNL     1      -1.117  11.415  20.911  0.00  0.00    +0.000 HD
BRANCH   8  17
ATOM     12  C   UNL     1      -3.128  14.773  24.918  0.00  0.00    +0.000 C 
ATOM     13  C   UNL     1      -2.097  14.309  23.928  0.00  0.00    +0.000 A 
ATOM     14  C   UNL     1      -1.186  15.317  23.573  0.00  0.00    +0.000 A 
ATOM     15  C   UNL     1      -0.135  15.060  22.720  0.00  0.00    +0.000 A 
ATOM     16  C   UNL     1       0.019  13.789  22.186  0.00  0.00    +0.000 A 
ATOM     17  C   UNL     1      -0.900  12.762  22.461  0.00  0.00    +0.000 A 
ATOM     18  C   UNL     1      -1.986  13.016  23.333  0.00  0.00    +0.000 A 
ATOM     19  C   UNL     1      -2.996  11.899  23.519  0.00  0.00    +0.000 C 
ENDBRANCH   8  17
ENDBRANCH   7   9
ENDBRANCH   6   7
ENDBRANCH   1   6
BRANCH   4  20
ATOM     20  C   UNL     1       1.937   4.410  21.186  0.00  0.00    +0.000 C 
BRANCH  20  21
ATOM     21  C   UNL     1       1.065   3.355  20.496  0.00  0.00    +0.000 C 
BRANCH  21  22
ATOM     22  C   UNL     1       1.820   2.272  19.714  0.00  0.00    +0.000 C 
BRANCH  22  23
ATOM     23  C   UNL     1       2.152   2.696  18.250  0.00  0.00    +0.000 C 
BRANCH  23  24
ATOM     24  C   UNL     1       3.621   2.439  17.879  0.00  0.00    +0.000 C 
BRANCH  24  25
ATOM     25  N   UNL     1       4.686   3.283  18.388  0.00  0.00    +0.000 N 
ATOM     26  C   UNL     1       5.035   4.386  17.621  0.00  0.00    +0.000 C 
ATOM     27  O   UNL     1       4.726   4.510  16.445  0.00  0.00    +0.000 OA
ATOM     28  H   UNL     1       4.877   3.359  19.378  0.00  0.00    +0.000 HD
BRANCH  26  29
ATOM     29  O   UNL     1       5.689   5.327  18.357  0.00  0.00    +0.000 OA
BRANCH  29  30
ATOM     30  C   UNL     1       7.098   5.618  18.078  0.00  0.00    +0.000 C 
ATOM     31  C   UNL     1       7.315   6.925  17.293  0.00  0.00    +0.000 C 
ATOM     32  C   UNL     1       7.759   5.790  19.456  0.00  0.00    +0.000 C 
ATOM     33  C   UNL     1       7.769   4.432  17.375  0.00  0.00    +0.000 C 
ENDBRANCH  29  30
ENDBRANCH  26  29
ENDBRANCH  24  25
ENDBRANCH  23  24
ENDBRANCH  22  23
ENDBRANCH  21  22
ENDBRANCH  20  21
ENDBRANCH   4  20
TORSDOF 12
ENDMDL
MODEL 2
REMARK VINA RESULT:      -7.0      2.376     10.076
REMARK  Name = 
REMARK  17 active torsions:
REMARK  status: ('A' for Active; 'I' for Inactive)
REMARK    1  A    between atoms: C_1  and  C_2
REMARK    2  A    between atoms: C_6  and  N_7
REMARK    3  A    between atoms: C_8  and  C_10
REMARK    4  A    between atoms: C_10  and  S_11
REMARK    5  A    between atoms: S_11  and  C_12
REMARK    6  A    between atoms: C_15  and  C_16
REMARK    7  A    between atoms: C_16  and  C_17
REMARK    8  A    between atoms: C_17  and  C_18
REMARK    9  A    between atoms: C_18  and  C_19
REMARK   10  A    between atoms: C_19  and  C_20
REMARK   11  A    between atoms: C_20  and  N_21
REMARK   12  A    between atoms: C_22  and  O_24
REMARK   13  A    between atoms: O_24  and  C_25
REMARK   14  A    between atoms: C_25  and  C_26
REMARK   15  A    between atoms: C_25  and  C_27
REMARK   16  A    between atoms: C_25  and  C_28
REMARK   17  A    between atoms: C_30  and  C_31
REMARK                            x       y       z     vdW  Elec       q    Type
REMARK                         _______ _______ _______ _____ _____    ______ ____
ROOT
ATOM      1  C   UNL     1       1.508   3.846  19.845  0.00  0.00    +0.000 A 
ATOM      2  N   UNL     1       1.731   3.979  21.135  0.00  0.00    +0.000 NA
ATOM      3  N   UNL     1       2.052   5.306  21.344  0.00  0.00    +0.000 NA
ATOM      4  C   UNL     1       1.985   5.894  20.169  0.00  0.00    +0.000 A 
ATOM      5  O   UNL     1       1.661   5.026  19.162  0.00  0.00    +0.000 OA
ENDROOT
BRANCH   1   6
ATOM      6  S   UNL     1       0.907   2.409  19.078  0.00  0.00    +0.000 S 
BRANCH   6   7
ATOM      7  C   UNL     1       2.409   1.793  18.262  0.00  0.00    +0.000 C 
BRANCH   7   9
ATOM      8  N   UNL     1       4.476   2.972  17.646  0.00  0.00    +0.000 N 
ATOM      9  C   UNL     1       3.145   2.783  17.368  0.00  0.00    +0.000 C 
ATOM     10  O   UNL     1       2.534   3.301  16.415  0.00  0.00    +0.000 OA
ATOM     11  H   UNL     1       4.849   2.341  18.340  0.00  0.00    +0.000 HD
BRANCH   8  17
ATOM     12  C   UNL     1       7.542   7.003  17.741  0.00  0.00    +0.000 C 
ATOM     13  C   UNL     1       6.823   5.831  17.135  0.00  0.00    +0.000 A 
ATOM     14  C   UNL     1       7.107   5.660  15.770  0.00  0.00    +0.000 A 
ATOM     15  C   UNL     1       6.583   4.603  15.059  0.00  0.00    +0.000 A 
ATOM     16  C   UNL     1       5.745   3.698  15.695  0.00  0.00    +0.000 A 
ATOM     17  C   UNL     1       5.381   3.858  17.043  0.00  0.00    +0.000 A 
ATOM     18  C   UNL     1       5.910   4.943  17.781  0.00  0.00    +0.000 A 
ATOM     19  C   UNL     1       5.411   5.118  19.203  0.00  0.00    +0.000 C 
ENDBRANCH   8  17
ENDBRANCH   7   9
ENDBRANCH   6   7
ENDBRANCH   1   6
BRANCH   4  20
ATOM     20  C   UNL     1       2.276   7.302  19.803  0.00  0.00    +0.000 C 
BRANCH  20  21
ATOM     21  C   UNL     1       2.442   7.562  18.302  0.00  0.00    +0.000 C 
BRANCH  21  22
ATOM     22  C   UNL     1       2.175   8.999  17.839  0.00  0.00    +0.000 C 
BRANCH  22  23
ATOM     23  C   UNL     1       0.844   9.585  18.405  0.00  0.00    +0.000 C 
BRANCH  23  24
ATOM     24  C   UNL     1       0.979  11.055  18.832  0.00  0.00    +0.000 C 
BRANCH  24  25
ATOM     25  N   UNL     1      -0.072  11.723  19.577  0.00  0.00    +0.000 N 
ATOM     26  C   UNL     1       0.119  11.862  20.945  0.00  0.00    +0.000 C 
ATOM     27  O   UNL     1       0.938  11.212  21.578  0.00  0.00    +0.000 OA
ATOM     28  H   UNL     1      -0.674  12.411  19.146  0.00  0.00    +0.000 HD
BRANCH  26  29
ATOM     29  O   UNL     1      -0.657  12.853  21.466  0.00  0.00    +0.000 OA
BRANCH  29  30
ATOM     30  C   UNL     1      -0.159  14.231  21.488  0.00  0.00    +0.000 C 
ATOM     31  C   UNL     1      -0.831  15.148  20.448  0.00  0.00    +0.000 C 
ATOM     32  C   UNL     1      -0.516  14.772  22.883  0.00  0.00    +0.000 C 
ATOM     33  C   UNL     1       1.367  14.259  21.346  0.00  0.00    +0.000 C 
ENDBRANCH  29  30
ENDBRANCH  26  29
ENDBRANCH  24  25
ENDBRANCH  23  24
ENDBRANCH  22  23
ENDBRANCH  21  22
ENDBRANCH  20  21
ENDBRANCH   4  20
TORSDOF 12
ENDMDL
MODEL 3
REMARK VINA RESULT:      -7.0      2.722      3.351
REMARK  Name = 
REMARK  17 active torsions:
REMARK  status: ('A' for Active; 'I' for Inactive)
REMARK    1  A    between atoms: C_1  and  C_2
REMARK    2  A    between atoms: C_6  and  N_7
REMARK    3  A    between atoms: C_8  and  C_10
REMARK    4  A    between atoms: C_10  and  S_11
REMARK    5  A    between atoms: S_11  and  C_12
REMARK    6  A    between atoms: C_15  and  C_16
REMARK    7  A    between atoms: C_16  and  C_17
REMARK    8  A    between atoms: C_17  and  C_18
REMARK    9  A    between atoms: C_18  and  C_19
REMARK   10  A    between atoms: C_19  and  C_20
REMARK   11  A    between atoms: C_20  and  N_21
REMARK   12  A    between atoms: C_22  and  O_24
REMARK   13  A    between atoms: O_24  and  C_25
REMARK   14  A    between atoms: C_25  and  C_26
REMARK   15  A    between atoms: C_25  and  C_27
REMARK   16  A    between atoms: C_25  and  C_28
REMARK   17  A    between atoms: C_30  and  C_31
REMARK                            x       y       z     vdW  Elec       q    Type
REMARK                         _______ _______ _______ _____ _____    ______ ____
ROOT
ATOM      1  C   UNL     1       2.265   8.250  18.445  0.00  0.00    +0.000 A 
ATOM      2  N   UNL     1       2.376   7.330  17.511  0.00  0.00    +0.000 NA
ATOM      3  N   UNL     1       2.372   6.110  18.157  0.00  0.00    +0.000 NA
ATOM      4  C   UNL     1       2.244   6.370  19.440  0.00  0.00    +0.000 A 
ATOM      5  O   UNL     1       2.186   7.711  19.704  0.00  0.00    +0.000 OA
ENDROOT
BRANCH   1   6
ATOM      6  S   UNL     1       2.054   9.949  18.155  0.00  0.00    +0.000 S 
BRANCH   6   7
ATOM      7  C   UNL     1       1.236  10.467  19.692  0.00  0.00    +0.000 C 
BRANCH   7   9
ATOM      8  N   UNL     1      -0.963  11.057  18.763  0.00  0.00    +0.000 N 
ATOM      9  C   UNL     1      -0.283  10.347  19.721  0.00  0.00    +0.000 C 
ATOM     10  O   UNL     1      -0.809   9.578  20.547  0.00  0.00    +0.000 OA
ATOM     11  H   UNL     1      -0.371  11.487  18.067  0.00  0.00    +0.000 HD
BRANCH   8  17
ATOM     12  C   UNL     1      -5.434  13.180  19.836  0.00  0.00    +0.000 C 
ATOM     13  C   UNL     1      -4.485  12.227  19.166  0.00  0.00    +0.000 A 
ATOM     14  C   UNL     1      -5.126  11.352  18.273  0.00  0.00    +0.000 A 
ATOM     15  C   UNL     1      -4.410  10.445  17.524  0.00  0.00    +0.000 A 
ATOM     16  C   UNL     1      -3.030  10.380  17.664  0.00  0.00    +0.000 A 
ATOM     17  C   UNL     1      -2.347  11.191  18.586  0.00  0.00    +0.000 A 
ATOM     18  C   UNL     1      -3.075  12.123  19.364  0.00  0.00    +0.000 A 
ATOM     19  C   UNL     1      -2.299  12.904  20.409  0.00  0.00    +0.000 C 
ENDBRANCH   8  17
ENDBRANCH   7   9
ENDBRANCH   6   7
ENDBRANCH   1   6
BRANCH   4  20
ATOM     20  C   UNL     1       2.227   5.436  20.593  0.00  0.00    +0.000 C 
BRANCH  20  21
ATOM     21  C   UNL     1       1.164   4.334  20.521  0.00  0.00    +0.000 C 
BRANCH  21  22
ATOM     22  C   UNL     1       1.494   3.146  19.609  0.00  0.00    +0.000 C 
BRANCH  22  23
ATOM     23  C   UNL     1       2.598   2.214  20.197  0.00  0.00    +0.000 C 
BRANCH  23  24
ATOM     24  C   UNL     1       3.857   2.160  19.318  0.00  0.00    +0.000 C 
BRANCH  24  25
ATOM     25  N   UNL     1       4.939   3.112  19.493  0.00  0.00    +0.000 N 
ATOM     26  C   UNL     1       5.110   4.059  18.493  0.00  0.00    +0.000 C 
ATOM     27  O   UNL     1       4.623   3.953  17.377  0.00  0.00    +0.000 OA
ATOM     28  H   UNL     1       5.271   3.377  20.410  0.00  0.00    +0.000 HD
BRANCH  26  29
ATOM     29  O   UNL     1       5.814   5.138  18.934  0.00  0.00    +0.000 OA
BRANCH  29  30
ATOM     30  C   UNL     1       6.955   5.629  18.156  0.00  0.00    +0.000 C 
ATOM     31  C   UNL     1       6.619   6.836  17.260  0.00  0.00    +0.000 C 
ATOM     32  C   UNL     1       7.987   6.097  19.195  0.00  0.00    +0.000 C 
ATOM     33  C   UNL     1       7.585   4.494  17.340  0.00  0.00    +0.000 C 
ENDBRANCH  29  30
ENDBRANCH  26  29
ENDBRANCH  24  25
ENDBRANCH  23  24
ENDBRANCH  22  23
ENDBRANCH  21  22
ENDBRANCH  20  21
ENDBRANCH   4  20
TORSDOF 12
ENDMDL
MODEL 4
REMARK VINA RESULT:      -7.0      3.460      4.977
REMARK  Name = 
REMARK  17 active torsions:
REMARK  status: ('A' for Active; 'I' for Inactive)
REMARK    1  A    between atoms: C_1  and  C_2
REMARK    2  A    between atoms: C_6  and  N_7
REMARK    3  A    between atoms: C_8  and  C_10
REMARK    4  A    between atoms: C_10  and  S_11
REMARK    5  A    between atoms: S_11  and  C_12
REMARK    6  A    between atoms: C_15  and  C_16
REMARK    7  A    between atoms: C_16  and  C_17
REMARK    8  A    between atoms: C_17  and  C_18
REMARK    9  A    between atoms: C_18  and  C_19
REMARK   10  A    between atoms: C_19  and  C_20
REMARK   11  A    between atoms: C_20  and  N_21
REMARK   12  A    between atoms: C_22  and  O_24
REMARK   13  A    between atoms: O_24  and  C_25
REMARK   14  A    between atoms: C_25  and  C_26
REMARK   15  A    between atoms: C_25  and  C_27
REMARK   16  A    between atoms: C_25  and  C_28
REMARK   17  A    between atoms: C_30  and  C_31
REMARK                            x       y       z     vdW  Elec       q    Type
REMARK                         _______ _______ _______ _____ _____    ______ ____
ROOT
ATOM      1  C   UNL     1       1.256  10.441  19.196  0.00  0.00    +0.000 A 
ATOM      2  N   UNL     1       1.906  10.865  18.134  0.00  0.00    +0.000 NA
ATOM      3  N   UNL     1       2.368   9.740  17.480  0.00  0.00    +0.000 NA
ATOM      4  C   UNL     1       1.954   8.707  18.181  0.00  0.00    +0.000 A 
ATOM      5  O   UNL     1       1.253   9.073  19.298  0.00  0.00    +0.000 OA
ENDROOT
BRANCH   1   6
ATOM      6  S   UNL     1       0.336  11.447  20.271  0.00  0.00    +0.000 S 
BRANCH   6   7
ATOM      7  C   UNL     1      -0.775  12.284  19.102  0.00  0.00    +0.000 C 
BRANCH   7   9
ATOM      8  N   UNL     1      -3.219  12.502  19.254  0.00  0.00    +0.000 N 
ATOM      9  C   UNL     1      -2.165  11.680  18.942  0.00  0.00    +0.000 C 
ATOM     10  O   UNL     1      -2.270  10.528  18.483  0.00  0.00    +0.000 OA
ATOM     11  H   UNL     1      -2.959  13.459  19.442  0.00  0.00    +0.000 HD
BRANCH   8  17
ATOM     12  C   UNL     1      -7.702  12.115  21.581  0.00  0.00    +0.000 C 
ATOM     13  C   UNL     1      -6.723  12.006  20.446  0.00  0.00    +0.000 A 
ATOM     14  C   UNL     1      -7.302  11.504  19.269  0.00  0.00    +0.000 A 
ATOM     15  C   UNL     1      -6.571  11.388  18.107  0.00  0.00    +0.000 A 
ATOM     16  C   UNL     1      -5.233  11.755  18.101  0.00  0.00    +0.000 A 
ATOM     17  C   UNL     1      -4.590  12.205  19.267  0.00  0.00    +0.000 A 
ATOM     18  C   UNL     1      -5.331  12.324  20.467  0.00  0.00    +0.000 A 
ATOM     19  C   UNL     1      -4.564  12.725  21.713  0.00  0.00    +0.000 C 
ENDBRANCH   8  17
ENDBRANCH   7   9
ENDBRANCH   6   7
ENDBRANCH   1   6
BRANCH   4  20
ATOM     20  C   UNL     1       2.202   7.260  17.963  0.00  0.00    +0.000 C 
BRANCH  20  21
ATOM     21  C   UNL     1       3.655   6.814  18.158  0.00  0.00    +0.000 C 
BRANCH  21  22
ATOM     22  C   UNL     1       4.375   6.316  16.899  0.00  0.00    +0.000 C 
BRANCH  22  23
ATOM     23  C   UNL     1       5.399   5.175  17.192  0.00  0.00    +0.000 C 
BRANCH  23  24
ATOM     24  C   UNL     1       4.876   3.790  16.781  0.00  0.00    +0.000 C 
BRANCH  24  25
ATOM     25  N   UNL     1       4.157   2.947  17.719  0.00  0.00    +0.000 N 
ATOM     26  C   UNL     1       4.408   3.154  19.069  0.00  0.00    +0.000 C 
ATOM     27  O   UNL     1       5.382   3.764  19.485  0.00  0.00    +0.000 OA
ATOM     28  H   UNL     1       3.254   2.553  17.496  0.00  0.00    +0.000 HD
BRANCH  26  29
ATOM     29  O   UNL     1       3.406   2.664  19.850  0.00  0.00    +0.000 OA
BRANCH  29  30
ATOM     30  C   UNL     1       2.189   3.455  20.052  0.00  0.00    +0.000 C 
ATOM     31  C   UNL     1       1.386   3.696  18.760  0.00  0.00    +0.000 C 
ATOM     32  C   UNL     1       1.309   2.616  20.994  0.00  0.00    +0.000 C 
ATOM     33  C   UNL     1       2.512   4.777  20.758  0.00  0.00    +0.000 C 
ENDBRANCH  29  30
ENDBRANCH  26  29
ENDBRANCH  24  25
ENDBRANCH  23  24
ENDBRANCH  22  23
ENDBRANCH  21  22
ENDBRANCH  20  21
ENDBRANCH   4  20
TORSDOF 12
ENDMDL
MODEL 5
REMARK VINA RESULT:      -6.9      2.695      3.554
REMARK  Name = 
REMARK  17 active torsions:
REMARK  status: ('A' for Active; 'I' for Inactive)
REMARK    1  A    between atoms: C_1  and  C_2
REMARK    2  A    between atoms: C_6  and  N_7
REMARK    3  A    between atoms: C_8  and  C_10
REMARK    4  A    between atoms: C_10  and  S_11
REMARK    5  A    between atoms: S_11  and  C_12
REMARK    6  A    between atoms: C_15  and  C_16
REMARK    7  A    between atoms: C_16  and  C_17
REMARK    8  A    between atoms: C_17  and  C_18
REMARK    9  A    between atoms: C_18  and  C_19
REMARK   10  A    between atoms: C_19  and  C_20
REMARK   11  A    between atoms: C_20  and  N_21
REMARK   12  A    between atoms: C_22  and  O_24
REMARK   13  A    between atoms: O_24  and  C_25
REMARK   14  A    between atoms: C_25  and  C_26
REMARK   15  A    between atoms: C_25  and  C_27
REMARK   16  A    between atoms: C_25  and  C_28
REMARK   17  A    between atoms: C_30  and  C_31
REMARK                            x       y       z     vdW  Elec       q    Type
REMARK                         _______ _______ _______ _____ _____    ______ ____
ROOT
ATOM      1  C   UNL     1       1.152   8.172  21.028  0.00  0.00    +0.000 A 
ATOM      2  N   UNL     1       2.040   8.285  20.064  0.00  0.00    +0.000 NA
ATOM      3  N   UNL     1       2.314   7.004  19.629  0.00  0.00    +0.000 NA
ATOM      4  C   UNL     1       1.561   6.199  20.347  0.00  0.00    +0.000 A 
ATOM      5  O   UNL     1       0.806   6.868  21.272  0.00  0.00    +0.000 OA
ENDROOT
BRANCH   1   6
ATOM      6  S   UNL     1       0.345   9.500  21.805  0.00  0.00    +0.000 S 
BRANCH   6   7
ATOM      7  C   UNL     1       0.065  10.611  20.395  0.00  0.00    +0.000 C 
BRANCH   7   9
ATOM      8  N   UNL     1       0.965  12.533  19.154  0.00  0.00    +0.000 N 
ATOM      9  C   UNL     1       0.907  11.882  20.361  0.00  0.00    +0.000 C 
ATOM     10  O   UNL     1       1.426  12.287  21.417  0.00  0.00    +0.000 OA
ATOM     11  H   UNL     1       0.343  12.161  18.450  0.00  0.00    +0.000 HD
BRANCH   8  17
ATOM     12  C   UNL     1       1.467  17.538  18.554  0.00  0.00    +0.000 C 
ATOM     13  C   UNL     1       1.881  16.094  18.505  0.00  0.00    +0.000 A 
ATOM     14  C   UNL     1       3.182  15.915  18.008  0.00  0.00    +0.000 A 
ATOM     15  C   UNL     1       3.756  14.664  17.943  0.00  0.00    +0.000 A 
ATOM     16  C   UNL     1       3.030  13.556  18.359  0.00  0.00    +0.000 A 
ATOM     17  C   UNL     1       1.703  13.674  18.807  0.00  0.00    +0.000 A 
ATOM     18  C   UNL     1       1.104  14.954  18.873  0.00  0.00    +0.000 A 
ATOM     19  C   UNL     1      -0.358  15.011  19.275  0.00  0.00    +0.000 C 
ENDBRANCH   8  17
ENDBRANCH   7   9
ENDBRANCH   6   7
ENDBRANCH   1   6
BRANCH   4  20
ATOM     20  C   UNL     1       1.487   4.717  20.332  0.00  0.00    +0.000 C 
BRANCH  20  21
ATOM     21  C   UNL     1       2.284   4.016  21.437  0.00  0.00    +0.000 C 
BRANCH  21  22
ATOM     22  C   UNL     1       2.934   2.682  21.048  0.00  0.00    +0.000 C 
BRANCH  22  23
ATOM     23  C   UNL     1       2.485   2.171  19.644  0.00  0.00    +0.000 C 
BRANCH  23  24
ATOM     24  C   UNL     1       3.573   2.346  18.574  0.00  0.00    +0.000 C 
BRANCH  24  25
ATOM     25  N   UNL     1       4.708   3.226  18.789  0.00  0.00    +0.000 N 
ATOM     26  C   UNL     1       4.673   4.461  18.158  0.00  0.00    +0.000 C 
ATOM     27  O   UNL     1       3.924   4.718  17.226  0.00  0.00    +0.000 OA
ATOM     28  H   UNL     1       5.264   3.179  19.632  0.00  0.00    +0.000 HD
BRANCH  26  29
ATOM     29  O   UNL     1       5.511   5.356  18.751  0.00  0.00    +0.000 OA
BRANCH  29  30
ATOM     30  C   UNL     1       6.823   5.626  18.156  0.00  0.00    +0.000 C 
ATOM     31  C   UNL     1       7.267   4.567  17.130  0.00  0.00    +0.000 C 
ATOM     32  C   UNL     1       6.665   6.960  17.407  0.00  0.00    +0.000 C 
ATOM     33  C   UNL     1       7.884   5.818  19.247  0.00  0.00    +0.000 C 
ENDBRANCH  29  30
ENDBRANCH  26  29
ENDBRANCH  24  25
ENDBRANCH  23  24
ENDBRANCH  22  23
ENDBRANCH  21  22
ENDBRANCH  20  21
ENDBRANCH   4  20
TORSDOF 12
ENDMDL
MODEL 6
REMARK VINA RESULT:      -6.9      3.555      4.967
REMARK  Name = 
REMARK  17 active torsions:
REMARK  status: ('A' for Active; 'I' for Inactive)
REMARK    1  A    between atoms: C_1  and  C_2
REMARK    2  A    between atoms: C_6  and  N_7
REMARK    3  A    between atoms: C_8  and  C_10
REMARK    4  A    between atoms: C_10  and  S_11
REMARK    5  A    between atoms: S_11  and  C_12
REMARK    6  A    between atoms: C_15  and  C_16
REMARK    7  A    between atoms: C_16  and  C_17
REMARK    8  A    between atoms: C_17  and  C_18
REMARK    9  A    between atoms: C_18  and  C_19
REMARK   10  A    between atoms: C_19  and  C_20
REMARK   11  A    between atoms: C_20  and  N_21
REMARK   12  A    between atoms: C_22  and  O_24
REMARK   13  A    between atoms: O_24  and  C_25
REMARK   14  A    between atoms: C_25  and  C_26
REMARK   15  A    between atoms: C_25  and  C_27
REMARK   16  A    between atoms: C_25  and  C_28
REMARK   17  A    between atoms: C_30  and  C_31
REMARK                            x       y       z     vdW  Elec       q    Type
REMARK                         _______ _______ _______ _____ _____    ______ ____
ROOT
ATOM      1  C   UNL     1       1.221   9.423  19.227  0.00  0.00    +0.000 A 
ATOM      2  N   UNL     1       1.522  10.059  18.115  0.00  0.00    +0.000 NA
ATOM      3  N   UNL     1       2.390   9.244  17.416  0.00  0.00    +0.000 NA
ATOM      4  C   UNL     1       2.546   8.158  18.144  0.00  0.00    +0.000 A 
ATOM      5  O   UNL     1       1.846   8.206  19.319  0.00  0.00    +0.000 OA
ENDROOT
BRANCH   1   6
ATOM      6  S   UNL     1       0.033   9.939  20.384  0.00  0.00    +0.000 S 
BRANCH   6   7
ATOM      7  C   UNL     1      -0.123  11.700  19.962  0.00  0.00    +0.000 C 
BRANCH   7   9
ATOM      8  N   UNL     1      -2.542  11.794  19.534  0.00  0.00    +0.000 N 
ATOM      9  C   UNL     1      -1.287  12.076  19.054  0.00  0.00    +0.000 C 
ATOM     10  O   UNL     1      -1.048  12.665  17.984  0.00  0.00    +0.000 OA
ATOM     11  H   UNL     1      -2.558  11.476  20.493  0.00  0.00    +0.000 HD
BRANCH   8  17
ATOM     12  C   UNL     1      -7.369  13.325  19.472  0.00  0.00    +0.000 C 
ATOM     13  C   UNL     1      -6.116  12.692  18.937  0.00  0.00    +0.000 A 
ATOM     14  C   UNL     1      -6.269  12.191  17.634  0.00  0.00    +0.000 A 
ATOM     15  C   UNL     1      -5.211  11.626  16.957  0.00  0.00    +0.000 A 
ATOM     16  C   UNL     1      -3.973  11.533  17.578  0.00  0.00    +0.000 A 
ATOM     17  C   UNL     1      -3.782  11.964  18.902  0.00  0.00    +0.000 A 
ATOM     18  C   UNL     1      -4.865  12.542  19.607  0.00  0.00    +0.000 A 
ATOM     19  C   UNL     1      -4.626  12.903  21.062  0.00  0.00    +0.000 C 
ENDBRANCH   8  17
ENDBRANCH   7   9
ENDBRANCH   6   7
ENDBRANCH   1   6
BRANCH   4  20
ATOM     20  C   UNL     1       3.404   6.974  17.896  0.00  0.00    +0.000 C 
BRANCH  20  21
ATOM     21  C   UNL     1       4.520   7.185  16.867  0.00  0.00    +0.000 C 
BRANCH  21  22
ATOM     22  C   UNL     1       5.008   5.924  16.142  0.00  0.00    +0.000 C 
BRANCH  22  23
ATOM     23  C   UNL     1       6.505   5.594  16.433  0.00  0.00    +0.000 C 
BRANCH  23  24
ATOM     24  C   UNL     1       6.712   4.950  17.812  0.00  0.00    +0.000 C 
BRANCH  24  25
ATOM     25  N   UNL     1       5.963   3.773  18.215  0.00  0.00    +0.000 N 
ATOM     26  C   UNL     1       4.982   3.954  19.181  0.00  0.00    +0.000 C 
ATOM     27  O   UNL     1       4.925   4.938  19.903  0.00  0.00    +0.000 OA
ATOM     28  H   UNL     1       5.824   2.992  17.589  0.00  0.00    +0.000 HD
BRANCH  26  29
ATOM     29  O   UNL     1       4.066   2.946  19.166  0.00  0.00    +0.000 OA
BRANCH  29  30
ATOM     30  C   UNL     1       2.654   3.250  18.924  0.00  0.00    +0.000 C 
ATOM     31  C   UNL     1       2.358   3.707  17.482  0.00  0.00    +0.000 C 
ATOM     32  C   UNL     1       1.905   1.926  19.152  0.00  0.00    +0.000 C 
ATOM     33  C   UNL     1       2.135   4.270  19.944  0.00  0.00    +0.000 C 
ENDBRANCH  29  30
ENDBRANCH  26  29
ENDBRANCH  24  25
ENDBRANCH  23  24
ENDBRANCH  22  23
ENDBRANCH  21  22
ENDBRANCH  20  21
ENDBRANCH   4  20
TORSDOF 12
ENDMDL
MODEL 7
REMARK VINA RESULT:      -6.8      3.371      9.891
REMARK  Name = 
REMARK  17 active torsions:
REMARK  status: ('A' for Active; 'I' for Inactive)
REMARK    1  A    between atoms: C_1  and  C_2
REMARK    2  A    between atoms: C_6  and  N_7
REMARK    3  A    between atoms: C_8  and  C_10
REMARK    4  A    between atoms: C_10  and  S_11
REMARK    5  A    between atoms: S_11  and  C_12
REMARK    6  A    between atoms: C_15  and  C_16
REMARK    7  A    between atoms: C_16  and  C_17
REMARK    8  A    between atoms: C_17  and  C_18
REMARK    9  A    between atoms: C_18  and  C_19
REMARK   10  A    between atoms: C_19  and  C_20
REMARK   11  A    between atoms: C_20  and  N_21
REMARK   12  A    between atoms: C_22  and  O_24
REMARK   13  A    between atoms: O_24  and  C_25
REMARK   14  A    between atoms: C_25  and  C_26
REMARK   15  A    between atoms: C_25  and  C_27
REMARK   16  A    between atoms: C_25  and  C_28
REMARK   17  A    between atoms: C_30  and  C_31
REMARK                            x       y       z     vdW  Elec       q    Type
REMARK                         _______ _______ _______ _____ _____    ______ ____
ROOT
ATOM      1  C   UNL     1       1.743   4.226  19.864  0.00  0.00    +0.000 A 
ATOM      2  N   UNL     1       1.962   4.839  21.008  0.00  0.00    +0.000 NA
ATOM      3  N   UNL     1       2.254   6.153  20.701  0.00  0.00    +0.000 NA
ATOM      4  C   UNL     1       2.177   6.254  19.391  0.00  0.00    +0.000 A 
ATOM      5  O   UNL     1       1.872   5.064  18.787  0.00  0.00    +0.000 OA
ENDROOT
BRANCH   1   6
ATOM      6  S   UNL     1       1.172   2.594  19.699  0.00  0.00    +0.000 S 
BRANCH   6   7
ATOM      7  C   UNL     1       2.528   1.843  18.752  0.00  0.00    +0.000 C 
BRANCH   7   9
ATOM      8  N   UNL     1       4.483   3.104  17.956  0.00  0.00    +0.000 N 
ATOM      9  C   UNL     1       3.188   2.728  17.701  0.00  0.00    +0.000 C 
ATOM     10  O   UNL     1       2.557   2.998  16.662  0.00  0.00    +0.000 OA
ATOM     11  H   UNL     1       4.897   2.651  18.758  0.00  0.00    +0.000 HD
BRANCH   8  17
ATOM     12  C   UNL     1       7.511   7.139  17.503  0.00  0.00    +0.000 C 
ATOM     13  C   UNL     1       6.741   5.934  17.042  0.00  0.00    +0.000 A 
ATOM     14  C   UNL     1       6.878   5.690  15.666  0.00  0.00    +0.000 A 
ATOM     15  C   UNL     1       6.289   4.594  15.073  0.00  0.00    +0.000 A 
ATOM     16  C   UNL     1       5.531   3.724  15.844  0.00  0.00    +0.000 A 
ATOM     17  C   UNL     1       5.312   3.956  17.212  0.00  0.00    +0.000 A 
ATOM     18  C   UNL     1       5.909   5.081  17.830  0.00  0.00    +0.000 A 
ATOM     19  C   UNL     1       5.563   5.333  19.286  0.00  0.00    +0.000 C 
ENDBRANCH   8  17
ENDBRANCH   7   9
ENDBRANCH   6   7
ENDBRANCH   1   6
BRANCH   4  20
ATOM     20  C   UNL     1       2.440   7.426  18.520  0.00  0.00    +0.000 C 
BRANCH  20  21
ATOM     21  C   UNL     1       1.845   8.749  19.016  0.00  0.00    +0.000 C 
BRANCH  21  22
ATOM     22  C   UNL     1       1.268   9.669  17.933  0.00  0.00    +0.000 C 
BRANCH  22  23
ATOM     23  C   UNL     1      -0.265   9.914  18.094  0.00  0.00    +0.000 C 
BRANCH  23  24
ATOM     24  C   UNL     1      -0.586  10.971  19.161  0.00  0.00    +0.000 C 
BRANCH  24  25
ATOM     25  N   UNL     1       0.400  11.956  19.568  0.00  0.00    +0.000 N 
ATOM     26  C   UNL     1       0.264  13.234  19.042  0.00  0.00    +0.000 C 
ATOM     27  O   UNL     1      -0.422  13.488  18.063  0.00  0.00    +0.000 OA
ATOM     28  H   UNL     1       0.877  11.896  20.456  0.00  0.00    +0.000 HD
BRANCH  26  29
ATOM     29  O   UNL     1       0.921  14.161  19.793  0.00  0.00    +0.000 OA
BRANCH  29  30
ATOM     30  C   UNL     1       2.131  14.798  19.266  0.00  0.00    +0.000 C 
ATOM     31  C   UNL     1       1.861  16.123  18.527  0.00  0.00    +0.000 C 
ATOM     32  C   UNL     1       2.993  15.121  20.498  0.00  0.00    +0.000 C 
ATOM     33  C   UNL     1       2.917  13.823  18.381  0.00  0.00    +0.000 C 
ENDBRANCH  29  30
ENDBRANCH  26  29
ENDBRANCH  24  25
ENDBRANCH  23  24
ENDBRANCH  22  23
ENDBRANCH  21  22
ENDBRANCH  20  21
ENDBRANCH   4  20
TORSDOF 12
ENDMDL
MODEL 8
REMARK VINA RESULT:      -6.8      5.736     10.672
REMARK  Name = 
REMARK  17 active torsions:
REMARK  status: ('A' for Active; 'I' for Inactive)
REMARK    1  A    between atoms: C_1  and  C_2
REMARK    2  A    between atoms: C_6  and  N_7
REMARK    3  A    between atoms: C_8  and  C_10
REMARK    4  A    between atoms: C_10  and  S_11
REMARK    5  A    between atoms: S_11  and  C_12
REMARK    6  A    between atoms: C_15  and  C_16
REMARK    7  A    between atoms: C_16  and  C_17
REMARK    8  A    between atoms: C_17  and  C_18
REMARK    9  A    between atoms: C_18  and  C_19
REMARK   10  A    between atoms: C_19  and  C_20
REMARK   11  A    between atoms: C_20  and  N_21
REMARK   12  A    between atoms: C_22  and  O_24
REMARK   13  A    between atoms: O_24  and  C_25
REMARK   14  A    between atoms: C_25  and  C_26
REMARK   15  A    between atoms: C_25  and  C_27
REMARK   16  A    between atoms: C_25  and  C_28
REMARK   17  A    between atoms: C_30  and  C_31
REMARK                            x       y       z     vdW  Elec       q    Type
REMARK                         _______ _______ _______ _____ _____    ______ ____
ROOT
ATOM      1  C   UNL     1       7.595   6.407  17.674  0.00  0.00    +0.000 A 
ATOM      2  N   UNL     1       7.073   7.223  16.783  0.00  0.00    +0.000 NA
ATOM      3  N   UNL     1       7.479   8.496  17.129  0.00  0.00    +0.000 NA
ATOM      4  C   UNL     1       8.236   8.367  18.198  0.00  0.00    +0.000 A 
ATOM      5  O   UNL     1       8.343   7.068  18.615  0.00  0.00    +0.000 OA
ENDROOT
BRANCH   1   6
ATOM      6  S   UNL     1       7.528   4.674  17.601  0.00  0.00    +0.000 S 
BRANCH   6   7
ATOM      7  C   UNL     1       6.083   4.424  16.529  0.00  0.00    +0.000 C 
BRANCH   7   9
ATOM      8  N   UNL     1       4.268   3.487  17.897  0.00  0.00    +0.000 N 
ATOM      9  C   UNL     1       4.718   4.574  17.191  0.00  0.00    +0.000 C 
ATOM     10  O   UNL     1       4.132   5.669  17.115  0.00  0.00    +0.000 OA
ATOM     11  H   UNL     1       4.948   2.747  17.999  0.00  0.00    +0.000 HD
BRANCH   8  17
ATOM     12  C   UNL     1       1.468   2.333  21.957  0.00  0.00    +0.000 C 
ATOM     13  C   UNL     1       1.734   2.714  20.528  0.00  0.00    +0.000 A 
ATOM     14  C   UNL     1       0.559   2.873  19.776  0.00  0.00    +0.000 A 
ATOM     15  C   UNL     1       0.603   3.277  18.460  0.00  0.00    +0.000 A 
ATOM     16  C   UNL     1       1.831   3.514  17.857  0.00  0.00    +0.000 A 
ATOM     17  C   UNL     1       3.038   3.311  18.547  0.00  0.00    +0.000 A 
ATOM     18  C   UNL     1       3.003   2.892  19.899  0.00  0.00    +0.000 A 
ATOM     19  C   UNL     1       4.335   2.599  20.564  0.00  0.00    +0.000 C 
ENDBRANCH   8  17
ENDBRANCH   7   9
ENDBRANCH   6   7
ENDBRANCH   1   6
BRANCH   4  20
ATOM     20  C   UNL     1       8.898   9.414  19.015  0.00  0.00    +0.000 C 
BRANCH  20  21
ATOM     21  C   UNL     1       9.229  10.709  18.267  0.00  0.00    +0.000 C 
BRANCH  21  22
ATOM     22  C   UNL     1       9.853  11.827  19.110  0.00  0.00    +0.000 C 
BRANCH  22  23
ATOM     23  C   UNL     1       9.907  11.486  20.632  0.00  0.00    +0.000 C 
BRANCH  23  24
ATOM     24  C   UNL     1       9.778  12.732  21.523  0.00  0.00    +0.000 C 
BRANCH  24  25
ATOM     25  N   UNL     1       8.481  13.211  21.965  0.00  0.00    +0.000 N 
ATOM     26  C   UNL     1       8.118  12.922  23.274  0.00  0.00    +0.000 C 
ATOM     27  O   UNL     1       8.666  12.062  23.948  0.00  0.00    +0.000 OA
ATOM     28  H   UNL     1       8.051  14.032  21.562  0.00  0.00    +0.000 HD
BRANCH  26  29
ATOM     29  O   UNL     1       7.141  13.757  23.724  0.00  0.00    +0.000 OA
BRANCH  29  30
ATOM     30  C   UNL     1       7.438  14.712  24.795  0.00  0.00    +0.000 C 
ATOM     31  C   UNL     1       8.860  15.300  24.722  0.00  0.00    +0.000 C 
ATOM     32  C   UNL     1       6.447  15.871  24.596  0.00  0.00    +0.000 C 
ATOM     33  C   UNL     1       7.168  14.088  26.169  0.00  0.00    +0.000 C 
ENDBRANCH  29  30
ENDBRANCH  26  29
ENDBRANCH  24  25
ENDBRANCH  23  24
ENDBRANCH  22  23
ENDBRANCH  21  22
ENDBRANCH  20  21
ENDBRANCH   4  20
TORSDOF 12
ENDMDL
MODEL 9
REMARK VINA RESULT:      -6.8      2.209      4.138
REMARK  Name = 
REMARK  17 active torsions:
REMARK  status: ('A' for Active; 'I' for Inactive)
REMARK    1  A    between atoms: C_1  and  C_2
REMARK    2  A    between atoms: C_6  and  N_7
REMARK    3  A    between atoms: C_8  and  C_10
REMARK    4  A    between atoms: C_10  and  S_11
REMARK    5  A    between atoms: S_11  and  C_12
REMARK    6  A    between atoms: C_15  and  C_16
REMARK    7  A    between atoms: C_16  and  C_17
REMARK    8  A    between atoms: C_17  and  C_18
REMARK    9  A    between atoms: C_18  and  C_19
REMARK   10  A    between atoms: C_19  and  C_20
REMARK   11  A    between atoms: C_20  and  N_21
REMARK   12  A    between atoms: C_22  and  O_24
REMARK   13  A    between atoms: O_24  and  C_25
REMARK   14  A    between atoms: C_25  and  C_26
REMARK   15  A    between atoms: C_25  and  C_27
REMARK   16  A    between atoms: C_25  and  C_28
REMARK   17  A    between atoms: C_30  and  C_31
REMARK                            x       y       z     vdW  Elec       q    Type
REMARK                         _______ _______ _______ _____ _____    ______ ____
ROOT
ATOM      1  C   UNL     1       1.235   9.263  19.404  0.00  0.00    +0.000 A 
ATOM      2  N   UNL     1       1.339   9.976  18.303  0.00  0.00    +0.000 NA
ATOM      3  N   UNL     1       2.169   9.270  17.455  0.00  0.00    +0.000 NA
ATOM      4  C   UNL     1       2.500   8.167  18.092  0.00  0.00    +0.000 A 
ATOM      5  O   UNL     1       1.957   8.099  19.346  0.00  0.00    +0.000 OA
ENDROOT
BRANCH   1   6
ATOM      6  S   UNL     1       0.171   9.622  20.730  0.00  0.00    +0.000 S 
BRANCH   6   7
ATOM      7  C   UNL     1       0.633  11.342  21.092  0.00  0.00    +0.000 C 
BRANCH   7   9
ATOM      8  N   UNL     1      -1.668  11.638  21.906  0.00  0.00    +0.000 N 
ATOM      9  C   UNL     1      -0.410  12.181  21.820  0.00  0.00    +0.000 C 
ATOM     10  O   UNL     1      -0.058  13.254  22.343  0.00  0.00    +0.000 OA
ATOM     11  H   UNL     1      -1.732  10.684  21.580  0.00  0.00    +0.000 HD
BRANCH   8  17
ATOM     12  C   UNL     1      -6.143  13.973  21.482  0.00  0.00    +0.000 C 
ATOM     13  C   UNL     1      -4.971  13.356  22.192  0.00  0.00    +0.000 A 
ATOM     14  C   UNL     1      -5.091  13.402  23.590  0.00  0.00    +0.000 A 
ATOM     15  C   UNL     1      -4.138  12.834  24.408  0.00  0.00    +0.000 A 
ATOM     16  C   UNL     1      -3.030  12.220  23.842  0.00  0.00    +0.000 A 
ATOM     17  C   UNL     1      -2.831  12.200  22.452  0.00  0.00    +0.000 A 
ATOM     18  C   UNL     1      -3.802  12.785  21.603  0.00  0.00    +0.000 A 
ATOM     19  C   UNL     1      -3.490  12.817  20.119  0.00  0.00    +0.000 C 
ENDBRANCH   8  17
ENDBRANCH   7   9
ENDBRANCH   6   7
ENDBRANCH   1   6
BRANCH   4  20
ATOM     20  C   UNL     1       3.406   7.072  17.668  0.00  0.00    +0.000 C 
BRANCH  20  21
ATOM     21  C   UNL     1       4.791   7.523  17.190  0.00  0.00    +0.000 C 
BRANCH  21  22
ATOM     22  C   UNL     1       5.581   6.497  16.368  0.00  0.00    +0.000 C 
BRANCH  22  23
ATOM     23  C   UNL     1       4.811   5.155  16.165  0.00  0.00    +0.000 C 
BRANCH  23  24
ATOM     24  C   UNL     1       5.418   3.996  16.972  0.00  0.00    +0.000 C 
BRANCH  24  25
ATOM     25  N   UNL     1       4.577   3.043  17.673  0.00  0.00    +0.000 N 
ATOM     26  C   UNL     1       4.064   3.442  18.899  0.00  0.00    +0.000 C 
ATOM     27  O   UNL     1       4.508   4.384  19.539  0.00  0.00    +0.000 OA
ATOM     28  H   UNL     1       4.039   2.345  17.179  0.00  0.00    +0.000 HD
BRANCH  26  29
ATOM     29  O   UNL     1       2.973   2.708  19.254  0.00  0.00    +0.000 OA
BRANCH  29  30
ATOM     30  C   UNL     1       1.634   3.291  19.133  0.00  0.00    +0.000 C 
ATOM     31  C   UNL     1       1.280   4.269  20.270  0.00  0.00    +0.000 C 
ATOM     32  C   UNL     1       1.655   4.094  17.821  0.00  0.00    +0.000 C 
ATOM     33  C   UNL     1       0.573   2.192  18.999  0.00  0.00    +0.000 C 
ENDBRANCH  29  30
ENDBRANCH  26  29
ENDBRANCH  24  25
ENDBRANCH  23  24
ENDBRANCH  22  23
ENDBRANCH  21  22
ENDBRANCH  20  21
ENDBRANCH   4  20
TORSDOF 12
ENDMDL
