MODEL 1
REMARK VINA RESULT:      -7.2      0.000      0.000
REMARK  Name = 
REMARK  6 active torsions:
REMARK  status: ('A' for Active; 'I' for Inactive)
REMARK    1  A    between atoms: C_1  and  O_2
REMARK    2  A    between atoms: O_2  and  C_3
REMARK    3  A    between atoms: C_8  and  O_9
REMARK    4  A    between atoms: O_9  and  C_10
REMARK    5  A    between atoms: C_11  and  C_12
REMARK    6  A    between atoms: C_15  and  C_16
REMARK                            x       y       z     vdW  Elec       q    Type
REMARK                         _______ _______ _______ _____ _____    ______ ____
ROOT
ATOM      1  C   UNL     1       1.867   8.326  19.055  0.00  0.00    +0.000 A 
ATOM      2  C   UNL     1       2.321   7.402  18.104  0.00  0.00    +0.000 A 
ATOM      3  C   UNL     1       2.580   6.071  18.449  0.00  0.00    +0.000 A 
ATOM      4  C   UNL     1       2.339   5.653  19.769  0.00  0.00    +0.000 A 
ATOM      5  C   UNL     1       1.955   6.581  20.736  0.00  0.00    +0.000 A 
ATOM      6  C   UNL     1       1.724   7.921  20.395  0.00  0.00    +0.000 A 
ATOM      7  C   UNL     1       2.550   4.226  20.094  0.00  0.00    +0.000 C 
ATOM      8  C   UNL     1       2.023   3.563  21.331  0.00  0.00    +0.000 C 
ATOM      9  N   UNL     1       3.242   3.477  19.253  0.00  0.00    +0.000 N 
ATOM     10  O   UNL     1       3.453   2.236  19.481  0.00  0.00    +0.000 OA
ATOM     11  C   UNL     1       3.846   4.104  18.011  0.00  0.00    +0.000 C 
ATOM     12  N   UNL     1       2.961   5.151  17.444  0.00  0.00    +0.000 N 
ATOM     13  H   UNL     1       3.402   5.608  16.652  0.00  0.00    +0.000 HD
ENDROOT
BRANCH  11  14
ATOM     14  C   UNL     1       5.258   4.611  18.286  0.00  0.00    +0.000 A 
ATOM     15  C   UNL     1       5.798   5.126  19.451  0.00  0.00    +0.000 A 
ATOM     16  C   UNL     1       7.140   5.568  19.289  0.00  0.00    +0.000 A 
ATOM     17  C   UNL     1       7.595   5.369  18.006  0.00  0.00    +0.000 A 
ATOM     18  S   UNL     1       6.413   4.641  17.010  0.00  0.00    +0.000 S 
ENDBRANCH  11  14
BRANCH   1  20
ATOM     19  C   UNL     1       0.289   9.853  18.149  0.00  0.00    +0.000 C 
ATOM     20  O   UNL     1       1.584   9.621  18.707  0.00  0.00    +0.000 OA
ENDBRANCH   1  20
BRANCH   6  21
ATOM     21  O   UNL     1       1.341   8.649  21.489  0.00  0.00    +0.000 OA
ATOM     22  C   UNL     1      -0.033   8.854  21.761  0.00  0.00    +0.000 C 
ENDBRANCH   6  21
TORSDOF 3
ENDMDL
MODEL 2
REMARK VINA RESULT:      -7.2      3.142      5.732
REMARK  Name = 
REMARK  6 active torsions:
REMARK  status: ('A' for Active; 'I' for Inactive)
REMARK    1  A    between atoms: C_1  and  O_2
REMARK    2  A    between atoms: O_2  and  C_3
REMARK    3  A    between atoms: C_8  and  O_9
REMARK    4  A    between atoms: O_9  and  C_10
REMARK    5  A    between atoms: C_11  and  C_12
REMARK    6  A    between atoms: C_15  and  C_16
REMARK                            x       y       z     vdW  Elec       q    Type
REMARK                         _______ _______ _______ _____ _____    ______ ____
ROOT
ATOM      1  C   UNL     1       6.601   6.169  16.996  0.00  0.00    +0.000 A 
ATOM      2  C   UNL     1       6.024   6.255  18.271  0.00  0.00    +0.000 A 
ATOM      3  C   UNL     1       4.802   5.640  18.558  0.00  0.00    +0.000 A 
ATOM      4  C   UNL     1       4.166   4.890  17.554  0.00  0.00    +0.000 A 
ATOM      5  C   UNL     1       4.696   4.858  16.266  0.00  0.00    +0.000 A 
ATOM      6  C   UNL     1       5.907   5.500  15.971  0.00  0.00    +0.000 A 
ATOM      7  C   UNL     1       2.912   4.188  17.903  0.00  0.00    +0.000 C 
ATOM      8  C   UNL     1       2.306   3.096  17.073  0.00  0.00    +0.000 C 
ATOM      9  N   UNL     1       2.275   4.533  19.008  0.00  0.00    +0.000 N 
ATOM     10  O   UNL     1       1.187   3.958  19.360  0.00  0.00    +0.000 OA
ATOM     11  C   UNL     1       2.809   5.668  19.860  0.00  0.00    +0.000 C 
ATOM     12  N   UNL     1       4.293   5.684  19.878  0.00  0.00    +0.000 N 
ATOM     13  H   UNL     1       4.640   6.483  20.398  0.00  0.00    +0.000 HD
ENDROOT
BRANCH  11  14
ATOM     14  C   UNL     1       2.210   7.003  19.430  0.00  0.00    +0.000 A 
ATOM     15  C   UNL     1       2.206   7.606  18.185  0.00  0.00    +0.000 A 
ATOM     16  C   UNL     1       1.613   8.899  18.200  0.00  0.00    +0.000 A 
ATOM     17  C   UNL     1       1.169   9.246  19.455  0.00  0.00    +0.000 A 
ATOM     18  S   UNL     1       1.456   8.012  20.603  0.00  0.00    +0.000 S 
ENDBRANCH  11  14
BRANCH   1  20
ATOM     19  C   UNL     1       8.117   7.940  17.449  0.00  0.00    +0.000 C 
ATOM     20  O   UNL     1       7.814   6.746  16.726  0.00  0.00    +0.000 OA
ENDBRANCH   1  20
BRANCH   6  21
ATOM     21  O   UNL     1       6.249   5.326  14.657  0.00  0.00    +0.000 OA
ATOM     22  C   UNL     1       6.333   4.023  14.110  0.00  0.00    +0.000 C 
ENDBRANCH   6  21
TORSDOF 3
ENDMDL
MODEL 3
REMARK VINA RESULT:      -7.0      1.910      3.119
REMARK  Name = 
REMARK  6 active torsions:
REMARK  status: ('A' for Active; 'I' for Inactive)
REMARK    1  A    between atoms: C_1  and  O_2
REMARK    2  A    between atoms: O_2  and  C_3
REMARK    3  A    between atoms: C_8  and  O_9
REMARK    4  A    between atoms: O_9  and  C_10
REMARK    5  A    between atoms: C_11  and  C_12
REMARK    6  A    between atoms: C_15  and  C_16
REMARK                            x       y       z     vdW  Elec       q    Type
REMARK                         _______ _______ _______ _____ _____    ______ ____
ROOT
ATOM      1  C   UNL     1       2.040   6.218  20.187  0.00  0.00    +0.000 A 
ATOM      2  C   UNL     1       2.698   6.736  19.063  0.00  0.00    +0.000 A 
ATOM      3  C   UNL     1       3.390   5.903  18.178  0.00  0.00    +0.000 A 
ATOM      4  C   UNL     1       3.388   4.517  18.408  0.00  0.00    +0.000 A 
ATOM      5  C   UNL     1       2.798   4.002  19.560  0.00  0.00    +0.000 A 
ATOM      6  C   UNL     1       2.128   4.841  20.462  0.00  0.00    +0.000 A 
ATOM      7  C   UNL     1       4.065   3.649  17.420  0.00  0.00    +0.000 C 
ATOM      8  C   UNL     1       3.866   2.166  17.334  0.00  0.00    +0.000 C 
ATOM      9  N   UNL     1       4.899   4.200  16.555  0.00  0.00    +0.000 N 
ATOM     10  O   UNL     1       5.510   3.498  15.677  0.00  0.00    +0.000 OA
ATOM     11  C   UNL     1       5.183   5.687  16.628  0.00  0.00    +0.000 C 
ATOM     12  N   UNL     1       3.973   6.455  17.013  0.00  0.00    +0.000 N 
ATOM     13  H   UNL     1       4.189   7.441  17.121  0.00  0.00    +0.000 HD
ENDROOT
BRANCH  11  14
ATOM     14  C   UNL     1       6.376   5.973  17.535  0.00  0.00    +0.000 A 
ATOM     15  C   UNL     1       6.920   5.198  18.544  0.00  0.00    +0.000 A 
ATOM     16  C   UNL     1       7.989   5.847  19.222  0.00  0.00    +0.000 A 
ATOM     17  C   UNL     1       8.242   7.097  18.705  0.00  0.00    +0.000 A 
ATOM     18  S   UNL     1       7.202   7.477  17.403  0.00  0.00    +0.000 S 
ENDBRANCH  11  14
BRANCH   1  20
ATOM     19  C   UNL     1       1.346   8.426  20.721  0.00  0.00    +0.000 C 
ATOM     20  O   UNL     1       1.335   7.032  21.035  0.00  0.00    +0.000 OA
ENDBRANCH   1  20
BRANCH   6  21
ATOM     21  O   UNL     1       1.611   4.126  21.509  0.00  0.00    +0.000 OA
ATOM     22  C   UNL     1       1.696   2.713  21.517  0.00  0.00    +0.000 C 
ENDBRANCH   6  21
TORSDOF 3
ENDMDL
MODEL 4
REMARK VINA RESULT:      -6.7      1.071      1.182
REMARK  Name = 
REMARK  6 active torsions:
REMARK  status: ('A' for Active; 'I' for Inactive)
REMARK    1  A    between atoms: C_1  and  O_2
REMARK    2  A    between atoms: O_2  and  C_3
REMARK    3  A    between atoms: C_8  and  O_9
REMARK    4  A    between atoms: O_9  and  C_10
REMARK    5  A    between atoms: C_11  and  C_12
REMARK    6  A    between atoms: C_15  and  C_16
REMARK                            x       y       z     vdW  Elec       q    Type
REMARK                         _______ _______ _______ _____ _____    ______ ____
ROOT
ATOM      1  C   UNL     1       1.671   8.844  18.956  0.00  0.00    +0.000 A 
ATOM      2  C   UNL     1       2.234   8.037  17.958  0.00  0.00    +0.000 A 
ATOM      3  C   UNL     1       2.699   6.748  18.242  0.00  0.00    +0.000 A 
ATOM      4  C   UNL     1       2.557   6.248  19.548  0.00  0.00    +0.000 A 
ATOM      5  C   UNL     1       2.064   7.069  20.560  0.00  0.00    +0.000 A 
ATOM      6  C   UNL     1       1.625   8.371  20.280  0.00  0.00    +0.000 A 
ATOM      7  C   UNL     1       2.988   4.857  19.807  0.00  0.00    +0.000 C 
ATOM      8  C   UNL     1       2.600   4.075  21.026  0.00  0.00    +0.000 C 
ATOM      9  N   UNL     1       3.764   4.255  18.922  0.00  0.00    +0.000 N 
ATOM     10  O   UNL     1       4.165   3.052  19.094  0.00  0.00    +0.000 OA
ATOM     11  C   UNL     1       4.234   5.013  17.697  0.00  0.00    +0.000 C 
ATOM     12  N   UNL     1       3.187   5.936  17.192  0.00  0.00    +0.000 N 
ATOM     13  H   UNL     1       3.535   6.485  16.411  0.00  0.00    +0.000 HD
ENDROOT
BRANCH  11  14
ATOM     14  C   UNL     1       5.561   5.717  17.964  0.00  0.00    +0.000 A 
ATOM     15  C   UNL     1       6.172   6.741  17.263  0.00  0.00    +0.000 A 
ATOM     16  C   UNL     1       7.453   7.077  17.782  0.00  0.00    +0.000 A 
ATOM     17  C   UNL     1       7.783   6.308  18.874  0.00  0.00    +0.000 A 
ATOM     18  S   UNL     1       6.548   5.197  19.275  0.00  0.00    +0.000 S 
ENDBRANCH  11  14
BRANCH   1  20
ATOM     19  C   UNL     1      -0.191  10.165  18.299  0.00  0.00    +0.000 C 
ATOM     20  O   UNL     1       1.188  10.094  18.668  0.00  0.00    +0.000 OA
ENDBRANCH   1  20
BRANCH   6  21
ATOM     21  O   UNL     1       1.165   8.989  21.411  0.00  0.00    +0.000 OA
ATOM     22  C   UNL     1      -0.188   8.843  21.802  0.00  0.00    +0.000 C 
ENDBRANCH   6  21
TORSDOF 3
ENDMDL
MODEL 5
REMARK VINA RESULT:      -6.7      2.082      2.920
REMARK  Name = 
REMARK  6 active torsions:
REMARK  status: ('A' for Active; 'I' for Inactive)
REMARK    1  A    between atoms: C_1  and  O_2
REMARK    2  A    between atoms: O_2  and  C_3
REMARK    3  A    between atoms: C_8  and  O_9
REMARK    4  A    between atoms: O_9  and  C_10
REMARK    5  A    between atoms: C_11  and  C_12
REMARK    6  A    between atoms: C_15  and  C_16
REMARK                            x       y       z     vdW  Elec       q    Type
REMARK                         _______ _______ _______ _____ _____    ______ ____
ROOT
ATOM      1  C   UNL     1       2.194   7.193  19.285  0.00  0.00    +0.000 A 
ATOM      2  C   UNL     1       3.039   7.508  18.211  0.00  0.00    +0.000 A 
ATOM      3  C   UNL     1       3.755   6.515  17.535  0.00  0.00    +0.000 A 
ATOM      4  C   UNL     1       3.586   5.173  17.921  0.00  0.00    +0.000 A 
ATOM      5  C   UNL     1       2.803   4.860  19.030  0.00  0.00    +0.000 A 
ATOM      6  C   UNL     1       2.109   5.860  19.726  0.00  0.00    +0.000 A 
ATOM      7  C   UNL     1       4.296   4.134  17.144  0.00  0.00    +0.000 C 
ATOM      8  C   UNL     1       3.964   2.674  17.203  0.00  0.00    +0.000 C 
ATOM      9  N   UNL     1       5.285   4.500  16.348  0.00  0.00    +0.000 N 
ATOM     10  O   UNL     1       5.932   3.644  15.650  0.00  0.00    +0.000 OA
ATOM     11  C   UNL     1       5.702   5.956  16.287  0.00  0.00    +0.000 C 
ATOM     12  N   UNL     1       4.535   6.863  16.408  0.00  0.00    +0.000 N 
ATOM     13  H   UNL     1       4.831   7.834  16.430  0.00  0.00    +0.000 HD
ENDROOT
BRANCH  11  14
ATOM     14  C   UNL     1       6.791   6.256  17.314  0.00  0.00    +0.000 A 
ATOM     15  C   UNL     1       7.355   5.426  18.266  0.00  0.00    +0.000 A 
ATOM     16  C   UNL     1       8.292   6.099  19.098  0.00  0.00    +0.000 A 
ATOM     17  C   UNL     1       8.428   7.424  18.752  0.00  0.00    +0.000 A 
ATOM     18  S   UNL     1       7.439   7.846  17.424  0.00  0.00    +0.000 S 
ENDBRANCH  11  14
BRANCH   1  20
ATOM     19  C   UNL     1       1.284   9.385  19.208  0.00  0.00    +0.000 C 
ATOM     20  O   UNL     1       1.469   8.164  19.925  0.00  0.00    +0.000 OA
ENDBRANCH   1  20
BRANCH   6  21
ATOM     21  O   UNL     1       1.393   5.330  20.765  0.00  0.00    +0.000 OA
ATOM     22  C   UNL     1       0.963   3.981  20.719  0.00  0.00    +0.000 C 
ENDBRANCH   6  21
TORSDOF 3
ENDMDL
MODEL 6
REMARK VINA RESULT:      -6.4      3.058      4.941
REMARK  Name = 
REMARK  6 active torsions:
REMARK  status: ('A' for Active; 'I' for Inactive)
REMARK    1  A    between atoms: C_1  and  O_2
REMARK    2  A    between atoms: O_2  and  C_3
REMARK    3  A    between atoms: C_8  and  O_9
REMARK    4  A    between atoms: O_9  and  C_10
REMARK    5  A    between atoms: C_11  and  C_12
REMARK    6  A    between atoms: C_15  and  C_16
REMARK                            x       y       z     vdW  Elec       q    Type
REMARK                         _______ _______ _______ _____ _____    ______ ____
ROOT
ATOM      1  C   UNL     1       5.522   5.457  15.863  0.00  0.00    +0.000 A 
ATOM      2  C   UNL     1       4.517   4.491  16.014  0.00  0.00    +0.000 A 
ATOM      3  C   UNL     1       3.582   4.572  17.051  0.00  0.00    +0.000 A 
ATOM      4  C   UNL     1       3.635   5.669  17.929  0.00  0.00    +0.000 A 
ATOM      5  C   UNL     1       4.672   6.594  17.828  0.00  0.00    +0.000 A 
ATOM      6  C   UNL     1       5.627   6.495  16.806  0.00  0.00    +0.000 A 
ATOM      7  C   UNL     1       2.592   5.772  18.972  0.00  0.00    +0.000 C 
ATOM      8  C   UNL     1       2.307   7.023  19.748  0.00  0.00    +0.000 C 
ATOM      9  N   UNL     1       1.859   4.707  19.248  0.00  0.00    +0.000 N 
ATOM     10  O   UNL     1       0.941   4.740  20.138  0.00  0.00    +0.000 OA
ATOM     11  C   UNL     1       2.137   3.399  18.533  0.00  0.00    +0.000 C 
ATOM     12  N   UNL     1       2.536   3.623  17.122  0.00  0.00    +0.000 N 
ATOM     13  H   UNL     1       2.781   2.746  16.672  0.00  0.00    +0.000 HD
ENDROOT
BRANCH  11  14
ATOM     14  C   UNL     1       3.148   2.558  19.306  0.00  0.00    +0.000 A 
ATOM     15  C   UNL     1       3.614   2.710  20.600  0.00  0.00    +0.000 A 
ATOM     16  C   UNL     1       4.621   1.764  20.938  0.00  0.00    +0.000 A 
ATOM     17  C   UNL     1       4.892   0.907  19.896  0.00  0.00    +0.000 A 
ATOM     18  S   UNL     1       3.925   1.236  18.526  0.00  0.00    +0.000 S 
ENDBRANCH  11  14
BRANCH   1  20
ATOM     19  C   UNL     1       6.385   4.199  14.042  0.00  0.00    +0.000 C 
ATOM     20  O   UNL     1       6.418   5.391  14.827  0.00  0.00    +0.000 OA
ENDBRANCH   1  20
BRANCH   6  21
ATOM     21  O   UNL     1       6.540   7.512  16.885  0.00  0.00    +0.000 OA
ATOM     22  C   UNL     1       7.683   7.380  17.710  0.00  0.00    +0.000 C 
ENDBRANCH   6  21
TORSDOF 3
ENDMDL
MODEL 7
REMARK VINA RESULT:      -6.3      2.075      3.914
REMARK  Name = 
REMARK  6 active torsions:
REMARK  status: ('A' for Active; 'I' for Inactive)
REMARK    1  A    between atoms: C_1  and  O_2
REMARK    2  A    between atoms: O_2  and  C_3
REMARK    3  A    between atoms: C_8  and  O_9
REMARK    4  A    between atoms: O_9  and  C_10
REMARK    5  A    between atoms: C_11  and  C_12
REMARK    6  A    between atoms: C_15  and  C_16
REMARK                            x       y       z     vdW  Elec       q    Type
REMARK                         _______ _______ _______ _____ _____    ______ ____
ROOT
ATOM      1  C   UNL     1       1.306   8.597  19.902  0.00  0.00    +0.000 A 
ATOM      2  C   UNL     1       2.006   7.514  20.451  0.00  0.00    +0.000 A 
ATOM      3  C   UNL     1       2.876   6.743  19.674  0.00  0.00    +0.000 A 
ATOM      4  C   UNL     1       3.076   7.093  18.327  0.00  0.00    +0.000 A 
ATOM      5  C   UNL     1       2.331   8.123  17.757  0.00  0.00    +0.000 A 
ATOM      6  C   UNL     1       1.436   8.877  18.529  0.00  0.00    +0.000 A 
ATOM      7  C   UNL     1       4.056   6.309  17.545  0.00  0.00    +0.000 C 
ATOM      8  C   UNL     1       4.627   6.754  16.232  0.00  0.00    +0.000 C 
ATOM      9  N   UNL     1       4.462   5.143  18.018  0.00  0.00    +0.000 N 
ATOM     10  O   UNL     1       5.310   4.424  17.385  0.00  0.00    +0.000 OA
ATOM     11  C   UNL     1       3.880   4.615  19.314  0.00  0.00    +0.000 C 
ATOM     12  N   UNL     1       3.625   5.709  20.284  0.00  0.00    +0.000 N 
ATOM     13  H   UNL     1       3.177   5.352  21.122  0.00  0.00    +0.000 HD
ENDROOT
BRANCH  11  14
ATOM     14  C   UNL     1       2.643   3.761  19.050  0.00  0.00    +0.000 A 
ATOM     15  C   UNL     1       1.334   3.960  19.452  0.00  0.00    +0.000 A 
ATOM     16  C   UNL     1       0.473   2.893  19.074  0.00  0.00    +0.000 A 
ATOM     17  C   UNL     1       1.144   1.911  18.383  0.00  0.00    +0.000 A 
ATOM     18  S   UNL     1       2.800   2.283  18.182  0.00  0.00    +0.000 S 
ENDBRANCH  11  14
BRANCH   1  20
ATOM     19  C   UNL     1      -0.324   8.673  21.628  0.00  0.00    +0.000 C 
ATOM     20  O   UNL     1       0.477   9.370  20.673  0.00  0.00    +0.000 OA
ENDBRANCH   1  20
BRANCH   6  21
ATOM     21  O   UNL     1       0.827   9.843  17.775  0.00  0.00    +0.000 OA
ATOM     22  C   UNL     1      -0.586   9.901  17.699  0.00  0.00    +0.000 C 
ENDBRANCH   6  21
TORSDOF 3
ENDMDL
MODEL 8
REMARK VINA RESULT:      -6.3      3.992      7.078
REMARK  Name = 
REMARK  6 active torsions:
REMARK  status: ('A' for Active; 'I' for Inactive)
REMARK    1  A    between atoms: C_1  and  O_2
REMARK    2  A    between atoms: O_2  and  C_3
REMARK    3  A    between atoms: C_8  and  O_9
REMARK    4  A    between atoms: O_9  and  C_10
REMARK    5  A    between atoms: C_11  and  C_12
REMARK    6  A    between atoms: C_15  and  C_16
REMARK                            x       y       z     vdW  Elec       q    Type
REMARK                         _______ _______ _______ _____ _____    ______ ____
ROOT
ATOM      1  C   UNL     1       2.438   7.324  18.549  0.00  0.00    +0.000 A 
ATOM      2  C   UNL     1       2.147   8.610  18.071  0.00  0.00    +0.000 A 
ATOM      3  C   UNL     1       1.469   9.542  18.863  0.00  0.00    +0.000 A 
ATOM      4  C   UNL     1       1.111   9.187  20.175  0.00  0.00    +0.000 A 
ATOM      5  C   UNL     1       1.334   7.890  20.632  0.00  0.00    +0.000 A 
ATOM      6  C   UNL     1       1.987   6.946  19.827  0.00  0.00    +0.000 A 
ATOM      7  C   UNL     1       0.461  10.214  21.018  0.00  0.00    +0.000 C 
ATOM      8  C   UNL     1       0.331  10.113  22.508  0.00  0.00    +0.000 C 
ATOM      9  N   UNL     1      -0.041  11.289  20.437  0.00  0.00    +0.000 N 
ATOM     10  O   UNL     1      -0.613  12.211  21.117  0.00  0.00    +0.000 OA
ATOM     11  C   UNL     1       0.012  11.423  18.928  0.00  0.00    +0.000 C 
ATOM     12  N   UNL     1       1.265  10.854  18.375  0.00  0.00    +0.000 N 
ATOM     13  H   UNL     1       1.262  10.890  17.360  0.00  0.00    +0.000 HD
ENDROOT
BRANCH  11  14
ATOM     14  C   UNL     1      -1.238  10.833  18.283  0.00  0.00    +0.000 A 
ATOM     15  C   UNL     1      -1.355   9.787  17.384  0.00  0.00    +0.000 A 
ATOM     16  C   UNL     1      -2.694   9.583  16.948  0.00  0.00    +0.000 A 
ATOM     17  C   UNL     1      -3.567  10.471  17.533  0.00  0.00    +0.000 A 
ATOM     18  S   UNL     1      -2.776  11.534  18.611  0.00  0.00    +0.000 S 
ENDBRANCH  11  14
BRANCH   1  20
ATOM     19  C   UNL     1       4.405   6.853  17.305  0.00  0.00    +0.000 C 
ATOM     20  O   UNL     1       3.130   6.422  17.783  0.00  0.00    +0.000 OA
ENDBRANCH   1  20
BRANCH   6  21
ATOM     21  O   UNL     1       2.115   5.748  20.477  0.00  0.00    +0.000 OA
ATOM     22  C   UNL     1       1.150   4.729  20.287  0.00  0.00    +0.000 C 
ENDBRANCH   6  21
TORSDOF 3
ENDMDL
MODEL 9
REMARK VINA RESULT:      -6.1      3.180      5.371
REMARK  Name = 
REMARK  6 active torsions:
REMARK  status: ('A' for Active; 'I' for Inactive)
REMARK    1  A    between atoms: C_1  and  O_2
REMARK    2  A    between atoms: O_2  and  C_3
REMARK    3  A    between atoms: C_8  and  O_9
REMARK    4  A    between atoms: O_9  and  C_10
REMARK    5  A    between atoms: C_11  and  C_12
REMARK    6  A    between atoms: C_15  and  C_16
REMARK                            x       y       z     vdW  Elec       q    Type
REMARK                         _______ _______ _______ _____ _____    ______ ____
ROOT
ATOM      1  C   UNL     1       6.374   5.080  15.972  0.00  0.00    +0.000 A 
ATOM      2  C   UNL     1       5.297   4.190  16.088  0.00  0.00    +0.000 A 
ATOM      3  C   UNL     1       4.181   4.499  16.872  0.00  0.00    +0.000 A 
ATOM      4  C   UNL     1       4.130   5.745  17.521  0.00  0.00    +0.000 A 
ATOM      5  C   UNL     1       5.226   6.604  17.468  0.00  0.00    +0.000 A 
ATOM      6  C   UNL     1       6.357   6.281  16.706  0.00  0.00    +0.000 A 
ATOM      7  C   UNL     1       2.908   6.080  18.284  0.00  0.00    +0.000 C 
ATOM      8  C   UNL     1       2.558   7.466  18.736  0.00  0.00    +0.000 C 
ATOM      9  N   UNL     1       2.066   5.110  18.595  0.00  0.00    +0.000 N 
ATOM     10  O   UNL     1       0.992   5.342  19.251  0.00  0.00    +0.000 OA
ATOM     11  C   UNL     1       2.393   3.680  18.212  0.00  0.00    +0.000 C 
ATOM     12  N   UNL     1       3.080   3.611  16.899  0.00  0.00    +0.000 N 
ATOM     13  H   UNL     1       3.351   2.657  16.682  0.00  0.00    +0.000 HD
ENDROOT
BRANCH  11  14
ATOM     14  C   UNL     1       3.170   2.981  19.322  0.00  0.00    +0.000 A 
ATOM     15  C   UNL     1       4.407   2.362  19.276  0.00  0.00    +0.000 A 
ATOM     16  C   UNL     1       4.764   1.750  20.509  0.00  0.00    +0.000 A 
ATOM     17  C   UNL     1       3.795   1.926  21.470  0.00  0.00    +0.000 A 
ATOM     18  S   UNL     1       2.470   2.835  20.888  0.00  0.00    +0.000 S 
ENDBRANCH  11  14
BRANCH   1  20
ATOM     19  C   UNL     1       7.204   4.743  13.772  0.00  0.00    +0.000 C 
ATOM     20  O   UNL     1       7.453   4.789  15.178  0.00  0.00    +0.000 OA
ENDBRANCH   1  20
BRANCH   6  21
ATOM     21  O   UNL     1       7.301   7.269  16.782  0.00  0.00    +0.000 OA
ATOM     22  C   UNL     1       7.898   7.589  18.025  0.00  0.00    +0.000 C 
ENDBRANCH   6  21
TORSDOF 3
ENDMDL
