MODEL 1
REMARK VINA RESULT:      -6.5      0.000      0.000
REMARK  Name = 
REMARK  0 active torsions:
REMARK  status: ('A' for Active; 'I' for Inactive)
REMARK                            x       y       z     vdW  Elec       q    Type
REMARK                         _______ _______ _______ _____ _____    ______ ____
ROOT
ATOM      1  C   UNL     1       3.930   6.893  17.109  0.00  0.00    +0.000 C 
ATOM      2  C   UNL     1       3.032   7.859  17.802  0.00  0.00    +0.000 C 
ATOM      3  C   UNL     1       1.679   9.211  18.882  0.00  0.00    +0.000 C 
ATOM      4  N   UNL     1       1.037   8.507  20.342  0.00  0.00    +0.000 N 
ATOM      5  C   UNL     1       0.209   8.923  21.436  0.00  0.00    +0.000 C 
ATOM      6  C   UNL     1      -0.304  10.265  21.064  0.00  0.00    +0.000 C 
ATOM      7  C   UNL     1      -0.706  10.296  19.568  0.00  0.00    +0.000 C 
ATOM      8  C   UNL     1       0.512  10.232  18.478  0.00  0.00    +0.000 C 
ATOM      9  C   UNL     1       1.536   6.495  20.686  0.00  0.00    +0.000 C 
ATOM     10  C   UNL     1       2.770   6.110  18.983  0.00  0.00    +0.000 C 
ATOM     11  C   UNL     1       2.049   5.044  17.986  0.00  0.00    +0.000 C 
ATOM     12  C   UNL     1       3.276   4.361  17.911  0.00  0.00    +0.000 A 
ATOM     13  C   UNL     1       3.501   3.539  19.072  0.00  0.00    +0.000 A 
ATOM     14  C   UNL     1       4.836   3.427  19.294  0.00  0.00    +0.000 A 
ATOM     15  S   UNL     1       5.735   4.532  18.230  0.00  0.00    +0.000 S 
ATOM     16  C   UNL     1       4.289   5.262  17.471  0.00  0.00    +0.000 A 
ENDROOT
TORSDOF 0
ENDMDL
MODEL 2
REMARK VINA RESULT:      -6.3      1.513      1.917
REMARK  Name = 
REMARK  0 active torsions:
REMARK  status: ('A' for Active; 'I' for Inactive)
REMARK                            x       y       z     vdW  Elec       q    Type
REMARK                         _______ _______ _______ _____ _____    ______ ____
ROOT
ATOM      1  C   UNL     1       3.472   4.738  17.833  0.00  0.00    +0.000 C 
ATOM      2  C   UNL     1       3.003   6.134  18.058  0.00  0.00    +0.000 C 
ATOM      3  C   UNL     1       2.264   8.162  18.467  0.00  0.00    +0.000 C 
ATOM      4  N   UNL     1       1.498   8.304  20.026  0.00  0.00    +0.000 N 
ATOM      5  C   UNL     1       0.925   9.347  20.828  0.00  0.00    +0.000 C 
ATOM      6  C   UNL     1       0.891  10.548  19.958  0.00  0.00    +0.000 C 
ATOM      7  C   UNL     1       0.444  10.167  18.524  0.00  0.00    +0.000 C 
ATOM      8  C   UNL     1       1.504   9.297  17.631  0.00  0.00    +0.000 C 
ATOM      9  C   UNL     1       1.286   6.516  21.111  0.00  0.00    +0.000 C 
ATOM     10  C   UNL     1       2.215   5.140  19.764  0.00  0.00    +0.000 C 
ATOM     11  C   UNL     1       1.116   4.100  19.164  0.00  0.00    +0.000 C 
ATOM     12  C   UNL     1       2.025   3.061  19.439  0.00  0.00    +0.000 A 
ATOM     13  C   UNL     1       2.013   2.696  20.831  0.00  0.00    +0.000 A 
ATOM     14  C   UNL     1       3.237   2.223  21.185  0.00  0.00    +0.000 A 
ATOM     15  S   UNL     1       4.404   2.484  19.869  0.00  0.00    +0.000 S 
ATOM     16  C   UNL     1       3.262   3.334  18.786  0.00  0.00    +0.000 A 
ENDROOT
TORSDOF 0
ENDMDL
MODEL 3
REMARK VINA RESULT:      -6.3      1.475      2.827
REMARK  Name = 
REMARK  0 active torsions:
REMARK  status: ('A' for Active; 'I' for Inactive)
REMARK                            x       y       z     vdW  Elec       q    Type
REMARK                         _______ _______ _______ _____ _____    ______ ____
ROOT
ATOM      1  C   UNL     1       2.293   4.284  20.743  0.00  0.00    +0.000 C 
ATOM      2  C   UNL     1       1.750   5.670  20.819  0.00  0.00    +0.000 C 
ATOM      3  C   UNL     1       1.001   7.735  20.853  0.00  0.00    +0.000 C 
ATOM      4  N   UNL     1       1.403   8.627  19.411  0.00  0.00    +0.000 N 
ATOM      5  C   UNL     1       1.129   9.924  18.863  0.00  0.00    +0.000 C 
ATOM      6  C   UNL     1       0.444  10.678  19.942  0.00  0.00    +0.000 C 
ATOM      7  C   UNL     1       1.119  10.401  21.309  0.00  0.00    +0.000 C 
ATOM      8  C   UNL     1       0.914   8.907  21.941  0.00  0.00    +0.000 C 
ATOM      9  C   UNL     1       2.637   7.632  18.031  0.00  0.00    +0.000 C 
ATOM     10  C   UNL     1       2.883   5.754  19.022  0.00  0.00    +0.000 C 
ATOM     11  C   UNL     1       4.427   5.559  19.499  0.00  0.00    +0.000 C 
ATOM     12  C   UNL     1       4.373   4.258  18.967  0.00  0.00    +0.000 A 
ATOM     13  C   UNL     1       4.529   4.258  17.536  0.00  0.00    +0.000 A 
ATOM     14  C   UNL     1       3.868   3.195  17.009  0.00  0.00    +0.000 A 
ATOM     15  S   UNL     1       2.886   2.397  18.258  0.00  0.00    +0.000 S 
ATOM     16  C   UNL     1       3.289   3.551  19.564  0.00  0.00    +0.000 A 
ENDROOT
TORSDOF 0
ENDMDL
MODEL 4
REMARK VINA RESULT:      -6.1      2.935      6.779
REMARK  Name = 
REMARK  0 active torsions:
REMARK  status: ('A' for Active; 'I' for Inactive)
REMARK                            x       y       z     vdW  Elec       q    Type
REMARK                         _______ _______ _______ _____ _____    ______ ____
ROOT
ATOM      1  C   UNL     1      -0.027   9.736  21.739  0.00  0.00    +0.000 C 
ATOM      2  C   UNL     1       0.723   8.545  21.250  0.00  0.00    +0.000 C 
ATOM      3  C   UNL     1       1.836   6.831  20.443  0.00  0.00    +0.000 C 
ATOM      4  N   UNL     1       2.511   7.140  18.867  0.00  0.00    +0.000 N 
ATOM      5  C   UNL     1       3.356   6.458  17.930  0.00  0.00    +0.000 C 
ATOM      6  C   UNL     1       3.523   5.085  18.467  0.00  0.00    +0.000 C 
ATOM      7  C   UNL     1       2.178   4.552  19.022  0.00  0.00    +0.000 C 
ATOM      8  C   UNL     1       1.624   5.244  20.396  0.00  0.00    +0.000 C 
ATOM      9  C   UNL     1       2.000   8.984  17.996  0.00  0.00    +0.000 C 
ATOM     10  C   UNL     1       0.792   9.819  19.549  0.00  0.00    +0.000 C 
ATOM     11  C   UNL     1      -0.756   9.942  19.064  0.00  0.00    +0.000 C 
ATOM     12  C   UNL     1      -0.761  11.250  19.581  0.00  0.00    +0.000 A 
ATOM     13  C   UNL     1      -0.121  12.181  18.689  0.00  0.00    +0.000 A 
ATOM     14  C   UNL     1       0.422  13.197  19.408  0.00  0.00    +0.000 A 
ATOM     15  S   UNL     1       0.341  12.835  21.147  0.00  0.00    +0.000 S 
ATOM     16  C   UNL     1      -0.387  11.212  20.956  0.00  0.00    +0.000 A 
ENDROOT
TORSDOF 0
ENDMDL
MODEL 5
REMARK VINA RESULT:      -6.0      3.873      6.396
REMARK  Name = 
REMARK  0 active torsions:
REMARK  status: ('A' for Active; 'I' for Inactive)
REMARK                            x       y       z     vdW  Elec       q    Type
REMARK                         _______ _______ _______ _____ _____    ______ ____
ROOT
ATOM      1  C   UNL     1       2.538   2.121  17.995  0.00  0.00    +0.000 C 
ATOM      2  C   UNL     1       3.683   2.617  17.182  0.00  0.00    +0.000 C 
ATOM      3  C   UNL     1       5.369   3.430  16.031  0.00  0.00    +0.000 C 
ATOM      4  N   UNL     1       6.001   4.908  16.704  0.00  0.00    +0.000 N 
ATOM      5  C   UNL     1       7.090   5.804  16.442  0.00  0.00    +0.000 C 
ATOM      6  C   UNL     1       7.682   5.351  15.160  0.00  0.00    +0.000 C 
ATOM      7  C   UNL     1       6.568   4.969  14.153  0.00  0.00    +0.000 C 
ATOM      8  C   UNL     1       5.719   3.610  14.478  0.00  0.00    +0.000 C 
ATOM      9  C   UNL     1       4.947   5.693  18.345  0.00  0.00    +0.000 C 
ATOM     10  C   UNL     1       3.425   4.209  18.567  0.00  0.00    +0.000 C 
ATOM     11  C   UNL     1       1.965   4.833  18.210  0.00  0.00    +0.000 C 
ATOM     12  C   UNL     1       1.475   4.228  19.381  0.00  0.00    +0.000 A 
ATOM     13  C   UNL     1       1.815   4.986  20.557  0.00  0.00    +0.000 A 
ATOM     14  C   UNL     1       1.926   4.148  21.620  0.00  0.00    +0.000 A 
ATOM     15  S   UNL     1       1.858   2.455  21.081  0.00  0.00    +0.000 S 
ATOM     16  C   UNL     1       1.746   2.829  19.335  0.00  0.00    +0.000 A 
ENDROOT
TORSDOF 0
ENDMDL
MODEL 6
REMARK VINA RESULT:      -5.9      3.829      4.876
REMARK  Name = 
REMARK  0 active torsions:
REMARK  status: ('A' for Active; 'I' for Inactive)
REMARK                            x       y       z     vdW  Elec       q    Type
REMARK                         _______ _______ _______ _____ _____    ______ ____
ROOT
ATOM      1  C   UNL     1       5.016   6.610  16.410  0.00  0.00    +0.000 C 
ATOM      2  C   UNL     1       3.879   5.895  17.055  0.00  0.00    +0.000 C 
ATOM      3  C   UNL     1       2.263   4.809  18.072  0.00  0.00    +0.000 C 
ATOM      4  N   UNL     1       2.744   4.169  19.620  0.00  0.00    +0.000 N 
ATOM      5  C   UNL     1       2.125   3.475  20.712  0.00  0.00    +0.000 C 
ATOM      6  C   UNL     1       0.760   3.127  20.243  0.00  0.00    +0.000 C 
ATOM      7  C   UNL     1       0.799   2.641  18.773  0.00  0.00    +0.000 C 
ATOM      8  C   UNL     1       1.125   3.770  17.634  0.00  0.00    +0.000 C 
ATOM      9  C   UNL     1       4.771   4.410  20.123  0.00  0.00    +0.000 C 
ATOM     10  C   UNL     1       5.468   5.471  18.403  0.00  0.00    +0.000 C 
ATOM     11  C   UNL     1       6.501   4.552  17.546  0.00  0.00    +0.000 C 
ATOM     12  C   UNL     1       7.354   5.667  17.473  0.00  0.00    +0.000 A 
ATOM     13  C   UNL     1       8.099   5.850  18.692  0.00  0.00    +0.000 A 
ATOM     14  C   UNL     1       8.380   7.169  18.857  0.00  0.00    +0.000 A 
ATOM     15  S   UNL     1       7.506   8.142  17.652  0.00  0.00    +0.000 S 
ATOM     16  C   UNL     1       6.646   6.764  16.902  0.00  0.00    +0.000 A 
ENDROOT
TORSDOF 0
ENDMDL
MODEL 7
REMARK VINA RESULT:      -5.8      3.856      6.235
REMARK  Name = 
REMARK  0 active torsions:
REMARK  status: ('A' for Active; 'I' for Inactive)
REMARK                            x       y       z     vdW  Elec       q    Type
REMARK                         _______ _______ _______ _____ _____    ______ ____
ROOT
ATOM      1  C   UNL     1       1.611   3.376  17.810  0.00  0.00    +0.000 C 
ATOM      2  C   UNL     1       2.865   3.605  17.038  0.00  0.00    +0.000 C 
ATOM      3  C   UNL     1       4.751   3.984  15.979  0.00  0.00    +0.000 C 
ATOM      4  N   UNL     1       6.029   4.521  17.036  0.00  0.00    +0.000 N 
ATOM      5  C   UNL     1       7.425   4.830  16.929  0.00  0.00    +0.000 C 
ATOM      6  C   UNL     1       7.733   4.799  15.478  0.00  0.00    +0.000 C 
ATOM      7  C   UNL     1       6.596   5.471  14.668  0.00  0.00    +0.000 C 
ATOM      8  C   UNL     1       5.173   4.669  14.593  0.00  0.00    +0.000 C 
ATOM      9  C   UNL     1       5.482   4.853  19.039  0.00  0.00    +0.000 C 
ATOM     10  C   UNL     1       3.416   4.310  18.967  0.00  0.00    +0.000 C 
ATOM     11  C   UNL     1       2.475   5.615  19.213  0.00  0.00    +0.000 C 
ATOM     12  C   UNL     1       1.726   4.840  20.118  0.00  0.00    +0.000 A 
ATOM     13  C   UNL     1       2.379   4.731  21.396  0.00  0.00    +0.000 A 
ATOM     14  C   UNL     1       2.034   3.554  21.981  0.00  0.00    +0.000 A 
ATOM     15  S   UNL     1       1.134   2.535  20.836  0.00  0.00    +0.000 S 
ATOM     16  C   UNL     1       1.257   3.668  19.457  0.00  0.00    +0.000 A 
ENDROOT
TORSDOF 0
ENDMDL
MODEL 8
REMARK VINA RESULT:      -5.5      3.271      4.821
REMARK  Name = 
REMARK  0 active torsions:
REMARK  status: ('A' for Active; 'I' for Inactive)
REMARK                            x       y       z     vdW  Elec       q    Type
REMARK                         _______ _______ _______ _____ _____    ______ ____
ROOT
ATOM      1  C   UNL     1       3.806   7.230  17.666  0.00  0.00    +0.000 C 
ATOM      2  C   UNL     1       3.102   6.340  18.632  0.00  0.00    +0.000 C 
ATOM      3  C   UNL     1       2.133   4.962  20.041  0.00  0.00    +0.000 C 
ATOM      4  N   UNL     1       3.111   3.568  20.411  0.00  0.00    +0.000 N 
ATOM      5  C   UNL     1       3.038   2.429  21.279  0.00  0.00    +0.000 C 
ATOM      6  C   UNL     1       1.674   2.457  21.863  0.00  0.00    +0.000 C 
ATOM      7  C   UNL     1       0.630   2.835  20.782  0.00  0.00    +0.000 C 
ATOM      8  C   UNL     1       0.654   4.379  20.244  0.00  0.00    +0.000 C 
ATOM      9  C   UNL     1       4.909   3.398  19.334  0.00  0.00    +0.000 C 
ATOM     10  C   UNL     1       4.819   5.179  18.155  0.00  0.00    +0.000 C 
ATOM     11  C   UNL     1       4.642   4.811  16.580  0.00  0.00    +0.000 C 
ATOM     12  C   UNL     1       5.655   5.747  16.301  0.00  0.00    +0.000 A 
ATOM     13  C   UNL     1       6.965   5.209  16.561  0.00  0.00    +0.000 A 
ATOM     14  C   UNL     1       7.807   6.217  16.907  0.00  0.00    +0.000 A 
ATOM     15  S   UNL     1       6.899   7.728  17.141  0.00  0.00    +0.000 S 
ATOM     16  C   UNL     1       5.287   7.013  16.840  0.00  0.00    +0.000 A 
ENDROOT
TORSDOF 0
ENDMDL
MODEL 9
REMARK VINA RESULT:      -5.4      3.940      5.189
REMARK  Name = 
REMARK  0 active torsions:
REMARK  status: ('A' for Active; 'I' for Inactive)
REMARK                            x       y       z     vdW  Elec       q    Type
REMARK                         _______ _______ _______ _____ _____    ______ ____
ROOT
ATOM      1  C   UNL     1       6.372   5.505  18.493  0.00  0.00    +0.000 C 
ATOM      2  C   UNL     1       5.223   4.840  19.169  0.00  0.00    +0.000 C 
ATOM      3  C   UNL     1       3.484   3.854  20.082  0.00  0.00    +0.000 C 
ATOM      4  N   UNL     1       2.378   3.200  18.904  0.00  0.00    +0.000 N 
ATOM      5  C   UNL     1       1.174   2.422  18.908  0.00  0.00    +0.000 C 
ATOM      6  C   UNL     1       0.764   2.325  20.331  0.00  0.00    +0.000 C 
ATOM      7  C   UNL     1       0.959   3.686  21.045  0.00  0.00    +0.000 C 
ATOM      8  C   UNL     1       2.501   4.163  21.308  0.00  0.00    +0.000 C 
ATOM      9  C   UNL     1       2.826   3.619  16.894  0.00  0.00    +0.000 C 
ATOM     10  C   UNL     1       4.634   4.735  17.129  0.00  0.00    +0.000 C 
ATOM     11  C   UNL     1       4.409   6.285  16.685  0.00  0.00    +0.000 C 
ATOM     12  C   UNL     1       5.610   6.197  15.958  0.00  0.00    +0.000 A 
ATOM     13  C   UNL     1       5.425   5.524  14.699  0.00  0.00    +0.000 A 
ATOM     14  C   UNL     1       6.580   4.903  14.344  0.00  0.00    +0.000 A 
ATOM     15  S   UNL     1       7.750   4.962  15.682  0.00  0.00    +0.000 S 
ATOM     16  C   UNL     1       6.660   5.793  16.833  0.00  0.00    +0.000 A 
ENDROOT
TORSDOF 0
ENDMDL
