MODEL 1
REMARK VINA RESULT:      -6.9      0.000      0.000
REMARK  Name = 
REMARK  5 active torsions:
REMARK  status: ('A' for Active; 'I' for Inactive)
REMARK    1  A    between atoms: C_2  and  C_3
REMARK    2  A    between atoms: C_3  and  N_4
REMARK    3  A    between atoms: N_9  and  C_10
REMARK    4  A    between atoms: C_13  and  O_14
REMARK    5  A    between atoms: O_14  and  C_15
REMARK                            x       y       z     vdW  Elec       q    Type
REMARK                         _______ _______ _______ _____ _____    ______ ____
ROOT
ATOM      1  C   UNL     1       4.982   5.092  18.410  0.00  0.00    +0.000 A 
ATOM      2  C   UNL     1       4.862   4.045  17.497  0.00  0.00    +0.000 A 
ATOM      3  C   UNL     1       5.771   3.932  16.443  0.00  0.00    +0.000 A 
ATOM      4  C   UNL     1       6.760   4.898  16.248  0.00  0.00    +0.000 A 
ATOM      5  C   UNL     1       6.887   5.941  17.165  0.00  0.00    +0.000 A 
ATOM      6  C   UNL     1       5.998   6.036  18.243  0.00  0.00    +0.000 A 
ENDROOT
BRANCH   1   9
ATOM      7  O   UNL     1       2.368   6.242  18.316  0.00  0.00    +0.000 OA
ATOM      8  C   UNL     1       2.767   5.671  19.324  0.00  0.00    +0.000 C 
ATOM      9  N   UNL     1       4.050   5.158  19.465  0.00  0.00    +0.000 N 
ATOM     10  H   UNL     1       4.417   5.098  20.405  0.00  0.00    +0.000 HD
BRANCH   8  11
ATOM     11  C   UNL     1       1.918   5.527  20.600  0.00  0.00    +0.000 C 
BRANCH  11  12
ATOM     12  N   UNL     1       1.183   4.252  20.736  0.00  0.00    +0.000 NA
ATOM     13  C   UNL     1       1.770   3.319  21.704  0.00  0.00    +0.000 C 
ATOM     14  C   UNL     1       2.663   2.399  20.898  0.00  0.00    +0.000 C 
ATOM     15  C   UNL     1       1.943   2.279  19.567  0.00  0.00    +0.000 C 
ATOM     16  C   UNL     1       1.043   3.510  19.474  0.00  0.00    +0.000 C 
ENDBRANCH  11  12
ENDBRANCH   8  11
ENDBRANCH   1   9
BRANCH   4  17
ATOM     17  O   UNL     1       7.586   4.677  15.192  0.00  0.00    +0.000 OA
BRANCH  17  18
ATOM     18  C   UNL     1       7.060   4.816  13.879  0.00  0.00    +0.000 C 
ATOM     19  F   UNL     1       7.899   5.406  13.002  0.00  0.00    +0.000 F 
ATOM     20  F   UNL     1       6.723   3.598  13.405  0.00  0.00    +0.000 F 
ATOM     21  F   UNL     1       5.936   5.567  13.946  0.00  0.00    +0.000 F 
ENDBRANCH  17  18
ENDBRANCH   4  17
TORSDOF 5
ENDMDL
MODEL 2
REMARK VINA RESULT:      -6.7      0.180      1.093
REMARK  Name = 
REMARK  5 active torsions:
REMARK  status: ('A' for Active; 'I' for Inactive)
REMARK    1  A    between atoms: C_2  and  C_3
REMARK    2  A    between atoms: C_3  and  N_4
REMARK    3  A    between atoms: N_9  and  C_10
REMARK    4  A    between atoms: C_13  and  O_14
REMARK    5  A    between atoms: O_14  and  C_15
REMARK                            x       y       z     vdW  Elec       q    Type
REMARK                         _______ _______ _______ _____ _____    ______ ____
ROOT
ATOM      1  C   UNL     1       4.872   4.936  18.244  0.00  0.00    +0.000 A 
ATOM      2  C   UNL     1       5.897   5.870  18.097  0.00  0.00    +0.000 A 
ATOM      3  C   UNL     1       6.782   5.769  17.022  0.00  0.00    +0.000 A 
ATOM      4  C   UNL     1       6.698   4.702  16.126  0.00  0.00    +0.000 A 
ATOM      5  C   UNL     1       5.669   3.771  16.266  0.00  0.00    +0.000 A 
ATOM      6  C   UNL     1       4.759   3.890  17.324  0.00  0.00    +0.000 A 
ENDROOT
BRANCH   1   9
ATOM      7  O   UNL     1       2.275   6.128  18.205  0.00  0.00    +0.000 OA
ATOM      8  C   UNL     1       2.714   5.612  19.226  0.00  0.00    +0.000 C 
ATOM      9  N   UNL     1       3.994   5.084  19.336  0.00  0.00    +0.000 N 
ATOM     10  H   UNL     1       4.406   5.074  20.260  0.00  0.00    +0.000 HD
BRANCH   8  11
ATOM     11  C   UNL     1       1.927   5.562  20.548  0.00  0.00    +0.000 C 
BRANCH  11  12
ATOM     12  N   UNL     1       1.207   4.298  20.813  0.00  0.00    +0.000 NA
ATOM     13  C   UNL     1       1.897   3.395  21.739  0.00  0.00    +0.000 C 
ATOM     14  C   UNL     1       2.687   2.439  20.869  0.00  0.00    +0.000 C 
ATOM     15  C   UNL     1       1.818   2.280  19.635  0.00  0.00    +0.000 C 
ATOM     16  C   UNL     1       0.919   3.515  19.603  0.00  0.00    +0.000 C 
ENDBRANCH  11  12
ENDBRANCH   8  11
ENDBRANCH   1   9
BRANCH   4  17
ATOM     17  O   UNL     1       7.612   4.715  15.120  0.00  0.00    +0.000 OA
BRANCH  17  18
ATOM     18  C   UNL     1       7.149   4.865  13.785  0.00  0.00    +0.000 C 
ATOM     19  F   UNL     1       8.026   5.469  12.956  0.00  0.00    +0.000 F 
ATOM     20  F   UNL     1       6.840   3.650  13.283  0.00  0.00    +0.000 F 
ATOM     21  F   UNL     1       6.019   5.610  13.806  0.00  0.00    +0.000 F 
ENDBRANCH  17  18
ENDBRANCH   4  17
TORSDOF 5
ENDMDL
MODEL 3
REMARK VINA RESULT:      -6.7      1.354      1.884
REMARK  Name = 
REMARK  5 active torsions:
REMARK  status: ('A' for Active; 'I' for Inactive)
REMARK    1  A    between atoms: C_2  and  C_3
REMARK    2  A    between atoms: C_3  and  N_4
REMARK    3  A    between atoms: N_9  and  C_10
REMARK    4  A    between atoms: C_13  and  O_14
REMARK    5  A    between atoms: O_14  and  C_15
REMARK                            x       y       z     vdW  Elec       q    Type
REMARK                         _______ _______ _______ _____ _____    ______ ____
ROOT
ATOM      1  C   UNL     1       4.567   5.074  17.310  0.00  0.00    +0.000 A 
ATOM      2  C   UNL     1       4.922   6.113  16.450  0.00  0.00    +0.000 A 
ATOM      3  C   UNL     1       5.620   5.835  15.273  0.00  0.00    +0.000 A 
ATOM      4  C   UNL     1       6.033   4.534  14.978  0.00  0.00    +0.000 A 
ATOM      5  C   UNL     1       5.672   3.493  15.833  0.00  0.00    +0.000 A 
ATOM      6  C   UNL     1       4.941   3.764  16.996  0.00  0.00    +0.000 A 
ENDROOT
BRANCH   1   9
ATOM      7  O   UNL     1       1.727   5.113  17.623  0.00  0.00    +0.000 OA
ATOM      8  C   UNL     1       2.468   5.327  18.576  0.00  0.00    +0.000 C 
ATOM      9  N   UNL     1       3.851   5.399  18.479  0.00  0.00    +0.000 N 
ATOM     10  H   UNL     1       4.328   5.967  19.166  0.00  0.00    +0.000 HD
BRANCH   8  11
ATOM     11  C   UNL     1       1.948   5.631  19.993  0.00  0.00    +0.000 C 
BRANCH  11  12
ATOM     12  N   UNL     1       1.382   4.478  20.725  0.00  0.00    +0.000 NA
ATOM     13  C   UNL     1       2.328   3.819  21.632  0.00  0.00    +0.000 C 
ATOM     14  C   UNL     1       2.923   2.671  20.842  0.00  0.00    +0.000 C 
ATOM     15  C   UNL     1       1.783   2.227  19.945  0.00  0.00    +0.000 C 
ATOM     16  C   UNL     1       0.842   3.427  19.850  0.00  0.00    +0.000 C 
ENDBRANCH  11  12
ENDBRANCH   8  11
ENDBRANCH   1   9
BRANCH   4  17
ATOM     17  O   UNL     1       6.701   4.390  13.804  0.00  0.00    +0.000 OA
BRANCH  17  18
ATOM     18  C   UNL     1       6.039   3.752  12.720  0.00  0.00    +0.000 C 
ATOM     19  F   UNL     1       4.695   3.875  12.739  0.00  0.00    +0.000 F 
ATOM     20  F   UNL     1       6.505   4.256  11.557  0.00  0.00    +0.000 F 
ATOM     21  F   UNL     1       6.335   2.432  12.755  0.00  0.00    +0.000 F 
ENDBRANCH  17  18
ENDBRANCH   4  17
TORSDOF 5
ENDMDL
MODEL 4
REMARK VINA RESULT:      -6.6      1.644      2.052
REMARK  Name = 
REMARK  5 active torsions:
REMARK  status: ('A' for Active; 'I' for Inactive)
REMARK    1  A    between atoms: C_2  and  C_3
REMARK    2  A    between atoms: C_3  and  N_4
REMARK    3  A    between atoms: N_9  and  C_10
REMARK    4  A    between atoms: C_13  and  O_14
REMARK    5  A    between atoms: O_14  and  C_15
REMARK                            x       y       z     vdW  Elec       q    Type
REMARK                         _______ _______ _______ _____ _____    ______ ____
ROOT
ATOM      1  C   UNL     1       4.593   4.984  16.708  0.00  0.00    +0.000 A 
ATOM      2  C   UNL     1       4.992   3.692  16.368  0.00  0.00    +0.000 A 
ATOM      3  C   UNL     1       5.891   3.495  15.318  0.00  0.00    +0.000 A 
ATOM      4  C   UNL     1       6.344   4.573  14.555  0.00  0.00    +0.000 A 
ATOM      5  C   UNL     1       5.953   5.866  14.898  0.00  0.00    +0.000 A 
ATOM      6  C   UNL     1       5.079   6.069  15.974  0.00  0.00    +0.000 A 
ENDROOT
BRANCH   1   9
ATOM      7  O   UNL     1       5.262   5.307  19.467  0.00  0.00    +0.000 OA
ATOM      8  C   UNL     1       4.097   5.360  19.093  0.00  0.00    +0.000 C 
ATOM      9  N   UNL     1       3.694   5.137  17.783  0.00  0.00    +0.000 N 
ATOM     10  H   UNL     1       2.754   4.792  17.646  0.00  0.00    +0.000 HD
BRANCH   8  11
ATOM     11  C   UNL     1       2.916   5.599  20.052  0.00  0.00    +0.000 C 
BRANCH  11  12
ATOM     12  N   UNL     1       2.420   4.402  20.763  0.00  0.00    +0.000 NA
ATOM     13  C   UNL     1       3.102   3.158  20.394  0.00  0.00    +0.000 C 
ATOM     14  C   UNL     1       2.250   2.527  19.312  0.00  0.00    +0.000 C 
ATOM     15  C   UNL     1       0.836   2.922  19.695  0.00  0.00    +0.000 C 
ATOM     16  C   UNL     1       0.981   4.158  20.582  0.00  0.00    +0.000 C 
ENDBRANCH  11  12
ENDBRANCH   8  11
ENDBRANCH   1   9
BRANCH   4  17
ATOM     17  O   UNL     1       7.219   4.255  13.563  0.00  0.00    +0.000 OA
BRANCH  17  18
ATOM     18  C   UNL     1       6.699   3.890  12.292  0.00  0.00    +0.000 C 
ATOM     19  F   UNL     1       5.352   3.914  12.213  0.00  0.00    +0.000 F 
ATOM     20  F   UNL     1       7.205   4.717  11.352  0.00  0.00    +0.000 F 
ATOM     21  F   UNL     1       7.108   2.632  12.008  0.00  0.00    +0.000 F 
ENDBRANCH  17  18
ENDBRANCH   4  17
TORSDOF 5
ENDMDL
MODEL 5
REMARK VINA RESULT:      -6.6      2.846      3.877
REMARK  Name = 
REMARK  5 active torsions:
REMARK  status: ('A' for Active; 'I' for Inactive)
REMARK    1  A    between atoms: C_2  and  C_3
REMARK    2  A    between atoms: C_3  and  N_4
REMARK    3  A    between atoms: N_9  and  C_10
REMARK    4  A    between atoms: C_13  and  O_14
REMARK    5  A    between atoms: O_14  and  C_15
REMARK                            x       y       z     vdW  Elec       q    Type
REMARK                         _______ _______ _______ _____ _____    ______ ____
ROOT
ATOM      1  C   UNL     1       3.554   5.431  19.037  0.00  0.00    +0.000 A 
ATOM      2  C   UNL     1       2.914   4.632  18.090  0.00  0.00    +0.000 A 
ATOM      3  C   UNL     1       3.664   3.976  17.112  0.00  0.00    +0.000 A 
ATOM      4  C   UNL     1       5.044   4.165  17.024  0.00  0.00    +0.000 A 
ATOM      5  C   UNL     1       5.687   4.958  17.975  0.00  0.00    +0.000 A 
ATOM      6  C   UNL     1       4.941   5.588  18.978  0.00  0.00    +0.000 A 
ENDROOT
BRANCH   1   9
ATOM      7  O   UNL     1       2.330   8.005  18.843  0.00  0.00    +0.000 OA
ATOM      8  C   UNL     1       2.137   7.290  19.819  0.00  0.00    +0.000 C 
ATOM      9  N   UNL     1       2.759   6.063  20.014  0.00  0.00    +0.000 N 
ATOM     10  H   UNL     1       2.878   5.758  20.970  0.00  0.00    +0.000 HD
BRANCH   8  11
ATOM     11  C   UNL     1       1.241   7.703  21.001  0.00  0.00    +0.000 C 
BRANCH  11  12
ATOM     12  N   UNL     1       1.365   9.112  21.433  0.00  0.00    +0.000 NA
ATOM     13  C   UNL     1       1.257   9.308  22.882  0.00  0.00    +0.000 C 
ATOM     14  C   UNL     1      -0.196   9.644  23.145  0.00  0.00    +0.000 C 
ATOM     15  C   UNL     1      -0.613  10.416  21.907  0.00  0.00    +0.000 C 
ATOM     16  C   UNL     1       0.377  10.010  20.816  0.00  0.00    +0.000 C 
ENDBRANCH  11  12
ENDBRANCH   8  11
ENDBRANCH   1   9
BRANCH   4  17
ATOM     17  O   UNL     1       5.664   3.471  16.033  0.00  0.00    +0.000 OA
BRANCH  17  18
ATOM     18  C   UNL     1       6.210   4.193  14.938  0.00  0.00    +0.000 C 
ATOM     19  F   UNL     1       7.467   4.641  15.137  0.00  0.00    +0.000 F 
ATOM     20  F   UNL     1       6.196   3.410  13.838  0.00  0.00    +0.000 F 
ATOM     21  F   UNL     1       5.421   5.267  14.699  0.00  0.00    +0.000 F 
ENDBRANCH  17  18
ENDBRANCH   4  17
TORSDOF 5
ENDMDL
MODEL 6
REMARK VINA RESULT:      -6.6      1.102      1.423
REMARK  Name = 
REMARK  5 active torsions:
REMARK  status: ('A' for Active; 'I' for Inactive)
REMARK    1  A    between atoms: C_2  and  C_3
REMARK    2  A    between atoms: C_3  and  N_4
REMARK    3  A    between atoms: N_9  and  C_10
REMARK    4  A    between atoms: C_13  and  O_14
REMARK    5  A    between atoms: O_14  and  C_15
REMARK                            x       y       z     vdW  Elec       q    Type
REMARK                         _______ _______ _______ _____ _____    ______ ____
ROOT
ATOM      1  C   UNL     1       4.766   5.023  17.586  0.00  0.00    +0.000 A 
ATOM      2  C   UNL     1       4.755   3.730  17.063  0.00  0.00    +0.000 A 
ATOM      3  C   UNL     1       5.478   3.442  15.904  0.00  0.00    +0.000 A 
ATOM      4  C   UNL     1       6.158   4.450  15.218  0.00  0.00    +0.000 A 
ATOM      5  C   UNL     1       6.176   5.742  15.743  0.00  0.00    +0.000 A 
ATOM      6  C   UNL     1       5.481   6.025  16.926  0.00  0.00    +0.000 A 
ENDROOT
BRANCH   1   9
ATOM      7  O   UNL     1       2.067   5.945  17.764  0.00  0.00    +0.000 OA
ATOM      8  C   UNL     1       2.697   5.646  18.772  0.00  0.00    +0.000 C 
ATOM      9  N   UNL     1       4.032   5.264  18.765  0.00  0.00    +0.000 N 
ATOM     10  H   UNL     1       4.563   5.444  19.606  0.00  0.00    +0.000 HD
BRANCH   8  11
ATOM     11  C   UNL     1       2.106   5.738  20.191  0.00  0.00    +0.000 C 
BRANCH  11  12
ATOM     12  N   UNL     1       1.399   4.530  20.668  0.00  0.00    +0.000 NA
ATOM     13  C   UNL     1       2.147   3.747  21.656  0.00  0.00    +0.000 C 
ATOM     14  C   UNL     1       2.871   2.675  20.869  0.00  0.00    +0.000 C 
ATOM     15  C   UNL     1       1.919   2.367  19.727  0.00  0.00    +0.000 C 
ATOM     16  C   UNL     1       1.026   3.599  19.593  0.00  0.00    +0.000 C 
ENDBRANCH  11  12
ENDBRANCH   8  11
ENDBRANCH   1   9
BRANCH   4  17
ATOM     17  O   UNL     1       6.827   4.046  14.106  0.00  0.00    +0.000 OA
BRANCH  17  18
ATOM     18  C   UNL     1       6.082   3.777  12.926  0.00  0.00    +0.000 C 
ATOM     19  F   UNL     1       4.795   4.179  12.976  0.00  0.00    +0.000 F 
ATOM     20  F   UNL     1       6.684   4.374  11.875  0.00  0.00    +0.000 F 
ATOM     21  F   UNL     1       6.090   2.440  12.711  0.00  0.00    +0.000 F 
ENDBRANCH  17  18
ENDBRANCH   4  17
TORSDOF 5
ENDMDL
MODEL 7
REMARK VINA RESULT:      -6.5      2.753      3.969
REMARK  Name = 
REMARK  5 active torsions:
REMARK  status: ('A' for Active; 'I' for Inactive)
REMARK    1  A    between atoms: C_2  and  C_3
REMARK    2  A    between atoms: C_3  and  N_4
REMARK    3  A    between atoms: N_9  and  C_10
REMARK    4  A    between atoms: C_13  and  O_14
REMARK    5  A    between atoms: O_14  and  C_15
REMARK                            x       y       z     vdW  Elec       q    Type
REMARK                         _______ _______ _______ _____ _____    ______ ____
ROOT
ATOM      1  C   UNL     1       3.579   5.349  18.865  0.00  0.00    +0.000 A 
ATOM      2  C   UNL     1       4.958   5.555  18.848  0.00  0.00    +0.000 A 
ATOM      3  C   UNL     1       5.738   4.965  17.850  0.00  0.00    +0.000 A 
ATOM      4  C   UNL     1       5.164   4.111  16.907  0.00  0.00    +0.000 A 
ATOM      5  C   UNL     1       3.784   3.911  16.917  0.00  0.00    +0.000 A 
ATOM      6  C   UNL     1       2.995   4.529  17.895  0.00  0.00    +0.000 A 
ENDROOT
BRANCH   1   9
ATOM      7  O   UNL     1       2.343   7.922  18.744  0.00  0.00    +0.000 OA
ATOM      8  C   UNL     1       2.198   7.201  19.724  0.00  0.00    +0.000 C 
ATOM      9  N   UNL     1       2.831   5.975  19.881  0.00  0.00    +0.000 N 
ATOM     10  H   UNL     1       2.996   5.664  20.829  0.00  0.00    +0.000 HD
BRANCH   8  11
ATOM     11  C   UNL     1       1.359   7.606  20.950  0.00  0.00    +0.000 C 
BRANCH  11  12
ATOM     12  N   UNL     1       1.392   9.042  21.300  0.00  0.00    +0.000 NA
ATOM     13  C   UNL     1       1.415   9.309  22.741  0.00  0.00    +0.000 C 
ATOM     14  C   UNL     1      -0.029   9.529  23.141  0.00  0.00    +0.000 C 
ATOM     15  C   UNL     1      -0.641  10.190  21.920  0.00  0.00    +0.000 C 
ATOM     16  C   UNL     1       0.267   9.812  20.750  0.00  0.00    +0.000 C 
ENDBRANCH  11  12
ENDBRANCH   8  11
ENDBRANCH   1   9
BRANCH   4  17
ATOM     17  O   UNL     1       6.024   3.601  15.986  0.00  0.00    +0.000 OA
BRANCH  17  18
ATOM     18  C   UNL     1       6.199   4.300  14.761  0.00  0.00    +0.000 C 
ATOM     19  F   UNL     1       6.005   3.548  13.658  0.00  0.00    +0.000 F 
ATOM     20  F   UNL     1       5.352   5.351  14.725  0.00  0.00    +0.000 F 
ATOM     21  F   UNL     1       7.464   4.779  14.719  0.00  0.00    +0.000 F 
ENDBRANCH  17  18
ENDBRANCH   4  17
TORSDOF 5
ENDMDL
MODEL 8
REMARK VINA RESULT:      -6.5      1.028      1.288
REMARK  Name = 
REMARK  5 active torsions:
REMARK  status: ('A' for Active; 'I' for Inactive)
REMARK    1  A    between atoms: C_2  and  C_3
REMARK    2  A    between atoms: C_3  and  N_4
REMARK    3  A    between atoms: N_9  and  C_10
REMARK    4  A    between atoms: C_13  and  O_14
REMARK    5  A    between atoms: O_14  and  C_15
REMARK                            x       y       z     vdW  Elec       q    Type
REMARK                         _______ _______ _______ _____ _____    ______ ____
ROOT
ATOM      1  C   UNL     1       4.466   5.104  18.105  0.00  0.00    +0.000 A 
ATOM      2  C   UNL     1       4.240   4.215  17.055  0.00  0.00    +0.000 A 
ATOM      3  C   UNL     1       4.818   4.451  15.806  0.00  0.00    +0.000 A 
ATOM      4  C   UNL     1       5.564   5.607  15.572  0.00  0.00    +0.000 A 
ATOM      5  C   UNL     1       5.797   6.494  16.623  0.00  0.00    +0.000 A 
ATOM      6  C   UNL     1       5.248   6.241  17.886  0.00  0.00    +0.000 A 
ENDROOT
BRANCH   1   9
ATOM      7  O   UNL     1       2.240   6.448  19.290  0.00  0.00    +0.000 OA
ATOM      8  C   UNL     1       2.746   5.471  19.831  0.00  0.00    +0.000 C 
ATOM      9  N   UNL     1       3.874   4.819  19.351  0.00  0.00    +0.000 N 
ATOM     10  H   UNL     1       4.445   4.335  20.031  0.00  0.00    +0.000 HD
BRANCH   8  11
ATOM     11  C   UNL     1       2.241   4.895  21.167  0.00  0.00    +0.000 C 
BRANCH  11  12
ATOM     12  N   UNL     1       1.265   3.790  21.056  0.00  0.00    +0.000 NA
ATOM     13  C   UNL     1       1.829   2.462  21.314  0.00  0.00    +0.000 C 
ATOM     14  C   UNL     1       2.199   1.901  19.956  0.00  0.00    +0.000 C 
ATOM     15  C   UNL     1       1.141   2.475  19.033  0.00  0.00    +0.000 C 
ATOM     16  C   UNL     1       0.601   3.714  19.746  0.00  0.00    +0.000 C 
ENDBRANCH  11  12
ENDBRANCH   8  11
ENDBRANCH   1   9
BRANCH   4  17
ATOM     17  O   UNL     1       6.077   5.724  14.319  0.00  0.00    +0.000 OA
BRANCH  17  18
ATOM     18  C   UNL     1       7.088   4.811  13.912  0.00  0.00    +0.000 C 
ATOM     19  F   UNL     1       6.622   3.697  13.309  0.00  0.00    +0.000 F 
ATOM     20  F   UNL     1       7.939   5.437  13.071  0.00  0.00    +0.000 F 
ATOM     21  F   UNL     1       7.784   4.429  15.008  0.00  0.00    +0.000 F 
ENDBRANCH  17  18
ENDBRANCH   4  17
TORSDOF 5
ENDMDL
MODEL 9
REMARK VINA RESULT:      -6.5      5.026      6.709
REMARK  Name = 
REMARK  5 active torsions:
REMARK  status: ('A' for Active; 'I' for Inactive)
REMARK    1  A    between atoms: C_2  and  C_3
REMARK    2  A    between atoms: C_3  and  N_4
REMARK    3  A    between atoms: N_9  and  C_10
REMARK    4  A    between atoms: C_13  and  O_14
REMARK    5  A    between atoms: O_14  and  C_15
REMARK                            x       y       z     vdW  Elec       q    Type
REMARK                         _______ _______ _______ _____ _____    ______ ____
ROOT
ATOM      1  C   UNL     1       2.223   7.131  19.675  0.00  0.00    +0.000 A 
ATOM      2  C   UNL     1       1.597   7.928  20.632  0.00  0.00    +0.000 A 
ATOM      3  C   UNL     1       1.028   9.148  20.259  0.00  0.00    +0.000 A 
ATOM      4  C   UNL     1       1.139   9.616  18.948  0.00  0.00    +0.000 A 
ATOM      5  C   UNL     1       1.758   8.817  17.988  0.00  0.00    +0.000 A 
ATOM      6  C   UNL     1       2.299   7.577  18.352  0.00  0.00    +0.000 A 
ENDROOT
BRANCH   1   9
ATOM      7  O   UNL     1       0.782   4.801  20.485  0.00  0.00    +0.000 OA
ATOM      8  C   UNL     1       2.005   4.788  20.406  0.00  0.00    +0.000 C 
ATOM      9  N   UNL     1       2.772   5.903  20.094  0.00  0.00    +0.000 N 
ATOM     10  H   UNL     1       3.718   5.921  20.449  0.00  0.00    +0.000 HD
BRANCH   8  11
ATOM     11  C   UNL     1       2.855   3.546  20.730  0.00  0.00    +0.000 C 
BRANCH  11  12
ATOM     12  N   UNL     1       3.041   2.592  19.615  0.00  0.00    +0.000 NA
ATOM     13  C   UNL     1       4.303   2.757  18.888  0.00  0.00    +0.000 C 
ATOM     14  C   UNL     1       3.983   3.648  17.705  0.00  0.00    +0.000 C 
ATOM     15  C   UNL     1       2.560   3.266  17.346  0.00  0.00    +0.000 C 
ATOM     16  C   UNL     1       1.971   2.640  18.609  0.00  0.00    +0.000 C 
ENDBRANCH  11  12
ENDBRANCH   8  11
ENDBRANCH   1   9
BRANCH   4  17
ATOM     17  O   UNL     1       0.542  10.813  18.707  0.00  0.00    +0.000 OA
BRANCH  17  18
ATOM     18  C   UNL     1      -0.856  10.835  18.452  0.00  0.00    +0.000 C 
ATOM     19  F   UNL     1      -1.311   9.772  17.756  0.00  0.00    +0.000 F 
ATOM     20  F   UNL     1      -1.520  10.904  19.625  0.00  0.00    +0.000 F 
ATOM     21  F   UNL     1      -1.142  11.949  17.739  0.00  0.00    +0.000 F 
ENDBRANCH  17  18
ENDBRANCH   4  17
TORSDOF 5
ENDMDL
