MODEL 1
REMARK VINA RESULT:      -7.9      0.000      0.000
REMARK  Name = 
REMARK  12 active torsions:
REMARK  status: ('A' for Active; 'I' for Inactive)
REMARK    1  A    between atoms: C_1  and  C_2
REMARK    2  A    between atoms: N_4  and  C_5
REMARK    3  A    between atoms: C_6  and  N_7
REMARK    4  A    between atoms: C_8  and  C_10
REMARK    5  A    between atoms: C_18  and  C_19
REMARK    6  A    between atoms: C_19  and  O_21
REMARK    7  A    between atoms: C_23  and  C_24
REMARK    8  A    between atoms: C_24  and  O_25
REMARK    9  A    between atoms: C_24  and  C_26
REMARK   10  A    between atoms: C_26  and  O_27
REMARK   11  A    between atoms: C_26  and  C_28
REMARK   12  A    between atoms: C_28  and  O_29
REMARK                            x       y       z     vdW  Elec       q    Type
REMARK                         _______ _______ _______ _____ _____    ______ ____
ROOT
ATOM      1  C   UNL     1       4.639   5.607  17.978  0.00  0.00    +0.000 C 
ATOM      2  C   UNL     1       4.055   5.308  19.386  0.00  0.00    +0.000 C 
ATOM      3  C   UNL     1       3.149   4.122  19.421  0.00  0.00    +0.000 C 
ATOM      4  C   UNL     1       2.864   3.392  18.333  0.00  0.00    +0.000 C 
ATOM      5  O   UNL     1       3.432   3.600  17.090  0.00  0.00    +0.000 OA
ATOM      6  C   UNL     1       4.677   4.340  17.088  0.00  0.00    +0.000 C 
ENDROOT
BRANCH   1  10
ATOM      7  C   UNL     1       8.166   6.911  18.688  0.00  0.00    +0.000 C 
ATOM      8  C   UNL     1       7.016   5.937  18.726  0.00  0.00    +0.000 C 
ATOM      9  O   UNL     1       7.067   4.866  19.316  0.00  0.00    +0.000 OA
ATOM     10  N   UNL     1       5.908   6.362  18.030  0.00  0.00    +0.000 N 
ATOM     11  H   UNL     1       5.876   7.326  17.724  0.00  0.00    +0.000 HD
ENDBRANCH   1  10
BRANCH   2  12
ATOM     12  N   UNL     1       3.315   6.455  19.931  0.00  0.00    +0.000 N 
ATOM     13  C   UNL     1       2.418   7.196  19.169  0.00  0.00    +0.000 C 
ATOM     14  O   UNL     1       2.187   6.967  17.992  0.00  0.00    +0.000 OA
ATOM     15  H   UNL     1       3.312   6.566  20.936  0.00  0.00    +0.000 HD
BRANCH  13  16
ATOM     16  C   UNL     1       1.695   8.301  19.851  0.00  0.00    +0.000 A 
ATOM     17  C   UNL     1       1.238   9.439  19.173  0.00  0.00    +0.000 A 
ATOM     18  C   UNL     1       0.551  10.438  19.873  0.00  0.00    +0.000 A 
ATOM     19  C   UNL     1       0.312  10.297  21.240  0.00  0.00    +0.000 A 
ATOM     20 CL   UNL     1      -0.532  11.530  22.092  0.00  0.00    +0.000 Cl
ATOM     21  C   UNL     1       0.745   9.161  21.918  0.00  0.00    +0.000 A 
ATOM     22  C   UNL     1       1.431   8.162  21.223  0.00  0.00    +0.000 A 
ENDBRANCH  13  16
ENDBRANCH   2  12
BRANCH   4  23
ATOM     23  C   UNL     1       1.831   2.319  18.445  0.00  0.00    +0.000 C 
ATOM     24  O   UNL     1       0.628   2.477  18.321  0.00  0.00    +0.000 OA
BRANCH  23  25
ATOM     25  O   UNL     1       2.407   1.128  18.723  0.00  0.00    +0.000 OA
ATOM     26  H   UNL     1       2.242   0.500  17.993  0.00  0.00    +0.000 HD
ENDBRANCH  23  25
ENDBRANCH   4  23
BRANCH   6  27
ATOM     27  C   UNL     1       4.976   4.654  15.588  0.00  0.00    +0.000 C 
BRANCH  27  28
ATOM     28  O   UNL     1       5.014   6.080  15.404  0.00  0.00    +0.000 OA
ATOM     29  H   UNL     1       5.660   6.443  16.036  0.00  0.00    +0.000 HD
ENDBRANCH  27  28
BRANCH  27  30
ATOM     30  C   UNL     1       6.303   4.039  15.077  0.00  0.00    +0.000 C 
BRANCH  30  31
ATOM     31  O   UNL     1       6.072   3.045  14.065  0.00  0.00    +0.000 OA
ATOM     32  H   UNL     1       6.402   3.397  13.222  0.00  0.00    +0.000 HD
ENDBRANCH  30  31
BRANCH  30  33
ATOM     33  C   UNL     1       7.274   5.044  14.449  0.00  0.00    +0.000 C 
BRANCH  33  34
ATOM     34  O   UNL     1       7.714   5.945  15.471  0.00  0.00    +0.000 OA
ATOM     35  H   UNL     1       7.045   6.660  15.516  0.00  0.00    +0.000 HD
ENDBRANCH  33  34
ENDBRANCH  30  33
ENDBRANCH  27  30
ENDBRANCH   6  27
TORSDOF 11
ENDMDL
MODEL 2
REMARK VINA RESULT:      -7.7      0.848      1.189
REMARK  Name = 
REMARK  12 active torsions:
REMARK  status: ('A' for Active; 'I' for Inactive)
REMARK    1  A    between atoms: C_1  and  C_2
REMARK    2  A    between atoms: N_4  and  C_5
REMARK    3  A    between atoms: C_6  and  N_7
REMARK    4  A    between atoms: C_8  and  C_10
REMARK    5  A    between atoms: C_18  and  C_19
REMARK    6  A    between atoms: C_19  and  O_21
REMARK    7  A    between atoms: C_23  and  C_24
REMARK    8  A    between atoms: C_24  and  O_25
REMARK    9  A    between atoms: C_24  and  C_26
REMARK   10  A    between atoms: C_26  and  O_27
REMARK   11  A    between atoms: C_26  and  C_28
REMARK   12  A    between atoms: C_28  and  O_29
REMARK                            x       y       z     vdW  Elec       q    Type
REMARK                         _______ _______ _______ _____ _____    ______ ____
ROOT
ATOM      1  C   UNL     1       5.003   6.010  17.683  0.00  0.00    +0.000 C 
ATOM      2  C   UNL     1       4.501   5.511  19.066  0.00  0.00    +0.000 C 
ATOM      3  C   UNL     1       3.829   4.179  19.018  0.00  0.00    +0.000 C 
ATOM      4  C   UNL     1       3.670   3.486  17.881  0.00  0.00    +0.000 C 
ATOM      5  O   UNL     1       4.174   3.880  16.657  0.00  0.00    +0.000 OA
ATOM      6  C   UNL     1       5.262   4.836  16.706  0.00  0.00    +0.000 C 
ENDROOT
BRANCH   1  10
ATOM      7  C   UNL     1       8.314   7.821  18.311  0.00  0.00    +0.000 C 
ATOM      8  C   UNL     1       7.374   6.646  18.222  0.00  0.00    +0.000 C 
ATOM      9  O   UNL     1       7.705   5.502  18.504  0.00  0.00    +0.000 OA
ATOM     10  N   UNL     1       6.111   6.980  17.787  0.00  0.00    +0.000 N 
ATOM     11  H   UNL     1       5.863   7.961  17.748  0.00  0.00    +0.000 HD
ENDBRANCH   1  10
BRANCH   2  12
ATOM     12  N   UNL     1       3.569   6.463  19.689  0.00  0.00    +0.000 N 
ATOM     13  C   UNL     1       2.736   7.288  18.945  0.00  0.00    +0.000 C 
ATOM     14  O   UNL     1       2.721   7.305  17.724  0.00  0.00    +0.000 OA
ATOM     15  H   UNL     1       3.394   6.353  20.679  0.00  0.00    +0.000 HD
BRANCH  13  16
ATOM     16  C   UNL     1       1.803   8.170  19.695  0.00  0.00    +0.000 A 
ATOM     17  C   UNL     1       1.211   9.306  19.126  0.00  0.00    +0.000 A 
ATOM     18  C   UNL     1       0.330  10.086  19.883  0.00  0.00    +0.000 A 
ATOM     19  C   UNL     1       0.033   9.729  21.199  0.00  0.00    +0.000 A 
ATOM     20 CL   UNL     1      -1.050  10.694  22.123  0.00  0.00    +0.000 Cl
ATOM     21  C   UNL     1       0.601   8.592  21.766  0.00  0.00    +0.000 A 
ATOM     22  C   UNL     1       1.480   7.810  21.013  0.00  0.00    +0.000 A 
ENDBRANCH  13  16
ENDBRANCH   2  12
BRANCH   4  23
ATOM     23  C   UNL     1       2.853   2.236  17.918  0.00  0.00    +0.000 C 
ATOM     24  O   UNL     1       1.640   2.178  17.812  0.00  0.00    +0.000 OA
BRANCH  23  25
ATOM     25  O   UNL     1       3.643   1.154  18.103  0.00  0.00    +0.000 OA
ATOM     26  H   UNL     1       3.091   0.359  18.244  0.00  0.00    +0.000 HD
ENDBRANCH  23  25
ENDBRANCH   4  23
BRANCH   6  27
ATOM     27  C   UNL     1       5.479   5.301  15.231  0.00  0.00    +0.000 C 
BRANCH  27  28
ATOM     28  O   UNL     1       5.111   6.687  15.117  0.00  0.00    +0.000 OA
ATOM     29  H   UNL     1       4.751   6.826  14.223  0.00  0.00    +0.000 HD
ENDBRANCH  27  28
BRANCH  27  30
ATOM     30  C   UNL     1       6.933   5.118  14.730  0.00  0.00    +0.000 C 
BRANCH  30  31
ATOM     31  O   UNL     1       7.748   4.445  15.704  0.00  0.00    +0.000 OA
ATOM     32  H   UNL     1       8.613   4.270  15.298  0.00  0.00    +0.000 HD
ENDBRANCH  30  31
BRANCH  30  33
ATOM     33  C   UNL     1       7.068   4.295  13.445  0.00  0.00    +0.000 C 
BRANCH  33  34
ATOM     34  O   UNL     1       6.111   3.231  13.488  0.00  0.00    +0.000 OA
ATOM     35  H   UNL     1       6.590   2.418  13.224  0.00  0.00    +0.000 HD
ENDBRANCH  33  34
ENDBRANCH  30  33
ENDBRANCH  27  30
ENDBRANCH   6  27
TORSDOF 11
ENDMDL
MODEL 3
REMARK VINA RESULT:      -7.6      0.919      1.648
REMARK  Name = 
REMARK  12 active torsions:
REMARK  status: ('A' for Active; 'I' for Inactive)
REMARK    1  A    between atoms: C_1  and  C_2
REMARK    2  A    between atoms: N_4  and  C_5
REMARK    3  A    between atoms: C_6  and  N_7
REMARK    4  A    between atoms: C_8  and  C_10
REMARK    5  A    between atoms: C_18  and  C_19
REMARK    6  A    between atoms: C_19  and  O_21
REMARK    7  A    between atoms: C_23  and  C_24
REMARK    8  A    between atoms: C_24  and  O_25
REMARK    9  A    between atoms: C_24  and  C_26
REMARK   10  A    between atoms: C_26  and  O_27
REMARK   11  A    between atoms: C_26  and  C_28
REMARK   12  A    between atoms: C_28  and  O_29
REMARK                            x       y       z     vdW  Elec       q    Type
REMARK                         _______ _______ _______ _____ _____    ______ ____
ROOT
ATOM      1  C   UNL     1       5.028   5.990  17.656  0.00  0.00    +0.000 C 
ATOM      2  C   UNL     1       4.598   5.491  19.063  0.00  0.00    +0.000 C 
ATOM      3  C   UNL     1       4.011   4.118  19.061  0.00  0.00    +0.000 C 
ATOM      4  C   UNL     1       3.864   3.392  17.943  0.00  0.00    +0.000 C 
ATOM      5  O   UNL     1       4.308   3.790  16.697  0.00  0.00    +0.000 OA
ATOM      6  C   UNL     1       5.334   4.814  16.695  0.00  0.00    +0.000 C 
ENDROOT
BRANCH   1  10
ATOM      7  C   UNL     1       8.241   8.014  18.129  0.00  0.00    +0.000 C 
ATOM      8  C   UNL     1       7.375   6.780  18.083  0.00  0.00    +0.000 C 
ATOM      9  O   UNL     1       7.793   5.661  18.348  0.00  0.00    +0.000 OA
ATOM     10  N   UNL     1       6.075   7.030  17.709  0.00  0.00    +0.000 N 
ATOM     11  H   UNL     1       5.762   7.993  17.682  0.00  0.00    +0.000 HD
ENDBRANCH   1  10
BRANCH   2  12
ATOM     12  N   UNL     1       3.625   6.395  19.694  0.00  0.00    +0.000 N 
ATOM     13  C   UNL     1       2.780   7.215  18.957  0.00  0.00    +0.000 C 
ATOM     14  O   UNL     1       2.787   7.266  17.737  0.00  0.00    +0.000 OA
ATOM     15  H   UNL     1       3.435   6.252  20.677  0.00  0.00    +0.000 HD
BRANCH  13  16
ATOM     16  C   UNL     1       1.806   8.046  19.713  0.00  0.00    +0.000 A 
ATOM     17  C   UNL     1       1.413   7.747  21.025  0.00  0.00    +0.000 A 
ATOM     18  C   UNL     1       0.502   8.580  21.685  0.00  0.00    +0.000 A 
ATOM     19  C   UNL     1      -0.008   9.708  21.044  0.00  0.00    +0.000 A 
ATOM     20 CL   UNL     1      -1.129  10.724  21.863  0.00  0.00    +0.000 Cl
ATOM     21  C   UNL     1       0.390  10.023  19.747  0.00  0.00    +0.000 A 
ATOM     22  C   UNL     1       1.300   9.196  19.085  0.00  0.00    +0.000 A 
ENDBRANCH  13  16
ENDBRANCH   2  12
BRANCH   4  23
ATOM     23  C   UNL     1       3.130   2.094  18.028  0.00  0.00    +0.000 C 
ATOM     24  O   UNL     1       3.602   1.037  18.411  0.00  0.00    +0.000 OA
BRANCH  23  25
ATOM     25  O   UNL     1       1.854   2.237  17.603  0.00  0.00    +0.000 OA
ATOM     26  H   UNL     1       1.664   1.587  16.897  0.00  0.00    +0.000 HD
ENDBRANCH  23  25
ENDBRANCH   4  23
BRANCH   6  27
ATOM     27  C   UNL     1       5.480   5.260  15.206  0.00  0.00    +0.000 C 
BRANCH  27  28
ATOM     28  O   UNL     1       5.073   6.635  15.086  0.00  0.00    +0.000 OA
ATOM     29  H   UNL     1       4.496   6.706  14.305  0.00  0.00    +0.000 HD
ENDBRANCH  27  28
BRANCH  27  30
ATOM     30  C   UNL     1       6.916   5.104  14.649  0.00  0.00    +0.000 C 
BRANCH  30  31
ATOM     31  O   UNL     1       7.785   4.461  15.596  0.00  0.00    +0.000 OA
ATOM     32  H   UNL     1       8.594   4.198  15.127  0.00  0.00    +0.000 HD
ENDBRANCH  30  31
BRANCH  30  33
ATOM     33  C   UNL     1       7.018   4.268  13.369  0.00  0.00    +0.000 C 
BRANCH  33  34
ATOM     34  O   UNL     1       6.136   3.147  13.490  0.00  0.00    +0.000 OA
ATOM     35  H   UNL     1       5.473   3.238  12.774  0.00  0.00    +0.000 HD
ENDBRANCH  33  34
ENDBRANCH  30  33
ENDBRANCH  27  30
ENDBRANCH   6  27
TORSDOF 11
ENDMDL
MODEL 4
REMARK VINA RESULT:      -7.6      1.560      2.174
REMARK  Name = 
REMARK  12 active torsions:
REMARK  status: ('A' for Active; 'I' for Inactive)
REMARK    1  A    between atoms: C_1  and  C_2
REMARK    2  A    between atoms: N_4  and  C_5
REMARK    3  A    between atoms: C_6  and  N_7
REMARK    4  A    between atoms: C_8  and  C_10
REMARK    5  A    between atoms: C_18  and  C_19
REMARK    6  A    between atoms: C_19  and  O_21
REMARK    7  A    between atoms: C_23  and  C_24
REMARK    8  A    between atoms: C_24  and  O_25
REMARK    9  A    between atoms: C_24  and  C_26
REMARK   10  A    between atoms: C_26  and  O_27
REMARK   11  A    between atoms: C_26  and  C_28
REMARK   12  A    between atoms: C_28  and  O_29
REMARK                            x       y       z     vdW  Elec       q    Type
REMARK                         _______ _______ _______ _____ _____    ______ ____
ROOT
ATOM      1  C   UNL     1       5.305   6.338  16.733  0.00  0.00    +0.000 C 
ATOM      2  C   UNL     1       4.497   6.140  18.046  0.00  0.00    +0.000 C 
ATOM      3  C   UNL     1       3.888   4.783  18.178  0.00  0.00    +0.000 C 
ATOM      4  C   UNL     1       4.023   3.831  17.243  0.00  0.00    +0.000 C 
ATOM      5  O   UNL     1       4.799   3.965  16.108  0.00  0.00    +0.000 OA
ATOM      6  C   UNL     1       5.820   4.992  16.165  0.00  0.00    +0.000 C 
ENDROOT
BRANCH   1  10
ATOM      7  C   UNL     1       8.260   8.566  17.706  0.00  0.00    +0.000 C 
ATOM      8  C   UNL     1       7.385   7.338  17.729  0.00  0.00    +0.000 C 
ATOM      9  O   UNL     1       7.595   6.381  18.462  0.00  0.00    +0.000 OA
ATOM     10  N   UNL     1       6.332   7.393  16.844  0.00  0.00    +0.000 N 
ATOM     11  H   UNL     1       6.121   8.281  16.407  0.00  0.00    +0.000 HD
ENDBRANCH   1  10
BRANCH   2  12
ATOM     12  N   UNL     1       3.420   7.131  18.184  0.00  0.00    +0.000 N 
ATOM     13  C   UNL     1       2.603   7.197  19.307  0.00  0.00    +0.000 C 
ATOM     14  O   UNL     1       2.700   6.432  20.254  0.00  0.00    +0.000 OA
ATOM     15  H   UNL     1       3.422   7.906  17.534  0.00  0.00    +0.000 HD
BRANCH  13  16
ATOM     16  C   UNL     1       1.584   8.278  19.346  0.00  0.00    +0.000 A 
ATOM     17  C   UNL     1       0.933   8.663  20.526  0.00  0.00    +0.000 A 
ATOM     18  C   UNL     1      -0.007   9.699  20.497  0.00  0.00    +0.000 A 
ATOM     19  C   UNL     1      -0.290  10.354  19.298  0.00  0.00    +0.000 A 
ATOM     20 CL   UNL     1      -1.448  11.626  19.271  0.00  0.00    +0.000 Cl
ATOM     21  C   UNL     1       0.366   9.991  18.124  0.00  0.00    +0.000 A 
ATOM     22  C   UNL     1       1.305   8.958  18.150  0.00  0.00    +0.000 A 
ENDBRANCH  13  16
ENDBRANCH   2  12
BRANCH   4  23
ATOM     23  C   UNL     1       3.252   2.562  17.402  0.00  0.00    +0.000 C 
ATOM     24  O   UNL     1       2.053   2.433  17.219  0.00  0.00    +0.000 OA
BRANCH  23  25
ATOM     25  O   UNL     1       4.063   1.555  17.799  0.00  0.00    +0.000 OA
ATOM     26  H   UNL     1       3.578   0.952  18.395  0.00  0.00    +0.000 HD
ENDBRANCH  23  25
ENDBRANCH   4  23
BRANCH   6  27
ATOM     27  C   UNL     1       6.375   5.113  14.710  0.00  0.00    +0.000 C 
BRANCH  27  28
ATOM     28  O   UNL     1       7.792   5.348  14.767  0.00  0.00    +0.000 OA
ATOM     29  H   UNL     1       7.969   5.912  15.541  0.00  0.00    +0.000 HD
ENDBRANCH  27  28
BRANCH  27  30
ATOM     30  C   UNL     1       6.100   3.866  13.835  0.00  0.00    +0.000 C 
BRANCH  30  31
ATOM     31  O   UNL     1       4.730   3.813  13.403  0.00  0.00    +0.000 OA
ATOM     32  H   UNL     1       4.442   2.885  13.442  0.00  0.00    +0.000 HD
ENDBRANCH  30  31
BRANCH  30  33
ATOM     33  C   UNL     1       6.936   3.786  12.554  0.00  0.00    +0.000 C 
BRANCH  33  34
ATOM     34  O   UNL     1       6.689   2.521  11.932  0.00  0.00    +0.000 OA
ATOM     35  H   UNL     1       6.335   2.717  11.038  0.00  0.00    +0.000 HD
ENDBRANCH  33  34
ENDBRANCH  30  33
ENDBRANCH  27  30
ENDBRANCH   6  27
TORSDOF 11
ENDMDL
MODEL 5
REMARK VINA RESULT:      -7.4      1.410      1.843
REMARK  Name = 
REMARK  12 active torsions:
REMARK  status: ('A' for Active; 'I' for Inactive)
REMARK    1  A    between atoms: C_1  and  C_2
REMARK    2  A    between atoms: N_4  and  C_5
REMARK    3  A    between atoms: C_6  and  N_7
REMARK    4  A    between atoms: C_8  and  C_10
REMARK    5  A    between atoms: C_18  and  C_19
REMARK    6  A    between atoms: C_19  and  O_21
REMARK    7  A    between atoms: C_23  and  C_24
REMARK    8  A    between atoms: C_24  and  O_25
REMARK    9  A    between atoms: C_24  and  C_26
REMARK   10  A    between atoms: C_26  and  O_27
REMARK   11  A    between atoms: C_26  and  C_28
REMARK   12  A    between atoms: C_28  and  O_29
REMARK                            x       y       z     vdW  Elec       q    Type
REMARK                         _______ _______ _______ _____ _____    ______ ____
ROOT
ATOM      1  C   UNL     1       5.616   5.544  18.181  0.00  0.00    +0.000 C 
ATOM      2  C   UNL     1       4.720   5.168  19.394  0.00  0.00    +0.000 C 
ATOM      3  C   UNL     1       3.962   3.895  19.209  0.00  0.00    +0.000 C 
ATOM      4  C   UNL     1       4.045   3.154  18.095  0.00  0.00    +0.000 C 
ATOM      5  O   UNL     1       4.891   3.434  17.039  0.00  0.00    +0.000 OA
ATOM      6  C   UNL     1       6.013   4.298  17.349  0.00  0.00    +0.000 C 
ENDROOT
BRANCH   1  10
ATOM      7  C   UNL     1       8.378   8.188  18.328  0.00  0.00    +0.000 C 
ATOM      8  C   UNL     1       7.163   7.484  17.779  0.00  0.00    +0.000 C 
ATOM      9  O   UNL     1       6.599   7.829  16.749  0.00  0.00    +0.000 OA
ATOM     10  N   UNL     1       6.744   6.423  18.549  0.00  0.00    +0.000 N 
ATOM     11  H   UNL     1       7.361   6.090  19.280  0.00  0.00    +0.000 HD
ENDBRANCH   1  10
BRANCH   2  12
ATOM     12  N   UNL     1       3.751   6.227  19.711  0.00  0.00    +0.000 N 
ATOM     13  C   UNL     1       3.048   6.915  18.729  0.00  0.00    +0.000 C 
ATOM     14  O   UNL     1       3.188   6.711  17.533  0.00  0.00    +0.000 OA
ATOM     15  H   UNL     1       3.448   6.300  20.673  0.00  0.00    +0.000 HD
BRANCH  13  16
ATOM     16  C   UNL     1       2.059   7.928  19.182  0.00  0.00    +0.000 A 
ATOM     17  C   UNL     1       1.588   7.991  20.500  0.00  0.00    +0.000 A 
ATOM     18  C   UNL     1       0.668   8.980  20.865  0.00  0.00    +0.000 A 
ATOM     19  C   UNL     1       0.225   9.907  19.921  0.00  0.00    +0.000 A 
ATOM     20 CL   UNL     1      -0.907  11.118  20.378  0.00  0.00    +0.000 Cl
ATOM     21  C   UNL     1       0.702   9.864  18.614  0.00  0.00    +0.000 A 
ATOM     22  C   UNL     1       1.621   8.879  18.246  0.00  0.00    +0.000 A 
ENDBRANCH  13  16
ENDBRANCH   2  12
BRANCH   4  23
ATOM     23  C   UNL     1       3.133   1.980  17.950  0.00  0.00    +0.000 C 
ATOM     24  O   UNL     1       1.953   2.031  17.646  0.00  0.00    +0.000 OA
BRANCH  23  25
ATOM     25  O   UNL     1       3.789   0.829  18.221  0.00  0.00    +0.000 OA
ATOM     26  H   UNL     1       4.621   0.792  17.708  0.00  0.00    +0.000 HD
ENDBRANCH  23  25
ENDBRANCH   4  23
BRANCH   6  27
ATOM     27  C   UNL     1       6.657   4.659  15.973  0.00  0.00    +0.000 C 
BRANCH  27  28
ATOM     28  O   UNL     1       8.064   4.364  16.022  0.00  0.00    +0.000 OA
ATOM     29  H   UNL     1       8.509   4.931  15.366  0.00  0.00    +0.000 HD
ENDBRANCH  27  28
BRANCH  27  30
ATOM     30  C   UNL     1       6.022   3.912  14.775  0.00  0.00    +0.000 C 
BRANCH  30  31
ATOM     31  O   UNL     1       4.692   4.383  14.502  0.00  0.00    +0.000 OA
ATOM     32  H   UNL     1       4.268   3.747  13.902  0.00  0.00    +0.000 HD
ENDBRANCH  30  31
BRANCH  30  33
ATOM     33  C   UNL     1       6.785   4.054  13.454  0.00  0.00    +0.000 C 
BRANCH  33  34
ATOM     34  O   UNL     1       7.500   5.294  13.478  0.00  0.00    +0.000 OA
ATOM     35  H   UNL     1       8.435   5.070  13.666  0.00  0.00    +0.000 HD
ENDBRANCH  33  34
ENDBRANCH  30  33
ENDBRANCH  27  30
ENDBRANCH   6  27
TORSDOF 11
ENDMDL
MODEL 6
REMARK VINA RESULT:      -7.4      1.537      2.064
REMARK  Name = 
REMARK  12 active torsions:
REMARK  status: ('A' for Active; 'I' for Inactive)
REMARK    1  A    between atoms: C_1  and  C_2
REMARK    2  A    between atoms: N_4  and  C_5
REMARK    3  A    between atoms: C_6  and  N_7
REMARK    4  A    between atoms: C_8  and  C_10
REMARK    5  A    between atoms: C_18  and  C_19
REMARK    6  A    between atoms: C_19  and  O_21
REMARK    7  A    between atoms: C_23  and  C_24
REMARK    8  A    between atoms: C_24  and  O_25
REMARK    9  A    between atoms: C_24  and  C_26
REMARK   10  A    between atoms: C_26  and  O_27
REMARK   11  A    between atoms: C_26  and  C_28
REMARK   12  A    between atoms: C_28  and  O_29
REMARK                            x       y       z     vdW  Elec       q    Type
REMARK                         _______ _______ _______ _____ _____    ______ ____
ROOT
ATOM      1  C   UNL     1       5.254   6.442  16.754  0.00  0.00    +0.000 C 
ATOM      2  C   UNL     1       4.413   6.275  18.051  0.00  0.00    +0.000 C 
ATOM      3  C   UNL     1       3.786   4.927  18.191  0.00  0.00    +0.000 C 
ATOM      4  C   UNL     1       3.932   3.958  17.276  0.00  0.00    +0.000 C 
ATOM      5  O   UNL     1       4.735   4.065  16.156  0.00  0.00    +0.000 OA
ATOM      6  C   UNL     1       5.766   5.081  16.220  0.00  0.00    +0.000 C 
ENDROOT
BRANCH   1  10
ATOM      7  C   UNL     1       8.251   8.619  17.716  0.00  0.00    +0.000 C 
ATOM      8  C   UNL     1       7.369   7.396  17.722  0.00  0.00    +0.000 C 
ATOM      9  O   UNL     1       7.595   6.412  18.414  0.00  0.00    +0.000 OA
ATOM     10  N   UNL     1       6.290   7.487  16.871  0.00  0.00    +0.000 N 
ATOM     11  H   UNL     1       6.072   8.391  16.473  0.00  0.00    +0.000 HD
ENDBRANCH   1  10
BRANCH   2  12
ATOM     12  N   UNL     1       3.345   7.280  18.147  0.00  0.00    +0.000 N 
ATOM     13  C   UNL     1       2.504   7.374  19.249  0.00  0.00    +0.000 C 
ATOM     14  O   UNL     1       2.570   6.625  20.211  0.00  0.00    +0.000 OA
ATOM     15  H   UNL     1       3.371   8.043  17.484  0.00  0.00    +0.000 HD
BRANCH  13  16
ATOM     16  C   UNL     1       1.496   8.467  19.247  0.00  0.00    +0.000 A 
ATOM     17  C   UNL     1       1.088   9.119  18.075  0.00  0.00    +0.000 A 
ATOM     18  C   UNL     1       0.124  10.131  18.141  0.00  0.00    +0.000 A 
ATOM     19  C   UNL     1      -0.437  10.485  19.369  0.00  0.00    +0.000 A 
ATOM     20 CL   UNL     1      -1.621  11.731  19.440  0.00  0.00    +0.000 Cl
ATOM     21  C   UNL     1      -0.052   9.830  20.535  0.00  0.00    +0.000 A 
ATOM     22  C   UNL     1       0.909   8.819  20.473  0.00  0.00    +0.000 A 
ENDBRANCH  13  16
ENDBRANCH   2  12
BRANCH   4  23
ATOM     23  C   UNL     1       3.143   2.701  17.437  0.00  0.00    +0.000 C 
ATOM     24  O   UNL     1       3.586   1.629  17.812  0.00  0.00    +0.000 OA
BRANCH  23  25
ATOM     25  O   UNL     1       1.850   2.900  17.094  0.00  0.00    +0.000 OA
ATOM     26  H   UNL     1       1.416   2.041  16.921  0.00  0.00    +0.000 HD
ENDBRANCH  23  25
ENDBRANCH   4  23
BRANCH   6  27
ATOM     27  C   UNL     1       6.356   5.171  14.777  0.00  0.00    +0.000 C 
BRANCH  27  28
ATOM     28  O   UNL     1       7.773   5.405  14.863  0.00  0.00    +0.000 OA
ATOM     29  H   UNL     1       8.052   5.844  14.040  0.00  0.00    +0.000 HD
ENDBRANCH  27  28
BRANCH  27  30
ATOM     30  C   UNL     1       6.100   3.907  13.922  0.00  0.00    +0.000 C 
BRANCH  30  31
ATOM     31  O   UNL     1       4.743   3.849  13.455  0.00  0.00    +0.000 OA
ATOM     32  H   UNL     1       4.163   3.784  14.232  0.00  0.00    +0.000 HD
ENDBRANCH  30  31
BRANCH  30  33
ATOM     33  C   UNL     1       6.970   3.797  12.665  0.00  0.00    +0.000 C 
BRANCH  33  34
ATOM     34  O   UNL     1       6.606   2.601  11.967  0.00  0.00    +0.000 OA
ATOM     35  H   UNL     1       5.626   2.571  11.963  0.00  0.00    +0.000 HD
ENDBRANCH  33  34
ENDBRANCH  30  33
ENDBRANCH  27  30
ENDBRANCH   6  27
TORSDOF 11
ENDMDL
MODEL 7
REMARK VINA RESULT:      -7.4      0.879      1.059
REMARK  Name = 
REMARK  12 active torsions:
REMARK  status: ('A' for Active; 'I' for Inactive)
REMARK    1  A    between atoms: C_1  and  C_2
REMARK    2  A    between atoms: N_4  and  C_5
REMARK    3  A    between atoms: C_6  and  N_7
REMARK    4  A    between atoms: C_8  and  C_10
REMARK    5  A    between atoms: C_18  and  C_19
REMARK    6  A    between atoms: C_19  and  O_21
REMARK    7  A    between atoms: C_23  and  C_24
REMARK    8  A    between atoms: C_24  and  O_25
REMARK    9  A    between atoms: C_24  and  C_26
REMARK   10  A    between atoms: C_26  and  O_27
REMARK   11  A    between atoms: C_26  and  C_28
REMARK   12  A    between atoms: C_28  and  O_29
REMARK                            x       y       z     vdW  Elec       q    Type
REMARK                         _______ _______ _______ _____ _____    ______ ____
ROOT
ATOM      1  C   UNL     1       4.535   5.270  18.161  0.00  0.00    +0.000 C 
ATOM      2  C   UNL     1       3.887   5.064  19.559  0.00  0.00    +0.000 C 
ATOM      3  C   UNL     1       2.891   3.954  19.602  0.00  0.00    +0.000 C 
ATOM      4  C   UNL     1       2.582   3.212  18.528  0.00  0.00    +0.000 C 
ATOM      5  O   UNL     1       3.202   3.332  17.299  0.00  0.00    +0.000 OA
ATOM      6  C   UNL     1       4.501   3.975  17.313  0.00  0.00    +0.000 C 
ENDROOT
BRANCH   1  10
ATOM      7  C   UNL     1       7.564   7.582  17.811  0.00  0.00    +0.000 C 
ATOM      8  C   UNL     1       6.126   7.154  17.671  0.00  0.00    +0.000 C 
ATOM      9  O   UNL     1       5.276   7.838  17.116  0.00  0.00    +0.000 OA
ATOM     10  N   UNL     1       5.856   5.926  18.231  0.00  0.00    +0.000 N 
ATOM     11  H   UNL     1       6.638   5.345  18.508  0.00  0.00    +0.000 HD
ENDBRANCH   1  10
BRANCH   2  12
ATOM     12  N   UNL     1       3.223   6.283  20.043  0.00  0.00    +0.000 N 
ATOM     13  C   UNL     1       2.390   7.051  19.237  0.00  0.00    +0.000 C 
ATOM     14  O   UNL     1       2.158   6.788  18.067  0.00  0.00    +0.000 OA
ATOM     15  H   UNL     1       3.216   6.437  21.042  0.00  0.00    +0.000 HD
BRANCH  13  16
ATOM     16  C   UNL     1       1.738   8.232  19.860  0.00  0.00    +0.000 A 
ATOM     17  C   UNL     1       1.392   9.378  19.132  0.00  0.00    +0.000 A 
ATOM     18  C   UNL     1       0.767  10.451  19.777  0.00  0.00    +0.000 A 
ATOM     19  C   UNL     1       0.480  10.378  21.140  0.00  0.00    +0.000 A 
ATOM     20 CL   UNL     1      -0.288  11.701  21.925  0.00  0.00    +0.000 Cl
ATOM     21  C   UNL     1       0.803   9.235  21.868  0.00  0.00    +0.000 A 
ATOM     22  C   UNL     1       1.426   8.162  21.227  0.00  0.00    +0.000 A 
ENDBRANCH  13  16
ENDBRANCH   2  12
BRANCH   4  23
ATOM     23  C   UNL     1       1.466   2.226  18.640  0.00  0.00    +0.000 C 
ATOM     24  O   UNL     1       0.301   2.438  18.351  0.00  0.00    +0.000 OA
BRANCH  23  25
ATOM     25  O   UNL     1       1.915   1.047  19.129  0.00  0.00    +0.000 OA
ATOM     26  H   UNL     1       2.238   1.168  20.044  0.00  0.00    +0.000 HD
ENDBRANCH  23  25
ENDBRANCH   4  23
BRANCH   6  27
ATOM     27  C   UNL     1       4.868   4.213  15.814  0.00  0.00    +0.000 C 
BRANCH  27  28
ATOM     28  O   UNL     1       4.852   5.626  15.546  0.00  0.00    +0.000 OA
ATOM     29  H   UNL     1       4.827   6.090  16.401  0.00  0.00    +0.000 HD
ENDBRANCH  27  28
BRANCH  27  30
ATOM     30  C   UNL     1       6.246   3.633  15.413  0.00  0.00    +0.000 C 
BRANCH  30  31
ATOM     31  O   UNL     1       6.321   3.372  14.002  0.00  0.00    +0.000 OA
ATOM     32  H   UNL     1       7.144   2.883  13.833  0.00  0.00    +0.000 HD
ENDBRANCH  30  31
BRANCH  30  33
ATOM     33  C   UNL     1       7.438   4.544  15.724  0.00  0.00    +0.000 C 
BRANCH  33  34
ATOM     34  O   UNL     1       7.985   4.157  16.989  0.00  0.00    +0.000 OA
ATOM     35  H   UNL     1       8.702   3.517  16.796  0.00  0.00    +0.000 HD
ENDBRANCH  33  34
ENDBRANCH  30  33
ENDBRANCH  27  30
ENDBRANCH   6  27
TORSDOF 11
ENDMDL
MODEL 8
REMARK VINA RESULT:      -7.1      0.836      1.217
REMARK  Name = 
REMARK  12 active torsions:
REMARK  status: ('A' for Active; 'I' for Inactive)
REMARK    1  A    between atoms: C_1  and  C_2
REMARK    2  A    between atoms: N_4  and  C_5
REMARK    3  A    between atoms: C_6  and  N_7
REMARK    4  A    between atoms: C_8  and  C_10
REMARK    5  A    between atoms: C_18  and  C_19
REMARK    6  A    between atoms: C_19  and  O_21
REMARK    7  A    between atoms: C_23  and  C_24
REMARK    8  A    between atoms: C_24  and  O_25
REMARK    9  A    between atoms: C_24  and  C_26
REMARK   10  A    between atoms: C_26  and  O_27
REMARK   11  A    between atoms: C_26  and  C_28
REMARK   12  A    between atoms: C_28  and  O_29
REMARK                            x       y       z     vdW  Elec       q    Type
REMARK                         _______ _______ _______ _____ _____    ______ ____
ROOT
ATOM      1  C   UNL     1       4.524   5.778  17.801  0.00  0.00    +0.000 C 
ATOM      2  C   UNL     1       3.839   5.672  19.191  0.00  0.00    +0.000 C 
ATOM      3  C   UNL     1       2.899   4.518  19.311  0.00  0.00    +0.000 C 
ATOM      4  C   UNL     1       2.667   3.662  18.306  0.00  0.00    +0.000 C 
ATOM      5  O   UNL     1       3.323   3.698  17.090  0.00  0.00    +0.000 OA
ATOM      6  C   UNL     1       4.586   4.408  17.082  0.00  0.00    +0.000 C 
ENDROOT
BRANCH   1  10
ATOM      7  C   UNL     1       8.077   7.018  18.498  0.00  0.00    +0.000 C 
ATOM      8  C   UNL     1       6.908   6.067  18.545  0.00  0.00    +0.000 C 
ATOM      9  O   UNL     1       6.939   5.000  19.143  0.00  0.00    +0.000 OA
ATOM     10  N   UNL     1       5.808   6.508  17.846  0.00  0.00    +0.000 N 
ATOM     11  H   UNL     1       5.795   7.471  17.533  0.00  0.00    +0.000 HD
ENDBRANCH   1  10
BRANCH   2  12
ATOM     12  N   UNL     1       3.097   6.894  19.534  0.00  0.00    +0.000 N 
ATOM     13  C   UNL     1       1.994   6.886  20.379  0.00  0.00    +0.000 C 
ATOM     14  O   UNL     1       1.543   5.872  20.887  0.00  0.00    +0.000 OA
ATOM     15  H   UNL     1       3.536   7.777  19.310  0.00  0.00    +0.000 HD
BRANCH  13  16
ATOM     16  C   UNL     1       1.362   8.196  20.687  0.00  0.00    +0.000 A 
ATOM     17  C   UNL     1       0.969   8.562  21.981  0.00  0.00    +0.000 A 
ATOM     18  C   UNL     1       0.392   9.817  22.205  0.00  0.00    +0.000 A 
ATOM     19  C   UNL     1       0.216  10.707  21.145  0.00  0.00    +0.000 A 
ATOM     20 CL   UNL     1      -0.495  12.247  21.430  0.00  0.00    +0.000 Cl
ATOM     21  C   UNL     1       0.620  10.359  19.859  0.00  0.00    +0.000 A 
ATOM     22  C   UNL     1       1.197   9.107  19.631  0.00  0.00    +0.000 A 
ENDBRANCH  13  16
ENDBRANCH   2  12
BRANCH   4  23
ATOM     23  C   UNL     1       1.599   2.632  18.480  0.00  0.00    +0.000 C 
ATOM     24  O   UNL     1       0.423   2.862  18.705  0.00  0.00    +0.000 OA
BRANCH  23  25
ATOM     25  O   UNL     1       2.113   1.386  18.370  0.00  0.00    +0.000 OA
ATOM     26  H   UNL     1       2.668   1.185  19.150  0.00  0.00    +0.000 HD
ENDBRANCH  23  25
ENDBRANCH   4  23
BRANCH   6  27
ATOM     27  C   UNL     1       4.993   4.522  15.579  0.00  0.00    +0.000 C 
BRANCH  27  28
ATOM     28  O   UNL     1       5.052   5.911  15.212  0.00  0.00    +0.000 OA
ATOM     29  H   UNL     1       4.285   6.101  14.642  0.00  0.00    +0.000 HD
ENDBRANCH  27  28
BRANCH  27  30
ATOM     30  C   UNL     1       6.349   3.851  15.250  0.00  0.00    +0.000 C 
BRANCH  30  31
ATOM     31  O   UNL     1       6.371   3.326  13.912  0.00  0.00    +0.000 OA
ATOM     32  H   UNL     1       6.668   4.037  13.319  0.00  0.00    +0.000 HD
ENDBRANCH  30  31
BRANCH  30  33
ATOM     33  C   UNL     1       7.563   4.781  15.344  0.00  0.00    +0.000 C 
BRANCH  33  34
ATOM     34  O   UNL     1       7.708   5.461  14.093  0.00  0.00    +0.000 OA
ATOM     35  H   UNL     1       7.103   6.232  14.125  0.00  0.00    +0.000 HD
ENDBRANCH  33  34
ENDBRANCH  30  33
ENDBRANCH  27  30
ENDBRANCH   6  27
TORSDOF 11
ENDMDL
MODEL 9
REMARK VINA RESULT:      -7.1      1.351      1.709
REMARK  Name = 
REMARK  12 active torsions:
REMARK  status: ('A' for Active; 'I' for Inactive)
REMARK    1  A    between atoms: C_1  and  C_2
REMARK    2  A    between atoms: N_4  and  C_5
REMARK    3  A    between atoms: C_6  and  N_7
REMARK    4  A    between atoms: C_8  and  C_10
REMARK    5  A    between atoms: C_18  and  C_19
REMARK    6  A    between atoms: C_19  and  O_21
REMARK    7  A    between atoms: C_23  and  C_24
REMARK    8  A    between atoms: C_24  and  O_25
REMARK    9  A    between atoms: C_24  and  C_26
REMARK   10  A    between atoms: C_26  and  O_27
REMARK   11  A    between atoms: C_26  and  C_28
REMARK   12  A    between atoms: C_28  and  O_29
REMARK                            x       y       z     vdW  Elec       q    Type
REMARK                         _______ _______ _______ _____ _____    ______ ____
ROOT
ATOM      1  C   UNL     1       5.337   6.061  17.304  0.00  0.00    +0.000 C 
ATOM      2  C   UNL     1       4.673   5.680  18.656  0.00  0.00    +0.000 C 
ATOM      3  C   UNL     1       4.055   4.321  18.660  0.00  0.00    +0.000 C 
ATOM      4  C   UNL     1       4.070   3.512  17.590  0.00  0.00    +0.000 C 
ATOM      5  O   UNL     1       4.720   3.805  16.406  0.00  0.00    +0.000 OA
ATOM      6  C   UNL     1       5.761   4.809  16.496  0.00  0.00    +0.000 C 
ENDROOT
BRANCH   1  10
ATOM      7  C   UNL     1       8.435   8.106  18.234  0.00  0.00    +0.000 C 
ATOM      8  C   UNL     1       7.545   6.891  18.172  0.00  0.00    +0.000 C 
ATOM      9  O   UNL     1       7.828   5.828  18.710  0.00  0.00    +0.000 OA
ATOM     10  N   UNL     1       6.390   7.086  17.449  0.00  0.00    +0.000 N 
ATOM     11  H   UNL     1       6.143   8.033  17.190  0.00  0.00    +0.000 HD
ENDBRANCH   1  10
BRANCH   2  12
ATOM     12  N   UNL     1       3.637   6.645  19.051  0.00  0.00    +0.000 N 
ATOM     13  C   UNL     1       3.057   7.531  18.151  0.00  0.00    +0.000 C 
ATOM     14  O   UNL     1       3.370   7.592  16.972  0.00  0.00    +0.000 OA
ATOM     15  H   UNL     1       3.200   6.507  19.953  0.00  0.00    +0.000 HD
BRANCH  13  16
ATOM     16  C   UNL     1       1.984   8.422  18.665  0.00  0.00    +0.000 A 
ATOM     17  C   UNL     1       1.266   9.298  17.840  0.00  0.00    +0.000 A 
ATOM     18  C   UNL     1       0.257  10.100  18.386  0.00  0.00    +0.000 A 
ATOM     19  C   UNL     1      -0.039  10.022  19.747  0.00  0.00    +0.000 A 
ATOM     20 CL   UNL     1      -1.279  11.012  20.410  0.00  0.00    +0.000 Cl
ATOM     21  C   UNL     1       0.656   9.141  20.571  0.00  0.00    +0.000 A 
ATOM     22  C   UNL     1       1.663   8.338  20.030  0.00  0.00    +0.000 A 
ENDBRANCH  13  16
ENDBRANCH   2  12
BRANCH   4  23
ATOM     23  C   UNL     1       3.296   2.236  17.651  0.00  0.00    +0.000 C 
ATOM     24  O   UNL     1       2.121   2.105  17.355  0.00  0.00    +0.000 OA
BRANCH  23  25
ATOM     25  O   UNL     1       4.074   1.225  18.100  0.00  0.00    +0.000 OA
ATOM     26  H   UNL     1       4.141   1.265  19.074  0.00  0.00    +0.000 HD
ENDBRANCH  23  25
ENDBRANCH   4  23
BRANCH   6  27
ATOM     27  C   UNL     1       6.156   5.136  15.021  0.00  0.00    +0.000 C 
BRANCH  27  28
ATOM     28  O   UNL     1       7.520   5.592  14.991  0.00  0.00    +0.000 OA
ATOM     29  H   UNL     1       7.826   5.552  14.067  0.00  0.00    +0.000 HD
ENDBRANCH  27  28
BRANCH  27  30
ATOM     30  C   UNL     1       6.000   3.936  14.056  0.00  0.00    +0.000 C 
BRANCH  30  31
ATOM     31  O   UNL     1       4.694   3.904  13.457  0.00  0.00    +0.000 OA
ATOM     32  H   UNL     1       4.085   3.493  14.094  0.00  0.00    +0.000 HD
ENDBRANCH  30  31
BRANCH  30  33
ATOM     33  C   UNL     1       6.987   3.923  12.884  0.00  0.00    +0.000 C 
BRANCH  33  34
ATOM     34  O   UNL     1       6.669   2.813  12.038  0.00  0.00    +0.000 OA
ATOM     35  H   UNL     1       5.974   3.125  11.422  0.00  0.00    +0.000 HD
ENDBRANCH  33  34
ENDBRANCH  30  33
ENDBRANCH  27  30
ENDBRANCH   6  27
TORSDOF 11
ENDMDL
