MODEL 1
REMARK VINA RESULT:      -8.6      0.000      0.000
REMARK  Name = 
REMARK  7 active torsions:
REMARK  status: ('A' for Active; 'I' for Inactive)
REMARK    1  A    between atoms: C_1  and  C_2
REMARK    2  A    between atoms: C_2  and  N_3
REMARK    3  A    between atoms: C_2  and  C_28
REMARK    4  A    between atoms: C_6  and  C_7
REMARK    5  A    between atoms: C_10  and  N_11
REMARK    6  A    between atoms: N_11  and  C_12
REMARK    7  A    between atoms: N_11  and  C_13
REMARK                            x       y       z     vdW  Elec       q    Type
REMARK                         _______ _______ _______ _____ _____    ______ ____
ROOT
ATOM      1  N   UNL     1       1.468   4.665  20.915  0.00  0.00    +0.000 N 
ATOM      2  C   UNL     1       2.056   5.587  20.075  0.00  0.00    +0.000 A 
ATOM      3  C   UNL     1       3.072   5.245  19.218  0.00  0.00    +0.000 A 
ATOM      4  C   UNL     1       3.410   6.142  18.225  0.00  0.00    +0.000 A 
ATOM      5  N   UNL     1       2.899   7.386  18.203  0.00  0.00    +0.000 NA
ATOM      6  C   UNL     1       2.017   7.698  19.169  0.00  0.00    +0.000 A 
ATOM      7  N   UNL     1       1.597   9.054  19.234  0.00  0.00    +0.000 N 
ATOM      8  C   UNL     1       1.867  10.006  18.276  0.00  0.00    +0.000 A 
ATOM      9  N   UNL     1       1.399  11.190  18.595  0.00  0.00    +0.000 NA
ATOM     10  C   UNL     1       0.828  11.023  19.828  0.00  0.00    +0.000 A 
ATOM     11  C   UNL     1       0.223  11.973  20.651  0.00  0.00    +0.000 A 
ATOM     12  C   UNL     1      -0.227  11.511  21.875  0.00  0.00    +0.000 A 
ATOM     13  N   UNL     1      -0.126  10.231  22.301  0.00  0.00    +0.000 NA
ATOM     14  C   UNL     1       0.450   9.304  21.496  0.00  0.00    +0.000 A 
ATOM     15  C   UNL     1       0.925   9.701  20.253  0.00  0.00    +0.000 A 
ATOM     16  N   UNL     1       1.541   6.821  20.078  0.00  0.00    +0.000 NA
ATOM     17  H   UNL     1       0.666   5.027  21.416  0.00  0.00    +0.000 HD
ENDROOT
BRANCH   4  18
ATOM     18  C   UNL     1       4.274   5.760  17.099  0.00  0.00    +0.000 A 
ATOM     19  C   UNL     1       4.532   4.410  16.803  0.00  0.00    +0.000 A 
ATOM     20  C   UNL     1       5.329   4.030  15.721  0.00  0.00    +0.000 A 
ATOM     21  C   UNL     1       5.897   4.967  14.848  0.00  0.00    +0.000 A 
ATOM     22  C   UNL     1       5.633   6.313  15.142  0.00  0.00    +0.000 A 
ATOM     23  C   UNL     1       4.847   6.705  16.239  0.00  0.00    +0.000 A 
BRANCH  21  24
ATOM     24  N   UNL     1       6.704   4.564  13.797  0.00  0.00    +0.000 N 
ATOM     25  C   UNL     1       6.245   3.554  12.844  0.00  0.00    +0.000 C 
ATOM     26  C   UNL     1       7.858   5.342  13.363  0.00  0.00    +0.000 C 
ENDBRANCH  21  24
ENDBRANCH   4  18
BRANCH   1  28
ATOM     27  C   UNL     1       1.202   2.719  22.361  0.00  0.00    +0.000 C 
ATOM     28  C   UNL     1       2.168   3.508  21.470  0.00  0.00    +0.000 C 
BRANCH  28  29
ATOM     29  C   UNL     1       2.735   2.650  20.347  0.00  0.00    +0.000 A 
ATOM     30  C   UNL     1       4.089   2.276  20.365  0.00  0.00    +0.000 A 
ATOM     31  C   UNL     1       4.650   1.568  19.300  0.00  0.00    +0.000 A 
ATOM     32  C   UNL     1       3.861   1.206  18.211  0.00  0.00    +0.000 A 
ATOM     33  C   UNL     1       2.509   1.542  18.190  0.00  0.00    +0.000 A 
ATOM     34  C   UNL     1       1.949   2.258  19.250  0.00  0.00    +0.000 A 
ENDBRANCH  28  29
ENDBRANCH   1  28
TORSDOF 4
ENDMDL
MODEL 2
REMARK VINA RESULT:      -8.4      0.120      1.185
REMARK  Name = 
REMARK  7 active torsions:
REMARK  status: ('A' for Active; 'I' for Inactive)
REMARK    1  A    between atoms: C_1  and  C_2
REMARK    2  A    between atoms: C_2  and  N_3
REMARK    3  A    between atoms: C_2  and  C_28
REMARK    4  A    between atoms: C_6  and  C_7
REMARK    5  A    between atoms: C_10  and  N_11
REMARK    6  A    between atoms: N_11  and  C_12
REMARK    7  A    between atoms: N_11  and  C_13
REMARK                            x       y       z     vdW  Elec       q    Type
REMARK                         _______ _______ _______ _____ _____    ______ ____
ROOT
ATOM      1  N   UNL     1       1.497   4.725  20.962  0.00  0.00    +0.000 N 
ATOM      2  C   UNL     1       2.085   5.621  20.096  0.00  0.00    +0.000 A 
ATOM      3  C   UNL     1       3.072   5.245  19.220  0.00  0.00    +0.000 A 
ATOM      4  C   UNL     1       3.406   6.120  18.206  0.00  0.00    +0.000 A 
ATOM      5  N   UNL     1       2.923   7.375  18.179  0.00  0.00    +0.000 NA
ATOM      6  C   UNL     1       2.072   7.721  19.162  0.00  0.00    +0.000 A 
ATOM      7  N   UNL     1       1.684   9.087  19.218  0.00  0.00    +0.000 N 
ATOM      8  C   UNL     1       1.953  10.019  18.240  0.00  0.00    +0.000 A 
ATOM      9  N   UNL     1       1.519  11.218  18.554  0.00  0.00    +0.000 NA
ATOM     10  C   UNL     1       0.975  11.081  19.802  0.00  0.00    +0.000 A 
ATOM     11  C   UNL     1       0.411  12.056  20.626  0.00  0.00    +0.000 A 
ATOM     12  C   UNL     1      -0.019  11.621  21.867  0.00  0.00    +0.000 A 
ATOM     13  N   UNL     1       0.063  10.344  22.308  0.00  0.00    +0.000 NA
ATOM     14  C   UNL     1       0.598   9.394  21.503  0.00  0.00    +0.000 A 
ATOM     15  C   UNL     1       1.053   9.762  20.244  0.00  0.00    +0.000 A 
ATOM     16  N   UNL     1       1.599   6.867  20.094  0.00  0.00    +0.000 NA
ATOM     17  H   UNL     1       0.715   5.112  21.478  0.00  0.00    +0.000 HD
ENDROOT
BRANCH   4  18
ATOM     18  C   UNL     1       4.235   5.703  17.065  0.00  0.00    +0.000 A 
ATOM     19  C   UNL     1       4.875   6.649  16.246  0.00  0.00    +0.000 A 
ATOM     20  C   UNL     1       5.686   6.269  15.175  0.00  0.00    +0.000 A 
ATOM     21  C   UNL     1       5.937   4.925  14.869  0.00  0.00    +0.000 A 
ATOM     22  C   UNL     1       5.301   3.983  15.693  0.00  0.00    +0.000 A 
ATOM     23  C   UNL     1       4.467   4.357  16.762  0.00  0.00    +0.000 A 
BRANCH  21  24
ATOM     24  N   UNL     1       6.726   4.575  13.787  0.00  0.00    +0.000 N 
ATOM     25  C   UNL     1       6.264   3.592  12.808  0.00  0.00    +0.000 C 
ATOM     26  C   UNL     1       7.856   5.389  13.356  0.00  0.00    +0.000 C 
ENDBRANCH  21  24
ENDBRANCH   4  18
BRANCH   1  28
ATOM     27  C   UNL     1       1.185   2.731  22.332  0.00  0.00    +0.000 C 
ATOM     28  C   UNL     1       2.184   3.560  21.517  0.00  0.00    +0.000 C 
BRANCH  28  29
ATOM     29  C   UNL     1       2.819   2.744  20.398  0.00  0.00    +0.000 A 
ATOM     30  C   UNL     1       2.039   2.323  19.308  0.00  0.00    +0.000 A 
ATOM     31  C   UNL     1       2.578   1.499  18.320  0.00  0.00    +0.000 A 
ATOM     32  C   UNL     1       3.910   1.099  18.394  0.00  0.00    +0.000 A 
ATOM     33  C   UNL     1       4.706   1.532  19.452  0.00  0.00    +0.000 A 
ATOM     34  C   UNL     1       4.166   2.349  20.447  0.00  0.00    +0.000 A 
ENDBRANCH  28  29
ENDBRANCH   1  28
TORSDOF 4
ENDMDL
MODEL 3
REMARK VINA RESULT:      -8.2      3.945      8.353
REMARK  Name = 
REMARK  7 active torsions:
REMARK  status: ('A' for Active; 'I' for Inactive)
REMARK    1  A    between atoms: C_1  and  C_2
REMARK    2  A    between atoms: C_2  and  N_3
REMARK    3  A    between atoms: C_2  and  C_28
REMARK    4  A    between atoms: C_6  and  C_7
REMARK    5  A    between atoms: C_10  and  N_11
REMARK    6  A    between atoms: N_11  and  C_12
REMARK    7  A    between atoms: N_11  and  C_13
REMARK                            x       y       z     vdW  Elec       q    Type
REMARK                         _______ _______ _______ _____ _____    ______ ____
ROOT
ATOM      1  N   UNL     1      -2.512  12.031  17.239  0.00  0.00    +0.000 N 
ATOM      2  C   UNL     1      -1.331  11.912  17.938  0.00  0.00    +0.000 A 
ATOM      3  C   UNL     1      -0.865  10.698  18.378  0.00  0.00    +0.000 A 
ATOM      4  C   UNL     1       0.442  10.626  18.815  0.00  0.00    +0.000 A 
ATOM      5  N   UNL     1       1.184  11.735  18.985  0.00  0.00    +0.000 NA
ATOM      6  C   UNL     1       0.605  12.908  18.673  0.00  0.00    +0.000 A 
ATOM      7  N   UNL     1       1.334  14.084  18.998  0.00  0.00    +0.000 N 
ATOM      8  C   UNL     1       2.647  14.104  19.415  0.00  0.00    +0.000 A 
ATOM      9  N   UNL     1       3.071  15.317  19.687  0.00  0.00    +0.000 NA
ATOM     10  C   UNL     1       1.987  16.125  19.476  0.00  0.00    +0.000 A 
ATOM     11  C   UNL     1       1.872  17.503  19.662  0.00  0.00    +0.000 A 
ATOM     12  C   UNL     1       0.624  18.043  19.406  0.00  0.00    +0.000 A 
ATOM     13  N   UNL     1      -0.452  17.335  18.990  0.00  0.00    +0.000 NA
ATOM     14  C   UNL     1      -0.337  15.998  18.796  0.00  0.00    +0.000 A 
ATOM     15  C   UNL     1       0.889  15.391  19.037  0.00  0.00    +0.000 A 
ATOM     16  N   UNL     1      -0.614  13.029  18.108  0.00  0.00    +0.000 NA
ATOM     17  H   UNL     1      -2.683  12.966  16.887  0.00  0.00    +0.000 HD
ENDROOT
BRANCH   4  18
ATOM     18  C   UNL     1       1.115   9.337  19.034  0.00  0.00    +0.000 A 
ATOM     19  C   UNL     1       1.813   8.694  17.998  0.00  0.00    +0.000 A 
ATOM     20  C   UNL     1       2.479   7.483  18.197  0.00  0.00    +0.000 A 
ATOM     21  C   UNL     1       2.518   6.850  19.447  0.00  0.00    +0.000 A 
ATOM     22  C   UNL     1       1.827   7.498  20.481  0.00  0.00    +0.000 A 
ATOM     23  C   UNL     1       1.137   8.708  20.285  0.00  0.00    +0.000 A 
BRANCH  21  24
ATOM     24  N   UNL     1       3.166   5.637  19.612  0.00  0.00    +0.000 N 
ATOM     25  C   UNL     1       4.566   5.476  19.223  0.00  0.00    +0.000 C 
ATOM     26  C   UNL     1       2.644   4.592  20.483  0.00  0.00    +0.000 C 
ENDBRANCH  21  24
ENDBRANCH   4  18
BRANCH   1  28
ATOM     27  C   UNL     1      -3.150   9.696  17.545  0.00  0.00    +0.000 C 
ATOM     28  C   UNL     1      -3.656  11.138  17.416  0.00  0.00    +0.000 C 
BRANCH  28  29
ATOM     29  C   UNL     1      -4.470  11.564  18.631  0.00  0.00    +0.000 A 
ATOM     30  C   UNL     1      -5.806  11.149  18.759  0.00  0.00    +0.000 A 
ATOM     31  C   UNL     1      -6.597  11.603  19.816  0.00  0.00    +0.000 A 
ATOM     32  C   UNL     1      -6.060  12.462  20.771  0.00  0.00    +0.000 A 
ATOM     33  C   UNL     1      -4.728  12.859  20.676  0.00  0.00    +0.000 A 
ATOM     34  C   UNL     1      -3.938  12.414  19.614  0.00  0.00    +0.000 A 
ENDBRANCH  28  29
ENDBRANCH   1  28
TORSDOF 4
ENDMDL
MODEL 4
REMARK VINA RESULT:      -8.2      3.998      8.319
REMARK  Name = 
REMARK  7 active torsions:
REMARK  status: ('A' for Active; 'I' for Inactive)
REMARK    1  A    between atoms: C_1  and  C_2
REMARK    2  A    between atoms: C_2  and  N_3
REMARK    3  A    between atoms: C_2  and  C_28
REMARK    4  A    between atoms: C_6  and  C_7
REMARK    5  A    between atoms: C_10  and  N_11
REMARK    6  A    between atoms: N_11  and  C_12
REMARK    7  A    between atoms: N_11  and  C_13
REMARK                            x       y       z     vdW  Elec       q    Type
REMARK                         _______ _______ _______ _____ _____    ______ ____
ROOT
ATOM      1  N   UNL     1      -2.506  11.996  17.154  0.00  0.00    +0.000 N 
ATOM      2  C   UNL     1      -1.340  11.912  17.884  0.00  0.00    +0.000 A 
ATOM      3  C   UNL     1      -0.848  10.712  18.333  0.00  0.00    +0.000 A 
ATOM      4  C   UNL     1       0.449  10.681  18.804  0.00  0.00    +0.000 A 
ATOM      5  N   UNL     1       1.151  11.812  18.997  0.00  0.00    +0.000 NA
ATOM      6  C   UNL     1       0.543  12.967  18.673  0.00  0.00    +0.000 A 
ATOM      7  N   UNL     1       1.225  14.165  19.020  0.00  0.00    +0.000 N 
ATOM      8  C   UNL     1       2.525  14.225  19.471  0.00  0.00    +0.000 A 
ATOM      9  N   UNL     1       2.903  15.449  19.758  0.00  0.00    +0.000 NA
ATOM     10  C   UNL     1       1.800  16.224  19.520  0.00  0.00    +0.000 A 
ATOM     11  C   UNL     1       1.635  17.596  19.706  0.00  0.00    +0.000 A 
ATOM     12  C   UNL     1       0.378  18.097  19.419  0.00  0.00    +0.000 A 
ATOM     13  N   UNL     1      -0.664  17.357  18.973  0.00  0.00    +0.000 NA
ATOM     14  C   UNL     1      -0.500  16.025  18.779  0.00  0.00    +0.000 A 
ATOM     15  C   UNL     1       0.737  15.457  19.050  0.00  0.00    +0.000 A 
ATOM     16  N   UNL     1      -0.664  13.051  18.076  0.00  0.00    +0.000 NA
ATOM     17  H   UNL     1      -2.697  12.926  16.801  0.00  0.00    +0.000 HD
ENDROOT
BRANCH   4  18
ATOM     18  C   UNL     1       1.157   9.413  19.038  0.00  0.00    +0.000 A 
ATOM     19  C   UNL     1       1.142   8.793  20.300  0.00  0.00    +0.000 A 
ATOM     20  C   UNL     1       1.787   7.576  20.532  0.00  0.00    +0.000 A 
ATOM     21  C   UNL     1       2.461   6.884  19.517  0.00  0.00    +0.000 A 
ATOM     22  C   UNL     1       2.469   7.502  18.258  0.00  0.00    +0.000 A 
ATOM     23  C   UNL     1       1.839   8.737  18.020  0.00  0.00    +0.000 A 
BRANCH  21  24
ATOM     24  N   UNL     1       3.113   5.690  19.780  0.00  0.00    +0.000 N 
ATOM     25  C   UNL     1       2.459   4.634  20.551  0.00  0.00    +0.000 C 
ATOM     26  C   UNL     1       4.291   5.269  19.032  0.00  0.00    +0.000 C 
ENDBRANCH  21  24
ENDBRANCH   4  18
BRANCH   1  28
ATOM     27  C   UNL     1      -3.076   9.660  17.567  0.00  0.00    +0.000 C 
ATOM     28  C   UNL     1      -3.624  11.066  17.298  0.00  0.00    +0.000 C 
BRANCH  28  29
ATOM     29  C   UNL     1      -4.555  11.534  18.411  0.00  0.00    +0.000 A 
ATOM     30  C   UNL     1      -4.045  12.291  19.479  0.00  0.00    +0.000 A 
ATOM     31  C   UNL     1      -4.859  12.651  20.553  0.00  0.00    +0.000 A 
ATOM     32  C   UNL     1      -6.201  12.278  20.567  0.00  0.00    +0.000 A 
ATOM     33  C   UNL     1      -6.731  11.553  19.502  0.00  0.00    +0.000 A 
ATOM     34  C   UNL     1      -5.915  11.184  18.430  0.00  0.00    +0.000 A 
ENDBRANCH  28  29
ENDBRANCH   1  28
TORSDOF 4
ENDMDL
MODEL 5
REMARK VINA RESULT:      -8.0      4.197      8.499
REMARK  Name = 
REMARK  7 active torsions:
REMARK  status: ('A' for Active; 'I' for Inactive)
REMARK    1  A    between atoms: C_1  and  C_2
REMARK    2  A    between atoms: C_2  and  N_3
REMARK    3  A    between atoms: C_2  and  C_28
REMARK    4  A    between atoms: C_6  and  C_7
REMARK    5  A    between atoms: C_10  and  N_11
REMARK    6  A    between atoms: N_11  and  C_12
REMARK    7  A    between atoms: N_11  and  C_13
REMARK                            x       y       z     vdW  Elec       q    Type
REMARK                         _______ _______ _______ _____ _____    ______ ____
ROOT
ATOM      1  N   UNL     1      -2.431  12.020  17.006  0.00  0.00    +0.000 N 
ATOM      2  C   UNL     1      -1.305  11.915  17.793  0.00  0.00    +0.000 A 
ATOM      3  C   UNL     1      -0.852  10.704  18.256  0.00  0.00    +0.000 A 
ATOM      4  C   UNL     1       0.419  10.651  18.792  0.00  0.00    +0.000 A 
ATOM      5  N   UNL     1       1.124  11.771  19.031  0.00  0.00    +0.000 NA
ATOM      6  C   UNL     1       0.548  12.937  18.687  0.00  0.00    +0.000 A 
ATOM      7  N   UNL     1       1.227  14.123  19.080  0.00  0.00    +0.000 N 
ATOM      8  C   UNL     1       2.503  14.162  19.598  0.00  0.00    +0.000 A 
ATOM      9  N   UNL     1       2.881  15.379  19.915  0.00  0.00    +0.000 NA
ATOM     10  C   UNL     1       1.801  16.170  19.628  0.00  0.00    +0.000 A 
ATOM     11  C   UNL     1       1.645  17.543  19.819  0.00  0.00    +0.000 A 
ATOM     12  C   UNL     1       0.410  18.062  19.472  0.00  0.00    +0.000 A 
ATOM     13  N   UNL     1      -0.616  17.340  18.967  0.00  0.00    +0.000 NA
ATOM     14  C   UNL     1      -0.460  16.008  18.769  0.00  0.00    +0.000 A 
ATOM     15  C   UNL     1       0.754  15.421  19.097  0.00  0.00    +0.000 A 
ATOM     16  N   UNL     1      -0.626  13.042  18.030  0.00  0.00    +0.000 NA
ATOM     17  H   UNL     1      -2.592  12.955  16.652  0.00  0.00    +0.000 HD
ENDROOT
BRANCH   4  18
ATOM     18  C   UNL     1       1.098   9.373  19.050  0.00  0.00    +0.000 A 
ATOM     19  C   UNL     1       1.823   8.716  18.041  0.00  0.00    +0.000 A 
ATOM     20  C   UNL     1       2.494   7.514  18.277  0.00  0.00    +0.000 A 
ATOM     21  C   UNL     1       2.512   6.905  19.539  0.00  0.00    +0.000 A 
ATOM     22  C   UNL     1       1.793   7.567  20.546  0.00  0.00    +0.000 A 
ATOM     23  C   UNL     1       1.099   8.767  20.312  0.00  0.00    +0.000 A 
BRANCH  21  24
ATOM     24  N   UNL     1       3.166   5.702  19.740  0.00  0.00    +0.000 N 
ATOM     25  C   UNL     1       2.454   4.542  20.274  0.00  0.00    +0.000 C 
ATOM     26  C   UNL     1       4.451   5.404  19.119  0.00  0.00    +0.000 C 
ENDBRANCH  21  24
ENDBRANCH   4  18
BRANCH   1  28
ATOM     27  C   UNL     1      -3.123   9.814  17.784  0.00  0.00    +0.000 C 
ATOM     28  C   UNL     1      -3.567  11.103  17.084  0.00  0.00    +0.000 C 
BRANCH  28  29
ATOM     29  C   UNL     1      -4.729  11.771  17.808  0.00  0.00    +0.000 A 
ATOM     30  C   UNL     1      -4.719  11.869  19.210  0.00  0.00    +0.000 A 
ATOM     31  C   UNL     1      -5.814  12.393  19.898  0.00  0.00    +0.000 A 
ATOM     32  C   UNL     1      -6.928  12.845  19.196  0.00  0.00    +0.000 A 
ATOM     33  C   UNL     1      -6.943  12.784  17.804  0.00  0.00    +0.000 A 
ATOM     34  C   UNL     1      -5.852  12.251  17.114  0.00  0.00    +0.000 A 
ENDBRANCH  28  29
ENDBRANCH   1  28
TORSDOF 4
ENDMDL
MODEL 6
REMARK VINA RESULT:      -7.9      4.171      8.526
REMARK  Name = 
REMARK  7 active torsions:
REMARK  status: ('A' for Active; 'I' for Inactive)
REMARK    1  A    between atoms: C_1  and  C_2
REMARK    2  A    between atoms: C_2  and  N_3
REMARK    3  A    between atoms: C_2  and  C_28
REMARK    4  A    between atoms: C_6  and  C_7
REMARK    5  A    between atoms: C_10  and  N_11
REMARK    6  A    between atoms: N_11  and  C_12
REMARK    7  A    between atoms: N_11  and  C_13
REMARK                            x       y       z     vdW  Elec       q    Type
REMARK                         _______ _______ _______ _____ _____    ______ ____
ROOT
ATOM      1  N   UNL     1      -2.337  12.016  16.995  0.00  0.00    +0.000 N 
ATOM      2  C   UNL     1      -1.212  11.901  17.782  0.00  0.00    +0.000 A 
ATOM      3  C   UNL     1      -0.749  10.684  18.216  0.00  0.00    +0.000 A 
ATOM      4  C   UNL     1       0.521  10.630  18.754  0.00  0.00    +0.000 A 
ATOM      5  N   UNL     1       1.216  11.749  19.020  0.00  0.00    +0.000 NA
ATOM      6  C   UNL     1       0.632  12.918  18.703  0.00  0.00    +0.000 A 
ATOM      7  N   UNL     1       1.300  14.100  19.123  0.00  0.00    +0.000 N 
ATOM      8  C   UNL     1       2.574  14.137  19.644  0.00  0.00    +0.000 A 
ATOM      9  N   UNL     1       2.942  15.349  19.991  0.00  0.00    +0.000 NA
ATOM     10  C   UNL     1       1.857  16.138  19.720  0.00  0.00    +0.000 A 
ATOM     11  C   UNL     1       1.689  17.505  19.943  0.00  0.00    +0.000 A 
ATOM     12  C   UNL     1       0.450  18.022  19.606  0.00  0.00    +0.000 A 
ATOM     13  N   UNL     1      -0.569  17.303  19.082  0.00  0.00    +0.000 NA
ATOM     14  C   UNL     1      -0.402  15.977  18.854  0.00  0.00    +0.000 A 
ATOM     15  C   UNL     1       0.817  15.393  19.170  0.00  0.00    +0.000 A 
ATOM     16  N   UNL     1      -0.542  13.029  18.046  0.00  0.00    +0.000 NA
ATOM     17  H   UNL     1      -2.506  12.958  16.663  0.00  0.00    +0.000 HD
ENDROOT
BRANCH   4  18
ATOM     18  C   UNL     1       1.209   9.351  18.983  0.00  0.00    +0.000 A 
ATOM     19  C   UNL     1       1.166   8.714  20.236  0.00  0.00    +0.000 A 
ATOM     20  C   UNL     1       1.792   7.487  20.462  0.00  0.00    +0.000 A 
ATOM     21  C   UNL     1       2.476   6.800  19.451  0.00  0.00    +0.000 A 
ATOM     22  C   UNL     1       2.512   7.434  18.199  0.00  0.00    +0.000 A 
ATOM     23  C   UNL     1       1.900   8.679  17.967  0.00  0.00    +0.000 A 
BRANCH  21  24
ATOM     24  N   UNL     1       3.108   5.595  19.708  0.00  0.00    +0.000 N 
ATOM     25  C   UNL     1       4.514   5.398  19.361  0.00  0.00    +0.000 C 
ATOM     26  C   UNL     1       2.558   4.614  20.635  0.00  0.00    +0.000 C 
ENDBRANCH  21  24
ENDBRANCH   4  18
BRANCH   1  28
ATOM     27  C   UNL     1      -3.030   9.810  17.775  0.00  0.00    +0.000 C 
ATOM     28  C   UNL     1      -3.466  11.088  17.050  0.00  0.00    +0.000 C 
BRANCH  28  29
ATOM     29  C   UNL     1      -4.655  11.751  17.734  0.00  0.00    +0.000 A 
ATOM     30  C   UNL     1      -5.673  12.335  16.961  0.00  0.00    +0.000 A 
ATOM     31  C   UNL     1      -6.723  13.027  17.566  0.00  0.00    +0.000 A 
ATOM     32  C   UNL     1      -6.784  13.129  18.954  0.00  0.00    +0.000 A 
ATOM     33  C   UNL     1      -5.800  12.529  19.737  0.00  0.00    +0.000 A 
ATOM     34  C   UNL     1      -4.743  11.844  19.133  0.00  0.00    +0.000 A 
ENDBRANCH  28  29
ENDBRANCH   1  28
TORSDOF 4
ENDMDL
MODEL 7
REMARK VINA RESULT:      -7.9      4.119      8.157
REMARK  Name = 
REMARK  7 active torsions:
REMARK  status: ('A' for Active; 'I' for Inactive)
REMARK    1  A    between atoms: C_1  and  C_2
REMARK    2  A    between atoms: C_2  and  N_3
REMARK    3  A    between atoms: C_2  and  C_28
REMARK    4  A    between atoms: C_6  and  C_7
REMARK    5  A    between atoms: C_10  and  N_11
REMARK    6  A    between atoms: N_11  and  C_12
REMARK    7  A    between atoms: N_11  and  C_13
REMARK                            x       y       z     vdW  Elec       q    Type
REMARK                         _______ _______ _______ _____ _____    ______ ____
ROOT
ATOM      1  N   UNL     1      -2.091  12.091  17.014  0.00  0.00    +0.000 N 
ATOM      2  C   UNL     1      -1.220  11.848  18.054  0.00  0.00    +0.000 A 
ATOM      3  C   UNL     1      -0.717  10.595  18.302  0.00  0.00    +0.000 A 
ATOM      4  C   UNL     1       0.351  10.487  19.170  0.00  0.00    +0.000 A 
ATOM      5  N   UNL     1       0.771  11.538  19.897  0.00  0.00    +0.000 NA
ATOM      6  C   UNL     1       0.127  12.704  19.707  0.00  0.00    +0.000 A 
ATOM      7  N   UNL     1       0.469  13.770  20.582  0.00  0.00    +0.000 N 
ATOM      8  C   UNL     1       1.532  13.756  21.459  0.00  0.00    +0.000 A 
ATOM      9  N   UNL     1       1.604  14.850  22.181  0.00  0.00    +0.000 NA
ATOM     10  C   UNL     1       0.529  15.601  21.792  0.00  0.00    +0.000 A 
ATOM     11  C   UNL     1       0.103  16.839  22.275  0.00  0.00    +0.000 A 
ATOM     12  C   UNL     1      -1.059  17.338  21.713  0.00  0.00    +0.000 A 
ATOM     13  N   UNL     1      -1.776  16.718  20.747  0.00  0.00    +0.000 NA
ATOM     14  C   UNL     1      -1.355  15.521  20.268  0.00  0.00    +0.000 A 
ATOM     15  C   UNL     1      -0.197  14.962  20.790  0.00  0.00    +0.000 A 
ATOM     16  N   UNL     1      -0.825  12.905  18.772  0.00  0.00    +0.000 NA
ATOM     17  H   UNL     1      -2.301  13.074  16.883  0.00  0.00    +0.000 HD
ENDROOT
BRANCH   4  18
ATOM     18  C   UNL     1       1.134   9.248  19.284  0.00  0.00    +0.000 A 
ATOM     19  C   UNL     1       1.146   8.500  20.474  0.00  0.00    +0.000 A 
ATOM     20  C   UNL     1       1.863   7.307  20.588  0.00  0.00    +0.000 A 
ATOM     21  C   UNL     1       2.589   6.767  19.519  0.00  0.00    +0.000 A 
ATOM     22  C   UNL     1       2.570   7.512  18.330  0.00  0.00    +0.000 A 
ATOM     23  C   UNL     1       1.866   8.724  18.212  0.00  0.00    +0.000 A 
BRANCH  21  24
ATOM     24  N   UNL     1       3.311   5.594  19.667  0.00  0.00    +0.000 N 
ATOM     25  C   UNL     1       2.706   4.414  20.281  0.00  0.00    +0.000 C 
ATOM     26  C   UNL     1       4.540   5.342  18.924  0.00  0.00    +0.000 C 
ENDBRANCH  21  24
ENDBRANCH   4  18
BRANCH   1  28
ATOM     27  C   UNL     1      -2.458   9.701  16.696  0.00  0.00    +0.000 C 
ATOM     28  C   UNL     1      -3.039  11.105  16.499  0.00  0.00    +0.000 C 
BRANCH  28  29
ATOM     29  C   UNL     1      -4.387  11.264  17.191  0.00  0.00    +0.000 A 
ATOM     30  C   UNL     1      -4.789  10.333  18.164  0.00  0.00    +0.000 A 
ATOM     31  C   UNL     1      -6.056  10.407  18.743  0.00  0.00    +0.000 A 
ATOM     32  C   UNL     1      -6.935  11.423  18.373  0.00  0.00    +0.000 A 
ATOM     33  C   UNL     1      -6.541  12.372  17.432  0.00  0.00    +0.000 A 
ATOM     34  C   UNL     1      -5.276  12.294  16.845  0.00  0.00    +0.000 A 
ENDBRANCH  28  29
ENDBRANCH   1  28
TORSDOF 4
ENDMDL
MODEL 8
REMARK VINA RESULT:      -7.8      4.225      8.233
REMARK  Name = 
REMARK  7 active torsions:
REMARK  status: ('A' for Active; 'I' for Inactive)
REMARK    1  A    between atoms: C_1  and  C_2
REMARK    2  A    between atoms: C_2  and  N_3
REMARK    3  A    between atoms: C_2  and  C_28
REMARK    4  A    between atoms: C_6  and  C_7
REMARK    5  A    between atoms: C_10  and  N_11
REMARK    6  A    between atoms: N_11  and  C_12
REMARK    7  A    between atoms: N_11  and  C_13
REMARK                            x       y       z     vdW  Elec       q    Type
REMARK                         _______ _______ _______ _____ _____    ______ ____
ROOT
ATOM      1  N   UNL     1      -2.580  12.037  17.438  0.00  0.00    +0.000 N 
ATOM      2  C   UNL     1      -1.542  11.806  18.313  0.00  0.00    +0.000 A 
ATOM      3  C   UNL     1      -0.916  10.586  18.394  0.00  0.00    +0.000 A 
ATOM      4  C   UNL     1       0.280  10.517  19.079  0.00  0.00    +0.000 A 
ATOM      5  N   UNL     1       0.731  11.555  19.805  0.00  0.00    +0.000 NA
ATOM      6  C   UNL     1      -0.017  12.672  19.799  0.00  0.00    +0.000 A 
ATOM      7  N   UNL     1       0.380  13.711  20.684  0.00  0.00    +0.000 N 
ATOM      8  C   UNL     1       1.565  13.733  21.386  0.00  0.00    +0.000 A 
ATOM      9  N   UNL     1       1.671  14.785  22.164  0.00  0.00    +0.000 NA
ATOM     10  C   UNL     1       0.496  15.467  21.997  0.00  0.00    +0.000 A 
ATOM     11  C   UNL     1       0.063  16.635  22.624  0.00  0.00    +0.000 A 
ATOM     12  C   UNL     1      -1.206  17.068  22.282  0.00  0.00    +0.000 A 
ATOM     13  N   UNL     1      -2.019  16.448  21.396  0.00  0.00    +0.000 NA
ATOM     14  C   UNL     1      -1.593  15.320  20.776  0.00  0.00    +0.000 A 
ATOM     15  C   UNL     1      -0.330  14.830  21.074  0.00  0.00    +0.000 A 
ATOM     16  N   UNL     1      -1.117  12.848  19.036  0.00  0.00    +0.000 NA
ATOM     17  H   UNL     1      -2.879  13.004  17.410  0.00  0.00    +0.000 HD
ENDROOT
BRANCH   4  18
ATOM     18  C   UNL     1       1.159   9.342  18.984  0.00  0.00    +0.000 A 
ATOM     19  C   UNL     1       1.337   8.475  20.076  0.00  0.00    +0.000 A 
ATOM     20  C   UNL     1       2.147   7.341  19.994  0.00  0.00    +0.000 A 
ATOM     21  C   UNL     1       2.808   6.980  18.812  0.00  0.00    +0.000 A 
ATOM     22  C   UNL     1       2.624   7.844  17.722  0.00  0.00    +0.000 A 
ATOM     23  C   UNL     1       1.825   8.998  17.802  0.00  0.00    +0.000 A 
BRANCH  21  24
ATOM     24  N   UNL     1       3.625   5.863  18.765  0.00  0.00    +0.000 N 
ATOM     25  C   UNL     1       3.479   4.785  19.742  0.00  0.00    +0.000 C 
ATOM     26  C   UNL     1       4.399   5.519  17.578  0.00  0.00    +0.000 C 
ENDBRANCH  21  24
ENDBRANCH   4  18
BRANCH   1  28
ATOM     27  C   UNL     1      -3.069   9.649  17.551  0.00  0.00    +0.000 C 
ATOM     28  C   UNL     1      -3.524  11.007  17.005  0.00  0.00    +0.000 C 
BRANCH  28  29
ATOM     29  C   UNL     1      -4.932  11.361  17.465  0.00  0.00    +0.000 A 
ATOM     30  C   UNL     1      -5.594  12.468  16.909  0.00  0.00    +0.000 A 
ATOM     31  C   UNL     1      -6.846  12.865  17.381  0.00  0.00    +0.000 A 
ATOM     32  C   UNL     1      -7.465  12.149  18.402  0.00  0.00    +0.000 A 
ATOM     33  C   UNL     1      -6.837  11.030  18.945  0.00  0.00    +0.000 A 
ATOM     34  C   UNL     1      -5.580  10.638  18.480  0.00  0.00    +0.000 A 
ENDBRANCH  28  29
ENDBRANCH   1  28
TORSDOF 4
ENDMDL
MODEL 9
REMARK VINA RESULT:      -7.8      4.130      8.155
REMARK  Name = 
REMARK  7 active torsions:
REMARK  status: ('A' for Active; 'I' for Inactive)
REMARK    1  A    between atoms: C_1  and  C_2
REMARK    2  A    between atoms: C_2  and  N_3
REMARK    3  A    between atoms: C_2  and  C_28
REMARK    4  A    between atoms: C_6  and  C_7
REMARK    5  A    between atoms: C_10  and  N_11
REMARK    6  A    between atoms: N_11  and  C_12
REMARK    7  A    between atoms: N_11  and  C_13
REMARK                            x       y       z     vdW  Elec       q    Type
REMARK                         _______ _______ _______ _____ _____    ______ ____
ROOT
ATOM      1  N   UNL     1      -2.184  12.058  17.025  0.00  0.00    +0.000 N 
ATOM      2  C   UNL     1      -1.275  11.791  18.025  0.00  0.00    +0.000 A 
ATOM      3  C   UNL     1      -0.774  10.530  18.234  0.00  0.00    +0.000 A 
ATOM      4  C   UNL     1       0.327  10.401  19.058  0.00  0.00    +0.000 A 
ATOM      5  N   UNL     1       0.784  11.437  19.782  0.00  0.00    +0.000 NA
ATOM      6  C   UNL     1       0.144  12.610  19.637  0.00  0.00    +0.000 A 
ATOM      7  N   UNL     1       0.530  13.660  20.513  0.00  0.00    +0.000 N 
ATOM      8  C   UNL     1       1.626  13.623  21.346  0.00  0.00    +0.000 A 
ATOM      9  N   UNL     1       1.737  14.705  22.082  0.00  0.00    +0.000 NA
ATOM     10  C   UNL     1       0.654  15.472  21.747  0.00  0.00    +0.000 A 
ATOM     11  C   UNL     1       0.259  16.706  22.265  0.00  0.00    +0.000 A 
ATOM     12  C   UNL     1      -0.919  17.222  21.758  0.00  0.00    +0.000 A 
ATOM     13  N   UNL     1      -1.680  16.624  20.812  0.00  0.00    +0.000 NA
ATOM     14  C   UNL     1      -1.290  15.431  20.299  0.00  0.00    +0.000 A 
ATOM     15  C   UNL     1      -0.116  14.855  20.765  0.00  0.00    +0.000 A 
ATOM     16  N   UNL     1      -0.843  12.834  18.743  0.00  0.00    +0.000 NA
ATOM     17  H   UNL     1      -2.391  13.044  16.917  0.00  0.00    +0.000 HD
ENDROOT
BRANCH   4  18
ATOM     18  C   UNL     1       1.102   9.153  19.121  0.00  0.00    +0.000 A 
ATOM     19  C   UNL     1       1.790   8.665  17.996  0.00  0.00    +0.000 A 
ATOM     20  C   UNL     1       2.552   7.496  18.046  0.00  0.00    +0.000 A 
ATOM     21  C   UNL     1       2.704   6.755  19.225  0.00  0.00    +0.000 A 
ATOM     22  C   UNL     1       2.022   7.248  20.348  0.00  0.00    +0.000 A 
ATOM     23  C   UNL     1       1.237   8.414  20.302  0.00  0.00    +0.000 A 
BRANCH  21  24
ATOM     24  N   UNL     1       3.446   5.586  19.242  0.00  0.00    +0.000 N 
ATOM     25  C   UNL     1       4.897   5.617  19.064  0.00  0.00    +0.000 C 
ATOM     26  C   UNL     1       2.918   4.339  19.783  0.00  0.00    +0.000 C 
ENDBRANCH  21  24
ENDBRANCH   4  18
BRANCH   1  28
ATOM     27  C   UNL     1      -2.628   9.672  16.778  0.00  0.00    +0.000 C 
ATOM     28  C   UNL     1      -3.161  11.088  16.533  0.00  0.00    +0.000 C 
BRANCH  28  29
ATOM     29  C   UNL     1      -4.508  11.312  17.209  0.00  0.00    +0.000 A 
ATOM     30  C   UNL     1      -4.945  10.429  18.211  0.00  0.00    +0.000 A 
ATOM     31  C   UNL     1      -6.213  10.562  18.777  0.00  0.00    +0.000 A 
ATOM     32  C   UNL     1      -7.056  11.591  18.367  0.00  0.00    +0.000 A 
ATOM     33  C   UNL     1      -6.628  12.495  17.397  0.00  0.00    +0.000 A 
ATOM     34  C   UNL     1      -5.362  12.358  16.822  0.00  0.00    +0.000 A 
ENDBRANCH  28  29
ENDBRANCH   1  28
TORSDOF 4
ENDMDL
