MODEL 1
REMARK VINA RESULT:      -7.9      0.000      0.000
REMARK  Name = 
REMARK  2 active torsions:
REMARK  status: ('A' for Active; 'I' for Inactive)
REMARK    1  A    between atoms: C_2  and  C_3
REMARK    2  A    between atoms: N_10  and  C_11
REMARK                            x       y       z     vdW  Elec       q    Type
REMARK                         _______ _______ _______ _____ _____    ______ ____
ROOT
ATOM      1  C   UNL     1      -2.542  10.487  16.724  0.00  0.00    +0.000 C 
ATOM      2  O   UNL     1      -2.809   9.356  17.069  0.00  0.00    +0.000 OA
ATOM      3  N   UNL     1      -1.762  11.391  17.424  0.00  0.00    +0.000 N 
ATOM      4  C   UNL     1      -1.249  11.108  18.689  0.00  0.00    +0.000 A 
ATOM      5  C   UNL     1      -0.316  10.095  18.876  0.00  0.00    +0.000 A 
ATOM      6  C   UNL     1       0.219   9.862  20.165  0.00  0.00    +0.000 A 
ATOM      7  C   UNL     1       1.174   8.882  20.495  0.00  0.00    +0.000 A 
ATOM      8  N   UNL     1       1.720   8.043  19.487  0.00  0.00    +0.000 N 
ATOM      9  N   UNL     1       1.599   8.705  21.762  0.00  0.00    +0.000 NA
ATOM     10  C   UNL     1       1.063   9.486  22.704  0.00  0.00    +0.000 A 
ATOM     11  N   UNL     1       0.159  10.447  22.505  0.00  0.00    +0.000 NA
ATOM     12  C   UNL     1      -0.248  10.627  21.239  0.00  0.00    +0.000 A 
ATOM     13  C   UNL     1      -1.160  11.622  20.927  0.00  0.00    +0.000 A 
ATOM     14  N   UNL     1      -1.625  11.926  19.684  0.00  0.00    +0.000 NA
ATOM     15  H   UNL     1      -1.833  12.378  17.210  0.00  0.00    +0.000 HD
ATOM     16  H   UNL     1       2.320   8.563  18.861  0.00  0.00    +0.000 HD
ENDROOT
BRANCH   8  17
ATOM     17  C   UNL     1       2.183   6.724  19.709  0.00  0.00    +0.000 A 
ATOM     18  C   UNL     1       1.502   5.877  20.595  0.00  0.00    +0.000 A 
ATOM     19  C   UNL     1       1.977   4.591  20.867  0.00  0.00    +0.000 A 
ATOM     20  C   UNL     1       3.160   4.145  20.276  0.00  0.00    +0.000 A 
ATOM     21  C   UNL     1       3.858   4.990  19.418  0.00  0.00    +0.000 A 
ATOM     22 BR   UNL     1       5.482   4.406  18.650  0.00  0.00    +0.000 Br
ATOM     23  C   UNL     1       3.380   6.270  19.138  0.00  0.00    +0.000 A 
ENDBRANCH   8  17
BRANCH   1  25
ATOM     24  C   UNL     1      -3.315  10.222  14.417  0.00  0.00    +0.000 C 
ATOM     25  C   UNL     1      -3.065  11.052  15.441  0.00  0.00    +0.000 C 
ENDBRANCH   1  25
TORSDOF 2
ENDMDL
MODEL 2
REMARK VINA RESULT:      -7.9      1.102      1.490
REMARK  Name = 
REMARK  2 active torsions:
REMARK  status: ('A' for Active; 'I' for Inactive)
REMARK    1  A    between atoms: C_2  and  C_3
REMARK    2  A    between atoms: N_10  and  C_11
REMARK                            x       y       z     vdW  Elec       q    Type
REMARK                         _______ _______ _______ _____ _____    ______ ____
ROOT
ATOM      1  C   UNL     1      -2.471  10.399  16.601  0.00  0.00    +0.000 C 
ATOM      2  O   UNL     1      -2.668   9.237  16.885  0.00  0.00    +0.000 OA
ATOM      3  N   UNL     1      -1.748  11.311  17.350  0.00  0.00    +0.000 N 
ATOM      4  C   UNL     1      -1.219  10.992  18.600  0.00  0.00    +0.000 A 
ATOM      5  C   UNL     1      -0.225  10.030  18.736  0.00  0.00    +0.000 A 
ATOM      6  C   UNL     1       0.324   9.762  20.012  0.00  0.00    +0.000 A 
ATOM      7  C   UNL     1       1.337   8.826  20.293  0.00  0.00    +0.000 A 
ATOM      8  N   UNL     1       1.933   8.078  19.242  0.00  0.00    +0.000 N 
ATOM      9  N   UNL     1       1.772   8.609  21.549  0.00  0.00    +0.000 NA
ATOM     10  C   UNL     1       1.190   9.303  22.530  0.00  0.00    +0.000 A 
ATOM     11  N   UNL     1       0.229  10.217  22.379  0.00  0.00    +0.000 NA
ATOM     12  C   UNL     1      -0.189  10.439  21.124  0.00  0.00    +0.000 A 
ATOM     13  C   UNL     1      -1.160  11.391  20.862  0.00  0.00    +0.000 A 
ATOM     14  N   UNL     1      -1.644  11.732  19.636  0.00  0.00    +0.000 NA
ATOM     15  H   UNL     1      -1.880  12.302  17.189  0.00  0.00    +0.000 HD
ATOM     16  H   UNL     1       2.501   8.666  18.647  0.00  0.00    +0.000 HD
ENDROOT
BRANCH   8  17
ATOM     17  C   UNL     1       2.476   6.779  19.396  0.00  0.00    +0.000 A 
ATOM     18  C   UNL     1       3.622   6.404  18.679  0.00  0.00    +0.000 A 
ATOM     19  C   UNL     1       4.139   5.109  18.778  0.00  0.00    +0.000 A 
ATOM     20  C   UNL     1       3.496   4.161  19.574  0.00  0.00    +0.000 A 
ATOM     21  C   UNL     1       2.342   4.516  20.266  0.00  0.00    +0.000 A 
ATOM     22 BR   UNL     1       1.445   3.223  21.312  0.00  0.00    +0.000 Br
ATOM     23  C   UNL     1       1.830   5.810  20.177  0.00  0.00    +0.000 A 
ENDBRANCH   8  17
BRANCH   1  25
ATOM     24  C   UNL     1      -3.407  10.187  14.349  0.00  0.00    +0.000 C 
ATOM     25  C   UNL     1      -3.028  10.999  15.348  0.00  0.00    +0.000 C 
ENDBRANCH   1  25
TORSDOF 2
ENDMDL
MODEL 3
REMARK VINA RESULT:      -7.6      3.959      7.017
REMARK  Name = 
REMARK  2 active torsions:
REMARK  status: ('A' for Active; 'I' for Inactive)
REMARK    1  A    between atoms: C_2  and  C_3
REMARK    2  A    between atoms: N_10  and  C_11
REMARK                            x       y       z     vdW  Elec       q    Type
REMARK                         _______ _______ _______ _____ _____    ______ ____
ROOT
ATOM      1  C   UNL     1       1.497   8.235  20.290  0.00  0.00    +0.000 C 
ATOM      2  O   UNL     1       1.429   8.318  19.083  0.00  0.00    +0.000 OA
ATOM      3  N   UNL     1       1.752   7.085  21.016  0.00  0.00    +0.000 N 
ATOM      4  C   UNL     1       1.881   5.836  20.409  0.00  0.00    +0.000 A 
ATOM      5  C   UNL     1       2.928   5.567  19.536  0.00  0.00    +0.000 A 
ATOM      6  C   UNL     1       3.058   4.275  18.971  0.00  0.00    +0.000 A 
ATOM      7  C   UNL     1       4.070   3.862  18.085  0.00  0.00    +0.000 A 
ATOM      8  N   UNL     1       5.107   4.759  17.712  0.00  0.00    +0.000 N 
ATOM      9  N   UNL     1       4.093   2.620  17.564  0.00  0.00    +0.000 NA
ATOM     10  C   UNL     1       3.101   1.793  17.906  0.00  0.00    +0.000 A 
ATOM     11  N   UNL     1       2.098   2.075  18.740  0.00  0.00    +0.000 NA
ATOM     12  C   UNL     1       2.091   3.309  19.265  0.00  0.00    +0.000 A 
ATOM     13  C   UNL     1       1.108   3.686  20.167  0.00  0.00    +0.000 A 
ATOM     14  N   UNL     1       1.009   4.891  20.792  0.00  0.00    +0.000 NA
ATOM     15  H   UNL     1       1.505   7.052  21.998  0.00  0.00    +0.000 HD
ATOM     16  H   UNL     1       5.725   4.951  18.489  0.00  0.00    +0.000 HD
ENDROOT
BRANCH   8  17
ATOM     17  C   UNL     1       5.793   4.718  16.473  0.00  0.00    +0.000 A 
ATOM     18  C   UNL     1       7.062   5.299  16.349  0.00  0.00    +0.000 A 
ATOM     19  C   UNL     1       7.728   5.314  15.121  0.00  0.00    +0.000 A 
ATOM     20  C   UNL     1       7.116   4.772  13.990  0.00  0.00    +0.000 A 
ATOM     21  C   UNL     1       5.844   4.219  14.097  0.00  0.00    +0.000 A 
ATOM     22 BR   UNL     1       4.996   3.523  12.560  0.00  0.00    +0.000 Br
ATOM     23  C   UNL     1       5.182   4.194  15.325  0.00  0.00    +0.000 A 
ENDBRANCH   8  17
BRANCH   1  25
ATOM     24  C   UNL     1       0.895   9.252  22.433  0.00  0.00    +0.000 C 
ATOM     25  C   UNL     1       1.292   9.432  21.164  0.00  0.00    +0.000 C 
ENDBRANCH   1  25
TORSDOF 2
ENDMDL
MODEL 4
REMARK VINA RESULT:      -7.6      6.884      8.953
REMARK  Name = 
REMARK  2 active torsions:
REMARK  status: ('A' for Active; 'I' for Inactive)
REMARK    1  A    between atoms: C_2  and  C_3
REMARK    2  A    between atoms: N_10  and  C_11
REMARK                            x       y       z     vdW  Elec       q    Type
REMARK                         _______ _______ _______ _____ _____    ______ ____
ROOT
ATOM      1  C   UNL     1       5.682   2.992  12.080  0.00  0.00    +0.000 C 
ATOM      2  O   UNL     1       4.554   3.405  12.245  0.00  0.00    +0.000 OA
ATOM      3  N   UNL     1       6.761   3.208  12.918  0.00  0.00    +0.000 N 
ATOM      4  C   UNL     1       6.676   4.026  14.045  0.00  0.00    +0.000 A 
ATOM      5  C   UNL     1       5.858   3.688  15.116  0.00  0.00    +0.000 A 
ATOM      6  C   UNL     1       5.827   4.515  16.265  0.00  0.00    +0.000 A 
ATOM      7  C   UNL     1       5.057   4.291  17.421  0.00  0.00    +0.000 A 
ATOM      8  N   UNL     1       4.245   3.130  17.527  0.00  0.00    +0.000 N 
ATOM      9  N   UNL     1       5.061   5.156  18.454  0.00  0.00    +0.000 NA
ATOM     10  C   UNL     1       5.812   6.254  18.332  0.00  0.00    +0.000 A 
ATOM     11  N   UNL     1       6.584   6.564  17.289  0.00  0.00    +0.000 NA
ATOM     12  C   UNL     1       6.586   5.691  16.271  0.00  0.00    +0.000 A 
ATOM     13  C   UNL     1       7.381   5.909  15.157  0.00  0.00    +0.000 A 
ATOM     14  N   UNL     1       7.497   5.087  14.078  0.00  0.00    +0.000 NA
ATOM     15  H   UNL     1       7.701   3.079  12.563  0.00  0.00    +0.000 HD
ATOM     16  H   UNL     1       4.807   2.294  17.616  0.00  0.00    +0.000 HD
ENDROOT
BRANCH   8  17
ATOM     17  C   UNL     1       3.047   3.059  18.280  0.00  0.00    +0.000 A 
ATOM     18  C   UNL     1       1.817   3.356  17.679  0.00  0.00    +0.000 A 
ATOM     19  C   UNL     1       0.633   3.344  18.420  0.00  0.00    +0.000 A 
ATOM     20  C   UNL     1       0.670   3.062  19.787  0.00  0.00    +0.000 A 
ATOM     21  C   UNL     1       1.890   2.795  20.399  0.00  0.00    +0.000 A 
ATOM     22 BR   UNL     1       1.949   2.455  22.256  0.00  0.00    +0.000 Br
ATOM     23  C   UNL     1       3.072   2.798  19.657  0.00  0.00    +0.000 A 
ENDBRANCH   8  17
BRANCH   1  25
ATOM     24  C   UNL     1       6.429   0.897  11.058  0.00  0.00    +0.000 C 
ATOM     25  C   UNL     1       6.041   2.169  10.882  0.00  0.00    +0.000 C 
ENDBRANCH   1  25
TORSDOF 2
ENDMDL
MODEL 5
REMARK VINA RESULT:      -7.3      6.561      8.906
REMARK  Name = 
REMARK  2 active torsions:
REMARK  status: ('A' for Active; 'I' for Inactive)
REMARK    1  A    between atoms: C_2  and  C_3
REMARK    2  A    between atoms: N_10  and  C_11
REMARK                            x       y       z     vdW  Elec       q    Type
REMARK                         _______ _______ _______ _____ _____    ______ ____
ROOT
ATOM      1  C   UNL     1       5.400   3.044  12.211  0.00  0.00    +0.000 C 
ATOM      2  O   UNL     1       4.335   3.554  12.484  0.00  0.00    +0.000 OA
ATOM      3  N   UNL     1       6.571   3.160  12.939  0.00  0.00    +0.000 N 
ATOM      4  C   UNL     1       6.668   3.977  14.065  0.00  0.00    +0.000 A 
ATOM      5  C   UNL     1       5.932   3.709  15.213  0.00  0.00    +0.000 A 
ATOM      6  C   UNL     1       6.087   4.531  16.355  0.00  0.00    +0.000 A 
ATOM      7  C   UNL     1       5.416   4.370  17.582  0.00  0.00    +0.000 A 
ATOM      8  N   UNL     1       4.519   3.285  17.772  0.00  0.00    +0.000 N 
ATOM      9  N   UNL     1       5.597   5.227  18.606  0.00  0.00    +0.000 NA
ATOM     10  C   UNL     1       6.427   6.255  18.407  0.00  0.00    +0.000 A 
ATOM     11  N   UNL     1       7.118   6.500  17.292  0.00  0.00    +0.000 NA
ATOM     12  C   UNL     1       6.944   5.634  16.282  0.00  0.00    +0.000 A 
ATOM     13  C   UNL     1       7.642   5.786  15.095  0.00  0.00    +0.000 A 
ATOM     14  N   UNL     1       7.579   4.962  14.013  0.00  0.00    +0.000 NA
ATOM     15  H   UNL     1       7.457   2.950  12.494  0.00  0.00    +0.000 HD
ATOM     16  H   UNL     1       5.011   2.402  17.809  0.00  0.00    +0.000 HD
ENDROOT
BRANCH   8  17
ATOM     17  C   UNL     1       3.399   3.317  18.639  0.00  0.00    +0.000 A 
ATOM     18  C   UNL     1       2.621   2.167  18.829  0.00  0.00    +0.000 A 
ATOM     19  C   UNL     1       1.482   2.196  19.637  0.00  0.00    +0.000 A 
ATOM     20  C   UNL     1       1.088   3.389  20.244  0.00  0.00    +0.000 A 
ATOM     21  C   UNL     1       1.838   4.543  20.037  0.00  0.00    +0.000 A 
ATOM     22 BR   UNL     1       1.284   6.169  20.822  0.00  0.00    +0.000 Br
ATOM     23  C   UNL     1       2.981   4.513  19.238  0.00  0.00    +0.000 A 
ENDBRANCH   8  17
BRANCH   1  25
ATOM     24  C   UNL     1       6.254   1.049  11.078  0.00  0.00    +0.000 C 
ATOM     25  C   UNL     1       5.567   2.198  10.988  0.00  0.00    +0.000 C 
ENDBRANCH   1  25
TORSDOF 2
ENDMDL
MODEL 6
REMARK VINA RESULT:      -7.2      4.325      7.763
REMARK  Name = 
REMARK  2 active torsions:
REMARK  status: ('A' for Active; 'I' for Inactive)
REMARK    1  A    between atoms: C_2  and  C_3
REMARK    2  A    between atoms: N_10  and  C_11
REMARK                            x       y       z     vdW  Elec       q    Type
REMARK                         _______ _______ _______ _____ _____    ______ ____
ROOT
ATOM      1  C   UNL     1       6.172   4.936  15.762  0.00  0.00    +0.000 C 
ATOM      2  O   UNL     1       6.549   5.716  16.609  0.00  0.00    +0.000 OA
ATOM      3  N   UNL     1       5.139   4.024  15.893  0.00  0.00    +0.000 N 
ATOM      4  C   UNL     1       4.451   3.848  17.092  0.00  0.00    +0.000 A 
ATOM      5  C   UNL     1       3.676   4.867  17.632  0.00  0.00    +0.000 A 
ATOM      6  C   UNL     1       2.952   4.643  18.828  0.00  0.00    +0.000 A 
ATOM      7  C   UNL     1       2.124   5.577  19.477  0.00  0.00    +0.000 A 
ATOM      8  N   UNL     1       1.920   6.866  18.916  0.00  0.00    +0.000 N 
ATOM      9  N   UNL     1       1.503   5.287  20.637  0.00  0.00    +0.000 NA
ATOM     10  C   UNL     1       1.719   4.079  21.164  0.00  0.00    +0.000 A 
ATOM     11  N   UNL     1       2.477   3.117  20.635  0.00  0.00    +0.000 NA
ATOM     12  C   UNL     1       3.080   3.407  19.472  0.00  0.00    +0.000 A 
ATOM     13  C   UNL     1       3.861   2.462  18.827  0.00  0.00    +0.000 A 
ATOM     14  N   UNL     1       4.496   2.621  17.634  0.00  0.00    +0.000 NA
ATOM     15  H   UNL     1       5.089   3.236  15.259  0.00  0.00    +0.000 HD
ATOM     16  H   UNL     1       1.371   6.817  18.068  0.00  0.00    +0.000 HD
ENDROOT
BRANCH   8  17
ATOM     17  C   UNL     1       1.643   8.032  19.672  0.00  0.00    +0.000 A 
ATOM     18  C   UNL     1       1.562   7.964  21.070  0.00  0.00    +0.000 A 
ATOM     19  C   UNL     1       1.236   9.092  21.826  0.00  0.00    +0.000 A 
ATOM     20  C   UNL     1       0.956  10.301  21.188  0.00  0.00    +0.000 A 
ATOM     21  C   UNL     1       1.005  10.371  19.800  0.00  0.00    +0.000 A 
ATOM     22 BR   UNL     1       0.585  11.995  18.931  0.00  0.00    +0.000 Br
ATOM     23  C   UNL     1       1.340   9.248  19.043  0.00  0.00    +0.000 A 
ENDBRANCH   8  17
BRANCH   1  25
ATOM     24  C   UNL     1       6.355   4.011  13.502  0.00  0.00    +0.000 C 
ATOM     25  C   UNL     1       6.828   4.870  14.418  0.00  0.00    +0.000 C 
ENDBRANCH   1  25
TORSDOF 2
ENDMDL
MODEL 7
REMARK VINA RESULT:      -7.2      4.018      7.220
REMARK  Name = 
REMARK  2 active torsions:
REMARK  status: ('A' for Active; 'I' for Inactive)
REMARK    1  A    between atoms: C_2  and  C_3
REMARK    2  A    between atoms: N_10  and  C_11
REMARK                            x       y       z     vdW  Elec       q    Type
REMARK                         _______ _______ _______ _____ _____    ______ ____
ROOT
ATOM      1  C   UNL     1       5.509   6.271  16.349  0.00  0.00    +0.000 C 
ATOM      2  O   UNL     1       6.008   7.252  16.857  0.00  0.00    +0.000 OA
ATOM      3  N   UNL     1       4.316   5.677  16.722  0.00  0.00    +0.000 N 
ATOM      4  C   UNL     1       3.577   6.118  17.819  0.00  0.00    +0.000 A 
ATOM      5  C   UNL     1       3.000   7.383  17.835  0.00  0.00    +0.000 A 
ATOM      6  C   UNL     1       2.218   7.784  18.944  0.00  0.00    +0.000 A 
ATOM      7  C   UNL     1       1.570   9.025  19.088  0.00  0.00    +0.000 A 
ATOM      8  N   UNL     1       1.634   9.993  18.050  0.00  0.00    +0.000 N 
ATOM      9  N   UNL     1       0.876   9.337  20.200  0.00  0.00    +0.000 NA
ATOM     10  C   UNL     1       0.841   8.427  21.177  0.00  0.00    +0.000 A 
ATOM     11  N   UNL     1       1.410   7.221  21.146  0.00  0.00    +0.000 NA
ATOM     12  C   UNL     1       2.087   6.912  20.029  0.00  0.00    +0.000 A 
ATOM     13  C   UNL     1       2.686   5.670  19.889  0.00  0.00    +0.000 A 
ATOM     14  N   UNL     1       3.369   5.225  18.799  0.00  0.00    +0.000 NA
ATOM     15  H   UNL     1       4.129   4.721  16.446  0.00  0.00    +0.000 HD
ATOM     16  H   UNL     1       1.108   9.698  17.238  0.00  0.00    +0.000 HD
ENDROOT
BRANCH   8  17
ATOM     17  C   UNL     1       1.569  11.393  18.257  0.00  0.00    +0.000 A 
ATOM     18  C   UNL     1       0.335  12.015  18.491  0.00  0.00    +0.000 A 
ATOM     19  C   UNL     1       0.248  13.401  18.643  0.00  0.00    +0.000 A 
ATOM     20  C   UNL     1       1.394  14.188  18.533  0.00  0.00    +0.000 A 
ATOM     21  C   UNL     1       2.619  13.582  18.271  0.00  0.00    +0.000 A 
ATOM     22 BR   UNL     1       4.167  14.648  18.079  0.00  0.00    +0.000 Br
ATOM     23  C   UNL     1       2.710  12.197  18.129  0.00  0.00    +0.000 A 
ENDBRANCH   8  17
BRANCH   1  25
ATOM     24  C   UNL     1       5.792   4.309  14.913  0.00  0.00    +0.000 C 
ATOM     25  C   UNL     1       6.173   5.560  15.212  0.00  0.00    +0.000 C 
ENDBRANCH   1  25
TORSDOF 2
ENDMDL
MODEL 8
REMARK VINA RESULT:      -7.1      4.251      7.725
REMARK  Name = 
REMARK  2 active torsions:
REMARK  status: ('A' for Active; 'I' for Inactive)
REMARK    1  A    between atoms: C_2  and  C_3
REMARK    2  A    between atoms: N_10  and  C_11
REMARK                            x       y       z     vdW  Elec       q    Type
REMARK                         _______ _______ _______ _____ _____    ______ ____
ROOT
ATOM      1  C   UNL     1       6.322   5.124  15.574  0.00  0.00    +0.000 C 
ATOM      2  O   UNL     1       6.672   6.106  16.192  0.00  0.00    +0.000 OA
ATOM      3  N   UNL     1       5.321   4.242  15.941  0.00  0.00    +0.000 N 
ATOM      4  C   UNL     1       4.639   4.354  17.152  0.00  0.00    +0.000 A 
ATOM      5  C   UNL     1       3.830   5.451  17.422  0.00  0.00    +0.000 A 
ATOM      6  C   UNL     1       3.115   5.514  18.642  0.00  0.00    +0.000 A 
ATOM      7  C   UNL     1       2.255   6.554  19.040  0.00  0.00    +0.000 A 
ATOM      8  N   UNL     1       2.007   7.652  18.173  0.00  0.00    +0.000 N 
ATOM      9  N   UNL     1       1.645   6.548  20.242  0.00  0.00    +0.000 NA
ATOM     10  C   UNL     1       1.902   5.522  21.056  0.00  0.00    +0.000 A 
ATOM     11  N   UNL     1       2.692   4.482  20.781  0.00  0.00    +0.000 NA
ATOM     12  C   UNL     1       3.284   4.487  19.578  0.00  0.00    +0.000 A 
ATOM     13  C   UNL     1       4.097   3.435  19.187  0.00  0.00    +0.000 A 
ATOM     14  N   UNL     1       4.726   3.307  17.987  0.00  0.00    +0.000 NA
ATOM     15  H   UNL     1       5.297   3.318  15.529  0.00  0.00    +0.000 HD
ATOM     16  H   UNL     1       1.461   7.370  17.370  0.00  0.00    +0.000 HD
ENDROOT
BRANCH   8  17
ATOM     17  C   UNL     1       1.691   8.961  18.611  0.00  0.00    +0.000 A 
ATOM     18  C   UNL     1       2.150  10.075  17.894  0.00  0.00    +0.000 A 
ATOM     19  C   UNL     1       1.892  11.373  18.342  0.00  0.00    +0.000 A 
ATOM     20  C   UNL     1       1.196  11.573  19.535  0.00  0.00    +0.000 A 
ATOM     21  C   UNL     1       0.762  10.473  20.268  0.00  0.00    +0.000 A 
ATOM     22 BR   UNL     1      -0.144  10.739  21.904  0.00  0.00    +0.000 Br
ATOM     23  C   UNL     1       1.010   9.176  19.817  0.00  0.00    +0.000 A 
ENDBRANCH   8  17
BRANCH   1  25
ATOM     24  C   UNL     1       6.323   3.943  13.429  0.00  0.00    +0.000 C 
ATOM     25  C   UNL     1       6.980   4.741  14.285  0.00  0.00    +0.000 C 
ENDBRANCH   1  25
TORSDOF 2
ENDMDL
MODEL 9
REMARK VINA RESULT:      -7.1      4.255      7.671
REMARK  Name = 
REMARK  2 active torsions:
REMARK  status: ('A' for Active; 'I' for Inactive)
REMARK    1  A    between atoms: C_2  and  C_3
REMARK    2  A    between atoms: N_10  and  C_11
REMARK                            x       y       z     vdW  Elec       q    Type
REMARK                         _______ _______ _______ _____ _____    ______ ____
ROOT
ATOM      1  C   UNL     1       6.283   5.421  15.754  0.00  0.00    +0.000 C 
ATOM      2  O   UNL     1       6.627   6.465  16.264  0.00  0.00    +0.000 OA
ATOM      3  N   UNL     1       5.246   4.608  16.179  0.00  0.00    +0.000 N 
ATOM      4  C   UNL     1       4.514   4.880  17.335  0.00  0.00    +0.000 A 
ATOM      5  C   UNL     1       3.719   6.016  17.431  0.00  0.00    +0.000 A 
ATOM      6  C   UNL     1       2.953   6.240  18.599  0.00  0.00    +0.000 A 
ATOM      7  C   UNL     1       2.100   7.337  18.827  0.00  0.00    +0.000 A 
ATOM      8  N   UNL     1       1.916   8.323  17.821  0.00  0.00    +0.000 N 
ATOM      9  N   UNL     1       1.438   7.489  19.990  0.00  0.00    +0.000 NA
ATOM     10  C   UNL     1       1.635   6.567  20.935  0.00  0.00    +0.000 A 
ATOM     11  N   UNL     1       2.412   5.487  20.826  0.00  0.00    +0.000 NA
ATOM     12  C   UNL     1       3.057   5.334  19.660  0.00  0.00    +0.000 A 
ATOM     13  C   UNL     1       3.862   4.228  19.440  0.00  0.00    +0.000 A 
ATOM     14  N   UNL     1       4.540   3.942  18.294  0.00  0.00    +0.000 NA
ATOM     15  H   UNL     1       5.219   3.640  15.882  0.00  0.00    +0.000 HD
ATOM     16  H   UNL     1       1.399   7.955  17.034  0.00  0.00    +0.000 HD
ENDROOT
BRANCH   8  17
ATOM     17  C   UNL     1       1.611   9.682  18.081  0.00  0.00    +0.000 A 
ATOM     18  C   UNL     1       2.585  10.672  17.894  0.00  0.00    +0.000 A 
ATOM     19  C   UNL     1       2.317  12.010  18.197  0.00  0.00    +0.000 A 
ATOM     20  C   UNL     1       1.075  12.370  18.721  0.00  0.00    +0.000 A 
ATOM     21  C   UNL     1       0.112  11.389  18.937  0.00  0.00    +0.000 A 
ATOM     22 BR   UNL     1      -1.556  11.866  19.686  0.00  0.00    +0.000 Br
ATOM     23  C   UNL     1       0.374  10.055  18.626  0.00  0.00    +0.000 A 
ENDBRANCH   8  17
BRANCH   1  25
ATOM     24  C   UNL     1       6.340   4.009  13.756  0.00  0.00    +0.000 C 
ATOM     25  C   UNL     1       6.987   4.871  14.554  0.00  0.00    +0.000 C 
ENDBRANCH   1  25
TORSDOF 2
ENDMDL
