MODEL 1
REMARK VINA RESULT:      -8.3      0.000      0.000
REMARK  Name = 
REMARK  8 active torsions:
REMARK  status: ('A' for Active; 'I' for Inactive)
REMARK    1  A    between atoms: C_1  and  C_2
REMARK    2  A    between atoms: C_5  and  N_6
REMARK    3  A    between atoms: N_6  and  C_7
REMARK    4  A    between atoms: C_7  and  N_9
REMARK    5  A    between atoms: C_10  and  C_12
REMARK    6  A    between atoms: C_20  and  S_21
REMARK    7  A    between atoms: S_21  and  N_24
REMARK    8  A    between atoms: N_24  and  C_25
REMARK                            x       y       z     vdW  Elec       q    Type
REMARK                         _______ _______ _______ _____ _____    ______ ____
ROOT
ATOM      1  C   UNL     1       1.637   1.927  20.209  0.00  0.00    +0.000 C 
ATOM      2  C   UNL     1       1.855   3.413  20.184  0.00  0.00    +0.000 A 
ATOM      3  C   UNL     1       0.775   4.241  20.543  0.00  0.00    +0.000 A 
ATOM      4  C   UNL     1       0.891   5.634  20.531  0.00  0.00    +0.000 A 
ATOM      5  C   UNL     1       2.101   6.240  20.192  0.00  0.00    +0.000 A 
ATOM      6  C   UNL     1       3.163   5.438  19.798  0.00  0.00    +0.000 A 
ATOM      7  C   UNL     1       3.058   4.033  19.801  0.00  0.00    +0.000 A 
ENDROOT
BRANCH   7   8
ATOM      8  S   UNL     1       4.509   3.153  19.217  0.00  0.00    +0.000 S 
ATOM      9  O   UNL     1       5.089   2.399  20.307  0.00  0.00    +0.000 OA
ATOM     10  O   UNL     1       4.137   2.492  17.982  0.00  0.00    +0.000 OA
BRANCH   8  11
ATOM     11  N   UNL     1       5.564   4.406  18.774  0.00  0.00    +0.000 N 
ATOM     12  H   UNL     1       6.505   4.260  19.144  0.00  0.00    +0.000 HD
BRANCH  11  13
ATOM     13  C   UNL     1       5.445   4.939  17.463  0.00  0.00    +0.000 A 
ATOM     14  C   UNL     1       5.026   6.256  17.273  0.00  0.00    +0.000 A 
ATOM     15  C   UNL     1       5.027   6.804  15.987  0.00  0.00    +0.000 A 
ATOM     16  C   UNL     1       5.430   6.027  14.899  0.00  0.00    +0.000 A 
ATOM     17  C   UNL     1       5.830   4.708  15.097  0.00  0.00    +0.000 A 
ATOM     18 CL   UNL     1       6.328   3.753  13.756  0.00  0.00    +0.000 Cl
ATOM     19  C   UNL     1       5.845   4.160  16.378  0.00  0.00    +0.000 A 
ENDBRANCH  11  13
ENDBRANCH   8  11
ENDBRANCH   7   8
BRANCH   5  20
ATOM     20  N   UNL     1       2.157   7.647  20.193  0.00  0.00    +0.000 N 
ATOM     21  H   UNL     1       2.838   8.050  19.549  0.00  0.00    +0.000 HD
BRANCH  20  22
ATOM     22  C   UNL     1       1.399   8.577  20.869  0.00  0.00    +0.000 C 
ATOM     23  S   UNL     1       1.522   9.062  22.467  0.00  0.00    +0.000 S 
BRANCH  22  24
ATOM     24  N   UNL     1       0.344   9.107  20.146  0.00  0.00    +0.000 N 
ATOM     25  C   UNL     1       0.225  10.387  19.628  0.00  0.00    +0.000 C 
ATOM     26  O   UNL     1       0.988  11.312  19.884  0.00  0.00    +0.000 OA
ATOM     27  H   UNL     1      -0.427   8.463  20.019  0.00  0.00    +0.000 HD
BRANCH  25  28
ATOM     28  C   UNL     1      -0.917  10.615  18.715  0.00  0.00    +0.000 A 
ATOM     29  C   UNL     1      -1.035   9.806  17.576  0.00  0.00    +0.000 A 
ATOM     30  C   UNL     1      -2.153   9.932  16.751  0.00  0.00    +0.000 A 
ATOM     31  C   UNL     1      -3.146  10.848  17.078  0.00  0.00    +0.000 A 
ATOM     32  F   UNL     1      -4.232  10.947  16.301  0.00  0.00    +0.000 F 
ATOM     33  C   UNL     1      -3.039  11.654  18.209  0.00  0.00    +0.000 A 
ATOM     34  C   UNL     1      -1.919  11.543  19.033  0.00  0.00    +0.000 A 
ENDBRANCH  25  28
ENDBRANCH  22  24
ENDBRANCH  20  22
ENDBRANCH   5  20
TORSDOF 7
ENDMDL
MODEL 2
REMARK VINA RESULT:      -8.1      5.302      8.146
REMARK  Name = 
REMARK  8 active torsions:
REMARK  status: ('A' for Active; 'I' for Inactive)
REMARK    1  A    between atoms: C_1  and  C_2
REMARK    2  A    between atoms: C_5  and  N_6
REMARK    3  A    between atoms: N_6  and  C_7
REMARK    4  A    between atoms: C_7  and  N_9
REMARK    5  A    between atoms: C_10  and  C_12
REMARK    6  A    between atoms: C_20  and  S_21
REMARK    7  A    between atoms: S_21  and  N_24
REMARK    8  A    between atoms: N_24  and  C_25
REMARK                            x       y       z     vdW  Elec       q    Type
REMARK                         _______ _______ _______ _____ _____    ______ ____
ROOT
ATOM      1  C   UNL     1       2.794   2.795  16.893  0.00  0.00    +0.000 C 
ATOM      2  C   UNL     1       3.852   3.815  17.203  0.00  0.00    +0.000 A 
ATOM      3  C   UNL     1       5.050   3.761  16.467  0.00  0.00    +0.000 A 
ATOM      4  C   UNL     1       6.092   4.664  16.704  0.00  0.00    +0.000 A 
ATOM      5  C   UNL     1       5.951   5.668  17.662  0.00  0.00    +0.000 A 
ATOM      6  C   UNL     1       4.790   5.709  18.423  0.00  0.00    +0.000 A 
ATOM      7  C   UNL     1       3.737   4.803  18.197  0.00  0.00    +0.000 A 
ENDROOT
BRANCH   7   8
ATOM      8  S   UNL     1       2.332   4.968  19.301  0.00  0.00    +0.000 S 
ATOM      9  O   UNL     1       1.148   5.286  18.534  0.00  0.00    +0.000 OA
ATOM     10  O   UNL     1       2.349   3.819  20.185  0.00  0.00    +0.000 OA
BRANCH   8  11
ATOM     11  N   UNL     1       2.755   6.300  20.263  0.00  0.00    +0.000 N 
ATOM     12  H   UNL     1       3.753   6.509  20.205  0.00  0.00    +0.000 HD
BRANCH  11  13
ATOM     13  C   UNL     1       1.853   7.395  20.312  0.00  0.00    +0.000 A 
ATOM     14  C   UNL     1       0.943   7.512  21.363  0.00  0.00    +0.000 A 
ATOM     15  C   UNL     1       0.143   8.654  21.462  0.00  0.00    +0.000 A 
ATOM     16  C   UNL     1       0.245   9.662  20.501  0.00  0.00    +0.000 A 
ATOM     17  C   UNL     1       1.144   9.528  19.446  0.00  0.00    +0.000 A 
ATOM     18 CL   UNL     1       1.271  10.772  18.265  0.00  0.00    +0.000 Cl
ATOM     19  C   UNL     1       1.955   8.399  19.350  0.00  0.00    +0.000 A 
ENDBRANCH  11  13
ENDBRANCH   8  11
ENDBRANCH   7   8
BRANCH   5  20
ATOM     20  N   UNL     1       7.034   6.546  17.861  0.00  0.00    +0.000 N 
ATOM     21  H   UNL     1       7.098   7.308  17.186  0.00  0.00    +0.000 HD
BRANCH  20  22
ATOM     22  C   UNL     1       7.986   6.589  18.856  0.00  0.00    +0.000 C 
ATOM     23  S   UNL     1       8.340   5.432  20.014  0.00  0.00    +0.000 S 
BRANCH  22  24
ATOM     24  N   UNL     1       8.671   7.788  18.956  0.00  0.00    +0.000 N 
ATOM     25  C   UNL     1       8.384   8.987  18.322  0.00  0.00    +0.000 C 
ATOM     26  O   UNL     1       7.554   9.117  17.429  0.00  0.00    +0.000 OA
ATOM     27  H   UNL     1       9.488   7.742  19.552  0.00  0.00    +0.000 HD
BRANCH  25  28
ATOM     28  C   UNL     1       9.157  10.164  18.777  0.00  0.00    +0.000 A 
ATOM     29  C   UNL     1       9.610  11.080  17.818  0.00  0.00    +0.000 A 
ATOM     30  C   UNL     1      10.253  12.248  18.226  0.00  0.00    +0.000 A 
ATOM     31  C   UNL     1      10.425  12.498  19.583  0.00  0.00    +0.000 A 
ATOM     32  F   UNL     1      11.017  13.633  19.974  0.00  0.00    +0.000 F 
ATOM     33  C   UNL     1       9.976  11.595  20.544  0.00  0.00    +0.000 A 
ATOM     34  C   UNL     1       9.341  10.418  20.144  0.00  0.00    +0.000 A 
ENDBRANCH  25  28
ENDBRANCH  22  24
ENDBRANCH  20  22
ENDBRANCH   5  20
TORSDOF 7
ENDMDL
MODEL 3
REMARK VINA RESULT:      -8.1      3.454      4.122
REMARK  Name = 
REMARK  8 active torsions:
REMARK  status: ('A' for Active; 'I' for Inactive)
REMARK    1  A    between atoms: C_1  and  C_2
REMARK    2  A    between atoms: C_5  and  N_6
REMARK    3  A    between atoms: N_6  and  C_7
REMARK    4  A    between atoms: C_7  and  N_9
REMARK    5  A    between atoms: C_10  and  C_12
REMARK    6  A    between atoms: C_20  and  S_21
REMARK    7  A    between atoms: S_21  and  N_24
REMARK    8  A    between atoms: N_24  and  C_25
REMARK                            x       y       z     vdW  Elec       q    Type
REMARK                         _______ _______ _______ _____ _____    ______ ____
ROOT
ATOM      1  C   UNL     1       1.937   3.899  21.292  0.00  0.00    +0.000 C 
ATOM      2  C   UNL     1       1.986   5.101  20.392  0.00  0.00    +0.000 A 
ATOM      3  C   UNL     1       1.807   6.367  20.979  0.00  0.00    +0.000 A 
ATOM      4  C   UNL     1       1.823   7.535  20.209  0.00  0.00    +0.000 A 
ATOM      5  C   UNL     1       2.054   7.472  18.835  0.00  0.00    +0.000 A 
ATOM      6  C   UNL     1       2.194   6.227  18.236  0.00  0.00    +0.000 A 
ATOM      7  C   UNL     1       2.175   5.044  18.999  0.00  0.00    +0.000 A 
ENDROOT
BRANCH   7   8
ATOM      8  S   UNL     1       2.322   3.522  18.060  0.00  0.00    +0.000 S 
ATOM      9  O   UNL     1       1.410   2.534  18.591  0.00  0.00    +0.000 OA
ATOM     10  O   UNL     1       2.278   3.883  16.657  0.00  0.00    +0.000 OA
BRANCH   8  11
ATOM     11  N   UNL     1       3.919   3.037  18.364  0.00  0.00    +0.000 N 
ATOM     12  H   UNL     1       4.071   2.056  18.126  0.00  0.00    +0.000 HD
BRANCH  11  13
ATOM     13  C   UNL     1       4.959   3.957  18.066  0.00  0.00    +0.000 A 
ATOM     14  C   UNL     1       5.561   4.696  19.085  0.00  0.00    +0.000 A 
ATOM     15  C   UNL     1       6.660   5.509  18.795  0.00  0.00    +0.000 A 
ATOM     16  C   UNL     1       7.140   5.591  17.485  0.00  0.00    +0.000 A 
ATOM     17  C   UNL     1       6.522   4.862  16.472  0.00  0.00    +0.000 A 
ATOM     18 CL   UNL     1       7.116   4.962  14.861  0.00  0.00    +0.000 Cl
ATOM     19  C   UNL     1       5.435   4.039  16.758  0.00  0.00    +0.000 A 
ENDBRANCH  11  13
ENDBRANCH   8  11
ENDBRANCH   7   8
BRANCH   5  20
ATOM     20  N   UNL     1       2.055   8.679  18.111  0.00  0.00    +0.000 N 
ATOM     21  H   UNL     1       2.852   8.805  17.485  0.00  0.00    +0.000 HD
BRANCH  20  22
ATOM     22  C   UNL     1       1.125   9.695  18.052  0.00  0.00    +0.000 C 
ATOM     23  S   UNL     1      -0.515   9.590  17.731  0.00  0.00    +0.000 S 
BRANCH  22  24
ATOM     24  N   UNL     1       1.645  10.971  18.188  0.00  0.00    +0.000 N 
ATOM     25  C   UNL     1       1.528  11.825  19.273  0.00  0.00    +0.000 C 
ATOM     26  O   UNL     1       0.787  11.632  20.231  0.00  0.00    +0.000 OA
ATOM     27  H   UNL     1       2.144  11.296  17.370  0.00  0.00    +0.000 HD
BRANCH  25  28
ATOM     28  C   UNL     1       2.364  13.046  19.231  0.00  0.00    +0.000 A 
ATOM     29  C   UNL     1       2.645  13.623  17.986  0.00  0.00    +0.000 A 
ATOM     30  C   UNL     1       3.346  14.827  17.924  0.00  0.00    +0.000 A 
ATOM     31  C   UNL     1       3.745  15.450  19.102  0.00  0.00    +0.000 A 
ATOM     32  F   UNL     1       4.392  16.621  19.042  0.00  0.00    +0.000 F 
ATOM     33  C   UNL     1       3.467  14.886  20.344  0.00  0.00    +0.000 A 
ATOM     34  C   UNL     1       2.776  13.675  20.415  0.00  0.00    +0.000 A 
ENDBRANCH  25  28
ENDBRANCH  22  24
ENDBRANCH  20  22
ENDBRANCH   5  20
TORSDOF 7
ENDMDL
MODEL 4
REMARK VINA RESULT:      -7.9      4.506      9.347
REMARK  Name = 
REMARK  8 active torsions:
REMARK  status: ('A' for Active; 'I' for Inactive)
REMARK    1  A    between atoms: C_1  and  C_2
REMARK    2  A    between atoms: C_5  and  N_6
REMARK    3  A    between atoms: N_6  and  C_7
REMARK    4  A    between atoms: C_7  and  N_9
REMARK    5  A    between atoms: C_10  and  C_12
REMARK    6  A    between atoms: C_20  and  S_21
REMARK    7  A    between atoms: S_21  and  N_24
REMARK    8  A    between atoms: N_24  and  C_25
REMARK                            x       y       z     vdW  Elec       q    Type
REMARK                         _______ _______ _______ _____ _____    ______ ____
ROOT
ATOM      1  C   UNL     1       1.176  10.500  18.073  0.00  0.00    +0.000 C 
ATOM      2  C   UNL     1       1.604   9.215  18.723  0.00  0.00    +0.000 A 
ATOM      3  C   UNL     1       2.509   8.396  18.022  0.00  0.00    +0.000 A 
ATOM      4  C   UNL     1       2.945   7.177  18.550  0.00  0.00    +0.000 A 
ATOM      5  C   UNL     1       2.516   6.758  19.810  0.00  0.00    +0.000 A 
ATOM      6  C   UNL     1       1.594   7.537  20.495  0.00  0.00    +0.000 A 
ATOM      7  C   UNL     1       1.143   8.764  19.972  0.00  0.00    +0.000 A 
ENDROOT
BRANCH   7   8
ATOM      8  S   UNL     1      -0.083   9.617  20.966  0.00  0.00    +0.000 S 
ATOM      9  O   UNL     1      -1.190  10.022  20.129  0.00  0.00    +0.000 OA
ATOM     10  O   UNL     1      -0.313   8.808  22.147  0.00  0.00    +0.000 OA
BRANCH   8  11
ATOM     11  N   UNL     1       0.750  10.994  21.504  0.00  0.00    +0.000 N 
ATOM     12  H   UNL     1       1.709  11.020  21.152  0.00  0.00    +0.000 HD
BRANCH  11  13
ATOM     13  C   UNL     1       0.037  12.220  21.563  0.00  0.00    +0.000 A 
ATOM     14  C   UNL     1       0.203  13.182  20.566  0.00  0.00    +0.000 A 
ATOM     15  C   UNL     1      -0.591  14.332  20.574  0.00  0.00    +0.000 A 
ATOM     16  C   UNL     1      -1.535  14.520  21.586  0.00  0.00    +0.000 A 
ATOM     17  C   UNL     1      -1.681  13.562  22.586  0.00  0.00    +0.000 A 
ATOM     18 CL   UNL     1      -2.846  13.795  23.830  0.00  0.00    +0.000 Cl
ATOM     19  C   UNL     1      -0.902  12.408  22.576  0.00  0.00    +0.000 A 
ENDBRANCH  11  13
ENDBRANCH   8  11
ENDBRANCH   7   8
BRANCH   5  20
ATOM     20  N   UNL     1       2.985   5.519  20.288  0.00  0.00    +0.000 N 
ATOM     21  H   UNL     1       3.118   5.472  21.299  0.00  0.00    +0.000 HD
BRANCH  20  22
ATOM     22  C   UNL     1       3.233   4.335  19.628  0.00  0.00    +0.000 C 
ATOM     23  S   UNL     1       2.877   2.774  20.118  0.00  0.00    +0.000 S 
BRANCH  22  24
ATOM     24  N   UNL     1       3.950   4.462  18.451  0.00  0.00    +0.000 N 
ATOM     25  C   UNL     1       5.324   4.544  18.297  0.00  0.00    +0.000 C 
ATOM     26  O   UNL     1       6.118   4.685  19.221  0.00  0.00    +0.000 OA
ATOM     27  H   UNL     1       3.368   4.523  17.625  0.00  0.00    +0.000 HD
BRANCH  25  28
ATOM     28  C   UNL     1       5.829   4.459  16.909  0.00  0.00    +0.000 A 
ATOM     29  C   UNL     1       4.923   4.155  15.884  0.00  0.00    +0.000 A 
ATOM     30  C   UNL     1       5.350   4.166  14.556  0.00  0.00    +0.000 A 
ATOM     31  C   UNL     1       6.669   4.495  14.263  0.00  0.00    +0.000 A 
ATOM     32  F   UNL     1       7.070   4.533  12.986  0.00  0.00    +0.000 F 
ATOM     33  C   UNL     1       7.576   4.802  15.274  0.00  0.00    +0.000 A 
ATOM     34  C   UNL     1       7.160   4.782  16.606  0.00  0.00    +0.000 A 
ENDBRANCH  25  28
ENDBRANCH  22  24
ENDBRANCH  20  22
ENDBRANCH   5  20
TORSDOF 7
ENDMDL
MODEL 5
REMARK VINA RESULT:      -7.9      3.884      4.597
REMARK  Name = 
REMARK  8 active torsions:
REMARK  status: ('A' for Active; 'I' for Inactive)
REMARK    1  A    between atoms: C_1  and  C_2
REMARK    2  A    between atoms: C_5  and  N_6
REMARK    3  A    between atoms: N_6  and  C_7
REMARK    4  A    between atoms: C_7  and  N_9
REMARK    5  A    between atoms: C_10  and  C_12
REMARK    6  A    between atoms: C_20  and  S_21
REMARK    7  A    between atoms: S_21  and  N_24
REMARK    8  A    between atoms: N_24  and  C_25
REMARK                            x       y       z     vdW  Elec       q    Type
REMARK                         _______ _______ _______ _____ _____    ______ ____
ROOT
ATOM      1  C   UNL     1       2.091   4.266  20.908  0.00  0.00    +0.000 C 
ATOM      2  C   UNL     1       2.124   5.542  20.115  0.00  0.00    +0.000 A 
ATOM      3  C   UNL     1       1.638   6.709  20.733  0.00  0.00    +0.000 A 
ATOM      4  C   UNL     1       1.619   7.935  20.059  0.00  0.00    +0.000 A 
ATOM      5  C   UNL     1       2.117   8.034  18.760  0.00  0.00    +0.000 A 
ATOM      6  C   UNL     1       2.563   6.884  18.124  0.00  0.00    +0.000 A 
ATOM      7  C   UNL     1       2.582   5.643  18.790  0.00  0.00    +0.000 A 
ENDROOT
BRANCH   7   8
ATOM      8  S   UNL     1       3.145   4.252  17.805  0.00  0.00    +0.000 S 
ATOM      9  O   UNL     1       3.741   3.257  18.669  0.00  0.00    +0.000 OA
ATOM     10  O   UNL     1       2.059   3.896  16.913  0.00  0.00    +0.000 OA
BRANCH   8  11
ATOM     11  N   UNL     1       4.346   4.939  16.823  0.00  0.00    +0.000 N 
ATOM     12  H   UNL     1       3.946   5.516  16.080  0.00  0.00    +0.000 HD
BRANCH  11  13
ATOM     13  C   UNL     1       5.531   5.402  17.452  0.00  0.00    +0.000 A 
ATOM     14  C   UNL     1       6.329   4.524  18.186  0.00  0.00    +0.000 A 
ATOM     15  C   UNL     1       7.552   4.965  18.700  0.00  0.00    +0.000 A 
ATOM     16  C   UNL     1       7.961   6.284  18.492  0.00  0.00    +0.000 A 
ATOM     17  C   UNL     1       7.149   7.158  17.773  0.00  0.00    +0.000 A 
ATOM     18 CL   UNL     1       7.655   8.781  17.515  0.00  0.00    +0.000 Cl
ATOM     19  C   UNL     1       5.936   6.721  17.246  0.00  0.00    +0.000 A 
ENDBRANCH  11  13
ENDBRANCH   8  11
ENDBRANCH   7   8
BRANCH   5  20
ATOM     20  N   UNL     1       2.068   9.293  18.130  0.00  0.00    +0.000 N 
ATOM     21  H   UNL     1       2.793   9.451  17.430  0.00  0.00    +0.000 HD
BRANCH  20  22
ATOM     22  C   UNL     1       1.162  10.325  18.250  0.00  0.00    +0.000 C 
ATOM     23  S   UNL     1      -0.510  10.254  18.228  0.00  0.00    +0.000 S 
BRANCH  22  24
ATOM     24  N   UNL     1       1.723  11.589  18.304  0.00  0.00    +0.000 N 
ATOM     25  C   UNL     1       1.883  12.402  19.415  0.00  0.00    +0.000 C 
ATOM     26  O   UNL     1       1.388  12.178  20.515  0.00  0.00    +0.000 OA
ATOM     27  H   UNL     1       2.020  11.942  17.403  0.00  0.00    +0.000 HD
BRANCH  25  28
ATOM     28  C   UNL     1       2.708  13.615  19.220  0.00  0.00    +0.000 A 
ATOM     29  C   UNL     1       2.775  14.180  17.940  0.00  0.00    +0.000 A 
ATOM     30  C   UNL     1       3.463  15.378  17.747  0.00  0.00    +0.000 A 
ATOM     31  C   UNL     1       4.062  16.006  18.833  0.00  0.00    +0.000 A 
ATOM     32  F   UNL     1       4.698  17.171  18.652  0.00  0.00    +0.000 F 
ATOM     33  C   UNL     1       3.998  15.455  20.110  0.00  0.00    +0.000 A 
ATOM     34  C   UNL     1       3.321  14.250  20.309  0.00  0.00    +0.000 A 
ENDBRANCH  25  28
ENDBRANCH  22  24
ENDBRANCH  20  22
ENDBRANCH   5  20
TORSDOF 7
ENDMDL
MODEL 6
REMARK VINA RESULT:      -7.9      2.308      3.142
REMARK  Name = 
REMARK  8 active torsions:
REMARK  status: ('A' for Active; 'I' for Inactive)
REMARK    1  A    between atoms: C_1  and  C_2
REMARK    2  A    between atoms: C_5  and  N_6
REMARK    3  A    between atoms: N_6  and  C_7
REMARK    4  A    between atoms: C_7  and  N_9
REMARK    5  A    between atoms: C_10  and  C_12
REMARK    6  A    between atoms: C_20  and  S_21
REMARK    7  A    between atoms: S_21  and  N_24
REMARK    8  A    between atoms: N_24  and  C_25
REMARK                            x       y       z     vdW  Elec       q    Type
REMARK                         _______ _______ _______ _____ _____    ______ ____
ROOT
ATOM      1  C   UNL     1       4.768   4.185  18.866  0.00  0.00    +0.000 C 
ATOM      2  C   UNL     1       3.960   5.448  18.762  0.00  0.00    +0.000 A 
ATOM      3  C   UNL     1       2.887   5.614  19.656  0.00  0.00    +0.000 A 
ATOM      4  C   UNL     1       2.076   6.753  19.616  0.00  0.00    +0.000 A 
ATOM      5  C   UNL     1       2.337   7.774  18.701  0.00  0.00    +0.000 A 
ATOM      6  C   UNL     1       3.369   7.606  17.788  0.00  0.00    +0.000 A 
ATOM      7  C   UNL     1       4.189   6.462  17.815  0.00  0.00    +0.000 A 
ENDROOT
BRANCH   7   8
ATOM      8  S   UNL     1       5.443   6.385  16.534  0.00  0.00    +0.000 S 
ATOM      9  O   UNL     1       5.125   7.332  15.488  0.00  0.00    +0.000 OA
ATOM     10  O   UNL     1       6.731   6.428  17.196  0.00  0.00    +0.000 OA
BRANCH   8  11
ATOM     11  N   UNL     1       5.282   4.806  15.934  0.00  0.00    +0.000 N 
ATOM     12  H   UNL     1       4.394   4.383  16.210  0.00  0.00    +0.000 HD
BRANCH  11  13
ATOM     13  C   UNL     1       5.759   4.544  14.623  0.00  0.00    +0.000 A 
ATOM     14  C   UNL     1       7.089   4.801  14.292  0.00  0.00    +0.000 A 
ATOM     15  C   UNL     1       7.574   4.429  13.035  0.00  0.00    +0.000 A 
ATOM     16  C   UNL     1       6.722   3.819  12.111  0.00  0.00    +0.000 A 
ATOM     17  C   UNL     1       5.391   3.582  12.445  0.00  0.00    +0.000 A 
ATOM     18 CL   UNL     1       4.344   2.828  11.308  0.00  0.00    +0.000 Cl
ATOM     19  C   UNL     1       4.905   3.938  13.702  0.00  0.00    +0.000 A 
ENDBRANCH  11  13
ENDBRANCH   8  11
ENDBRANCH   7   8
BRANCH   5  20
ATOM     20  N   UNL     1       1.485   8.895  18.704  0.00  0.00    +0.000 N 
ATOM     21  H   UNL     1       1.338   9.324  17.790  0.00  0.00    +0.000 HD
BRANCH  20  22
ATOM     22  C   UNL     1       0.759   9.472  19.723  0.00  0.00    +0.000 C 
ATOM     23  S   UNL     1       1.155   9.595  21.345  0.00  0.00    +0.000 S 
BRANCH  22  24
ATOM     24  N   UNL     1      -0.498   9.923  19.361  0.00  0.00    +0.000 N 
ATOM     25  C   UNL     1      -0.841  11.165  18.851  0.00  0.00    +0.000 C 
ATOM     26  O   UNL     1      -0.083  12.127  18.798  0.00  0.00    +0.000 OA
ATOM     27  H   UNL     1      -1.235   9.249  19.524  0.00  0.00    +0.000 HD
BRANCH  25  28
ATOM     28  C   UNL     1      -2.228  11.302  18.351  0.00  0.00    +0.000 A 
ATOM     29  C   UNL     1      -3.202  11.823  19.213  0.00  0.00    +0.000 A 
ATOM     30  C   UNL     1      -4.493  12.055  18.739  0.00  0.00    +0.000 A 
ATOM     31  C   UNL     1      -4.794  11.781  17.409  0.00  0.00    +0.000 A 
ATOM     32  F   UNL     1      -6.026  12.032  16.948  0.00  0.00    +0.000 F 
ATOM     33  C   UNL     1      -3.832  11.267  16.544  0.00  0.00    +0.000 A 
ATOM     34  C   UNL     1      -2.541  11.020  17.013  0.00  0.00    +0.000 A 
ENDBRANCH  25  28
ENDBRANCH  22  24
ENDBRANCH  20  22
ENDBRANCH   5  20
TORSDOF 7
ENDMDL
MODEL 7
REMARK VINA RESULT:      -7.9      4.047      8.932
REMARK  Name = 
REMARK  8 active torsions:
REMARK  status: ('A' for Active; 'I' for Inactive)
REMARK    1  A    between atoms: C_1  and  C_2
REMARK    2  A    between atoms: C_5  and  N_6
REMARK    3  A    between atoms: N_6  and  C_7
REMARK    4  A    between atoms: C_7  and  N_9
REMARK    5  A    between atoms: C_10  and  C_12
REMARK    6  A    between atoms: C_20  and  S_21
REMARK    7  A    between atoms: S_21  and  N_24
REMARK    8  A    between atoms: N_24  and  C_25
REMARK                            x       y       z     vdW  Elec       q    Type
REMARK                         _______ _______ _______ _____ _____    ______ ____
ROOT
ATOM      1  C   UNL     1       2.214  10.892  17.828  0.00  0.00    +0.000 C 
ATOM      2  C   UNL     1       2.001   9.601  18.566  0.00  0.00    +0.000 A 
ATOM      3  C   UNL     1       2.551   8.431  18.012  0.00  0.00    +0.000 A 
ATOM      4  C   UNL     1       2.386   7.186  18.629  0.00  0.00    +0.000 A 
ATOM      5  C   UNL     1       1.693   7.082  19.835  0.00  0.00    +0.000 A 
ATOM      6  C   UNL     1       1.112   8.222  20.373  0.00  0.00    +0.000 A 
ATOM      7  C   UNL     1       1.268   9.480  19.760  0.00  0.00    +0.000 A 
ENDROOT
BRANCH   7   8
ATOM      8  S   UNL     1       0.411  10.837  20.563  0.00  0.00    +0.000 S 
ATOM      9  O   UNL     1      -0.697  10.321  21.336  0.00  0.00    +0.000 OA
ATOM     10  O   UNL     1       1.421  11.666  21.191  0.00  0.00    +0.000 OA
BRANCH   8  11
ATOM     11  N   UNL     1      -0.184  11.741  19.257  0.00  0.00    +0.000 N 
ATOM     12  H   UNL     1       0.562  12.027  18.620  0.00  0.00    +0.000 HD
BRANCH  11  13
ATOM     13  C   UNL     1      -1.423  11.345  18.687  0.00  0.00    +0.000 A 
ATOM     14  C   UNL     1      -1.493  10.222  17.862  0.00  0.00    +0.000 A 
ATOM     15  C   UNL     1      -2.735   9.776  17.403  0.00  0.00    +0.000 A 
ATOM     16  C   UNL     1      -3.897  10.465  17.758  0.00  0.00    +0.000 A 
ATOM     17  C   UNL     1      -3.815  11.595  18.567  0.00  0.00    +0.000 A 
ATOM     18 CL   UNL     1      -5.248  12.441  19.005  0.00  0.00    +0.000 Cl
ATOM     19  C   UNL     1      -2.581  12.037  19.039  0.00  0.00    +0.000 A 
ENDBRANCH  11  13
ENDBRANCH   8  11
ENDBRANCH   7   8
BRANCH   5  20
ATOM     20  N   UNL     1       1.554   5.803  20.407  0.00  0.00    +0.000 N 
ATOM     21  H   UNL     1       0.622   5.592  20.766  0.00  0.00    +0.000 HD
BRANCH  20  22
ATOM     22  C   UNL     1       2.448   4.759  20.504  0.00  0.00    +0.000 C 
ATOM     23  S   UNL     1       2.509   3.540  21.651  0.00  0.00    +0.000 S 
BRANCH  22  24
ATOM     24  N   UNL     1       3.478   4.784  19.580  0.00  0.00    +0.000 N 
ATOM     25  C   UNL     1       3.745   3.864  18.579  0.00  0.00    +0.000 C 
ATOM     26  O   UNL     1       3.187   2.777  18.469  0.00  0.00    +0.000 OA
ATOM     27  H   UNL     1       4.106   5.570  19.692  0.00  0.00    +0.000 HD
BRANCH  25  28
ATOM     28  C   UNL     1       4.785   4.252  17.600  0.00  0.00    +0.000 A 
ATOM     29  C   UNL     1       6.095   4.446  18.055  0.00  0.00    +0.000 A 
ATOM     30  C   UNL     1       7.114   4.714  17.141  0.00  0.00    +0.000 A 
ATOM     31  C   UNL     1       6.818   4.772  15.784  0.00  0.00    +0.000 A 
ATOM     32  F   UNL     1       7.802   5.001  14.904  0.00  0.00    +0.000 F 
ATOM     33  C   UNL     1       5.519   4.578  15.320  0.00  0.00    +0.000 A 
ATOM     34  C   UNL     1       4.493   4.320  16.229  0.00  0.00    +0.000 A 
ENDBRANCH  25  28
ENDBRANCH  22  24
ENDBRANCH  20  22
ENDBRANCH   5  20
TORSDOF 7
ENDMDL
MODEL 8
REMARK VINA RESULT:      -7.8      2.495      4.137
REMARK  Name = 
REMARK  8 active torsions:
REMARK  status: ('A' for Active; 'I' for Inactive)
REMARK    1  A    between atoms: C_1  and  C_2
REMARK    2  A    between atoms: C_5  and  N_6
REMARK    3  A    between atoms: N_6  and  C_7
REMARK    4  A    between atoms: C_7  and  N_9
REMARK    5  A    between atoms: C_10  and  C_12
REMARK    6  A    between atoms: C_20  and  S_21
REMARK    7  A    between atoms: S_21  and  N_24
REMARK    8  A    between atoms: N_24  and  C_25
REMARK                            x       y       z     vdW  Elec       q    Type
REMARK                         _______ _______ _______ _____ _____    ______ ____
ROOT
ATOM      1  C   UNL     1       6.896   4.874  15.491  0.00  0.00    +0.000 C 
ATOM      2  C   UNL     1       5.858   5.686  16.211  0.00  0.00    +0.000 A 
ATOM      3  C   UNL     1       5.082   6.580  15.450  0.00  0.00    +0.000 A 
ATOM      4  C   UNL     1       4.104   7.384  16.046  0.00  0.00    +0.000 A 
ATOM      5  C   UNL     1       3.851   7.291  17.415  0.00  0.00    +0.000 A 
ATOM      6  C   UNL     1       4.635   6.441  18.184  0.00  0.00    +0.000 A 
ATOM      7  C   UNL     1       5.626   5.631  17.597  0.00  0.00    +0.000 A 
ENDROOT
BRANCH   7   8
ATOM      8  S   UNL     1       6.576   4.629  18.742  0.00  0.00    +0.000 S 
ATOM      9  O   UNL     1       7.915   4.442  18.228  0.00  0.00    +0.000 OA
ATOM     10  O   UNL     1       6.369   5.184  20.066  0.00  0.00    +0.000 OA
BRANCH   8  11
ATOM     11  N   UNL     1       5.754   3.145  18.727  0.00  0.00    +0.000 N 
ATOM     12  H   UNL     1       6.225   2.443  19.300  0.00  0.00    +0.000 HD
BRANCH  11  13
ATOM     13  C   UNL     1       4.335   3.174  18.754  0.00  0.00    +0.000 A 
ATOM     14  C   UNL     1       3.607   3.169  17.564  0.00  0.00    +0.000 A 
ATOM     15  C   UNL     1       2.213   3.079  17.605  0.00  0.00    +0.000 A 
ATOM     16  C   UNL     1       1.555   3.011  18.835  0.00  0.00    +0.000 A 
ATOM     17  C   UNL     1       2.289   3.034  20.018  0.00  0.00    +0.000 A 
ATOM     18 CL   UNL     1       1.477   2.948  21.532  0.00  0.00    +0.000 Cl
ATOM     19  C   UNL     1       3.680   3.110  19.983  0.00  0.00    +0.000 A 
ENDBRANCH  11  13
ENDBRANCH   8  11
ENDBRANCH   7   8
BRANCH   5  20
ATOM     20  N   UNL     1       2.859   8.127  17.960  0.00  0.00    +0.000 N 
ATOM     21  H   UNL     1       2.646   8.958  17.406  0.00  0.00    +0.000 HD
BRANCH  20  22
ATOM     22  C   UNL     1       2.074   7.980  19.083  0.00  0.00    +0.000 C 
ATOM     23  S   UNL     1       2.143   6.785  20.254  0.00  0.00    +0.000 S 
BRANCH  22  24
ATOM     24  N   UNL     1       1.042   8.894  19.198  0.00  0.00    +0.000 N 
ATOM     25  C   UNL     1       0.974  10.172  18.664  0.00  0.00    +0.000 C 
ATOM     26  O   UNL     1       1.915  10.753  18.134  0.00  0.00    +0.000 OA
ATOM     27  H   UNL     1       0.271   8.569  19.766  0.00  0.00    +0.000 HD
BRANCH  25  28
ATOM     28  C   UNL     1      -0.338  10.849  18.764  0.00  0.00    +0.000 A 
ATOM     29  C   UNL     1      -1.318  10.556  17.807  0.00  0.00    +0.000 A 
ATOM     30  C   UNL     1      -2.596  11.102  17.934  0.00  0.00    +0.000 A 
ATOM     31  C   UNL     1      -2.886  11.921  19.020  0.00  0.00    +0.000 A 
ATOM     32  F   UNL     1      -4.120  12.421  19.156  0.00  0.00    +0.000 F 
ATOM     33  C   UNL     1      -1.919  12.215  19.979  0.00  0.00    +0.000 A 
ATOM     34  C   UNL     1      -0.636  11.682  19.853  0.00  0.00    +0.000 A 
ENDBRANCH  25  28
ENDBRANCH  22  24
ENDBRANCH  20  22
ENDBRANCH   5  20
TORSDOF 7
ENDMDL
MODEL 9
REMARK VINA RESULT:      -7.8      5.145     10.446
REMARK  Name = 
REMARK  8 active torsions:
REMARK  status: ('A' for Active; 'I' for Inactive)
REMARK    1  A    between atoms: C_1  and  C_2
REMARK    2  A    between atoms: C_5  and  N_6
REMARK    3  A    between atoms: N_6  and  C_7
REMARK    4  A    between atoms: C_7  and  N_9
REMARK    5  A    between atoms: C_10  and  C_12
REMARK    6  A    between atoms: C_20  and  S_21
REMARK    7  A    between atoms: S_21  and  N_24
REMARK    8  A    between atoms: N_24  and  C_25
REMARK                            x       y       z     vdW  Elec       q    Type
REMARK                         _______ _______ _______ _____ _____    ______ ____
ROOT
ATOM      1  C   UNL     1      -6.061  12.300  18.031  0.00  0.00    +0.000 C 
ATOM      2  C   UNL     1      -4.593  12.010  18.162  0.00  0.00    +0.000 A 
ATOM      3  C   UNL     1      -3.934  11.449  17.052  0.00  0.00    +0.000 A 
ATOM      4  C   UNL     1      -2.572  11.135  17.096  0.00  0.00    +0.000 A 
ATOM      5  C   UNL     1      -1.822  11.403  18.242  0.00  0.00    +0.000 A 
ATOM      6  C   UNL     1      -2.467  11.919  19.358  0.00  0.00    +0.000 A 
ATOM      7  C   UNL     1      -3.839  12.236  19.327  0.00  0.00    +0.000 A 
ENDROOT
BRANCH   7   8
ATOM      8  S   UNL     1      -4.520  12.849  20.870  0.00  0.00    +0.000 S 
ATOM      9  O   UNL     1      -4.660  14.287  20.800  0.00  0.00    +0.000 OA
ATOM     10  O   UNL     1      -5.661  12.015  21.192  0.00  0.00    +0.000 OA
BRANCH   8  11
ATOM     11  N   UNL     1      -3.321  12.452  22.002  0.00  0.00    +0.000 N 
ATOM     12  H   UNL     1      -2.650  11.779  21.627  0.00  0.00    +0.000 HD
BRANCH  11  13
ATOM     13  C   UNL     1      -2.819  13.493  22.828  0.00  0.00    +0.000 A 
ATOM     14  C   UNL     1      -3.450  13.803  24.032  0.00  0.00    +0.000 A 
ATOM     15  C   UNL     1      -2.879  14.748  24.890  0.00  0.00    +0.000 A 
ATOM     16  C   UNL     1      -1.691  15.388  24.529  0.00  0.00    +0.000 A 
ATOM     17  C   UNL     1      -1.078  15.084  23.317  0.00  0.00    +0.000 A 
ATOM     18 CL   UNL     1       0.387  15.871  22.876  0.00  0.00    +0.000 Cl
ATOM     19  C   UNL     1      -1.635  14.133  22.464  0.00  0.00    +0.000 A 
ENDBRANCH  11  13
ENDBRANCH   8  11
ENDBRANCH   7   8
BRANCH   5  20
ATOM     20  N   UNL     1      -0.457  11.061  18.231  0.00  0.00    +0.000 N 
ATOM     21  H   UNL     1      -0.026  11.042  17.306  0.00  0.00    +0.000 HD
BRANCH  20  22
ATOM     22  C   UNL     1       0.417  10.812  19.267  0.00  0.00    +0.000 C 
ATOM     23  S   UNL     1       0.992  11.876  20.425  0.00  0.00    +0.000 S 
BRANCH  22  24
ATOM     24  N   UNL     1       0.951   9.535  19.285  0.00  0.00    +0.000 N 
ATOM     25  C   UNL     1       1.823   8.964  18.371  0.00  0.00    +0.000 C 
ATOM     26  O   UNL     1       2.127   9.468  17.295  0.00  0.00    +0.000 OA
ATOM     27  H   UNL     1       0.626   8.969  20.059  0.00  0.00    +0.000 HD
BRANCH  25  28
ATOM     28  C   UNL     1       2.399   7.656  18.753  0.00  0.00    +0.000 A 
ATOM     29  C   UNL     1       1.978   7.062  19.950  0.00  0.00    +0.000 A 
ATOM     30  C   UNL     1       2.428   5.785  20.286  0.00  0.00    +0.000 A 
ATOM     31  C   UNL     1       3.279   5.109  19.419  0.00  0.00    +0.000 A 
ATOM     32  F   UNL     1       3.688   3.872  19.729  0.00  0.00    +0.000 F 
ATOM     33  C   UNL     1       3.701   5.689  18.225  0.00  0.00    +0.000 A 
ATOM     34  C   UNL     1       3.264   6.971  17.887  0.00  0.00    +0.000 A 
ENDBRANCH  25  28
ENDBRANCH  22  24
ENDBRANCH  20  22
ENDBRANCH   5  20
TORSDOF 7
ENDMDL
