MODEL 1
REMARK VINA RESULT:      -7.7      0.000      0.000
REMARK  Name = 
REMARK  6 active torsions:
REMARK  status: ('A' for Active; 'I' for Inactive)
REMARK    1  A    between atoms: C_1  and  C_2
REMARK    2  A    between atoms: C_2  and  C_3
REMARK    3  A    between atoms: C_3  and  C_4
REMARK    4  A    between atoms: C_3  and  N_11
REMARK    5  A    between atoms: C_4  and  C_5
REMARK    6  A    between atoms: C_12  and  C_14
REMARK                            x       y       z     vdW  Elec       q    Type
REMARK                         _______ _______ _______ _____ _____    ______ ____
ROOT
ATOM      1  N   UNL     1       5.604   6.054  17.868  0.00  0.00    +0.000 N 
ATOM      2  C   UNL     1       4.334   6.492  17.589  0.00  0.00    +0.000 C 
ATOM      3  O   UNL     1       4.055   7.136  16.583  0.00  0.00    +0.000 OA
ATOM      4  H   UNL     1       5.757   5.581  18.741  0.00  0.00    +0.000 HD
ENDROOT
BRANCH   2   5
ATOM      5  C   UNL     1       3.338   6.119  18.614  0.00  0.00    +0.000 A 
ATOM      6  C   UNL     1       2.695   7.077  19.387  0.00  0.00    +0.000 A 
ATOM      7  S   UNL     1       1.576   6.430  20.485  0.00  0.00    +0.000 S 
ATOM      8  C   UNL     1       1.978   4.830  20.047  0.00  0.00    +0.000 A 
ATOM      9  C   UNL     1       2.903   4.778  19.009  0.00  0.00    +0.000 A 
ATOM     10  C   UNL     1       3.456   3.496  18.439  0.00  0.00    +0.000 C 
ATOM     11  C   UNL     1       2.471   2.362  18.121  0.00  0.00    +0.000 C 
ATOM     12  C   UNL     1       1.018   2.510  18.559  0.00  0.00    +0.000 C 
ATOM     13  C   UNL     1       0.835   2.515  20.070  0.00  0.00    +0.000 C 
ATOM     14  C   UNL     1       1.366   3.717  20.846  0.00  0.00    +0.000 C 
ENDBRANCH   2   5
BRANCH   1  15
ATOM     15  C   UNL     1       6.796   6.292  17.060  0.00  0.00    +0.000 C 
BRANCH  15  17
ATOM     16  C   UNL     1       7.866   8.590  17.656  0.00  0.00    +0.000 C 
ATOM     17  C   UNL     1       7.769   7.096  17.942  0.00  0.00    +0.000 C 
ENDBRANCH  15  17
BRANCH  15  18
ATOM     18  C   UNL     1       7.354   4.982  16.432  0.00  0.00    +0.000 C 
BRANCH  18  19
ATOM     19  C   UNL     1       6.908   4.625  15.028  0.00  0.00    +0.000 A 
ATOM     20  C   UNL     1       5.678   3.992  14.795  0.00  0.00    +0.000 A 
ATOM     21  C   UNL     1       5.285   3.652  13.496  0.00  0.00    +0.000 A 
ATOM     22  C   UNL     1       6.102   3.959  12.410  0.00  0.00    +0.000 A 
ATOM     23  C   UNL     1       7.298   4.638  12.623  0.00  0.00    +0.000 A 
ATOM     24  C   UNL     1       7.696   4.969  13.922  0.00  0.00    +0.000 A 
ENDBRANCH  18  19
ENDBRANCH  15  18
ENDBRANCH   1  15
TORSDOF 5
ENDMDL
MODEL 2
REMARK VINA RESULT:      -7.7      0.582      1.199
REMARK  Name = 
REMARK  6 active torsions:
REMARK  status: ('A' for Active; 'I' for Inactive)
REMARK    1  A    between atoms: C_1  and  C_2
REMARK    2  A    between atoms: C_2  and  C_3
REMARK    3  A    between atoms: C_3  and  C_4
REMARK    4  A    between atoms: C_3  and  N_11
REMARK    5  A    between atoms: C_4  and  C_5
REMARK    6  A    between atoms: C_12  and  C_14
REMARK                            x       y       z     vdW  Elec       q    Type
REMARK                         _______ _______ _______ _____ _____    ______ ____
ROOT
ATOM      1  N   UNL     1       5.269   5.868  17.589  0.00  0.00    +0.000 N 
ATOM      2  C   UNL     1       4.098   6.582  17.630  0.00  0.00    +0.000 C 
ATOM      3  O   UNL     1       3.844   7.496  16.852  0.00  0.00    +0.000 OA
ATOM      4  H   UNL     1       5.419   5.173  18.298  0.00  0.00    +0.000 HD
ENDROOT
BRANCH   2   5
ATOM      5  C   UNL     1       3.173   6.149  18.697  0.00  0.00    +0.000 A 
ATOM      6  C   UNL     1       2.546   7.063  19.533  0.00  0.00    +0.000 A 
ATOM      7  S   UNL     1       1.512   6.351  20.673  0.00  0.00    +0.000 S 
ATOM      8  C   UNL     1       1.939   4.776  20.166  0.00  0.00    +0.000 A 
ATOM      9  C   UNL     1       2.804   4.784  19.077  0.00  0.00    +0.000 A 
ATOM     10  C   UNL     1       3.363   3.537  18.439  0.00  0.00    +0.000 C 
ATOM     11  C   UNL     1       2.397   2.380  18.145  0.00  0.00    +0.000 C 
ATOM     12  C   UNL     1       0.968   2.468  18.668  0.00  0.00    +0.000 C 
ATOM     13  C   UNL     1       0.871   2.426  20.186  0.00  0.00    +0.000 C 
ATOM     14  C   UNL     1       1.408   3.623  20.966  0.00  0.00    +0.000 C 
ENDBRANCH   2   5
BRANCH   1  15
ATOM     15  C   UNL     1       6.380   6.084  16.667  0.00  0.00    +0.000 C 
BRANCH  15  17
ATOM     16  C   UNL     1       7.893   6.475  18.749  0.00  0.00    +0.000 C 
ATOM     17  C   UNL     1       7.391   6.983  17.403  0.00  0.00    +0.000 C 
ENDBRANCH  15  17
BRANCH  15  18
ATOM     18  C   UNL     1       6.933   4.749  16.089  0.00  0.00    +0.000 C 
BRANCH  18  19
ATOM     19  C   UNL     1       6.918   4.570  14.584  0.00  0.00    +0.000 A 
ATOM     20  C   UNL     1       7.780   5.303  13.756  0.00  0.00    +0.000 A 
ATOM     21  C   UNL     1       7.745   5.142  12.367  0.00  0.00    +0.000 A 
ATOM     22  C   UNL     1       6.865   4.231  11.786  0.00  0.00    +0.000 A 
ATOM     23  C   UNL     1       6.045   3.456  12.601  0.00  0.00    +0.000 A 
ATOM     24  C   UNL     1       6.072   3.625  13.989  0.00  0.00    +0.000 A 
ENDBRANCH  18  19
ENDBRANCH  15  18
ENDBRANCH   1  15
TORSDOF 5
ENDMDL
MODEL 3
REMARK VINA RESULT:      -7.4      1.143      1.514
REMARK  Name = 
REMARK  6 active torsions:
REMARK  status: ('A' for Active; 'I' for Inactive)
REMARK    1  A    between atoms: C_1  and  C_2
REMARK    2  A    between atoms: C_2  and  C_3
REMARK    3  A    between atoms: C_3  and  C_4
REMARK    4  A    between atoms: C_3  and  N_11
REMARK    5  A    between atoms: C_4  and  C_5
REMARK    6  A    between atoms: C_12  and  C_14
REMARK                            x       y       z     vdW  Elec       q    Type
REMARK                         _______ _______ _______ _____ _____    ______ ____
ROOT
ATOM      1  N   UNL     1       5.621   6.123  17.587  0.00  0.00    +0.000 N 
ATOM      2  C   UNL     1       5.509   5.506  18.808  0.00  0.00    +0.000 C 
ATOM      3  O   UNL     1       6.476   5.078  19.431  0.00  0.00    +0.000 OA
ATOM      4  H   UNL     1       4.774   6.394  17.120  0.00  0.00    +0.000 HD
ENDROOT
BRANCH   2   5
ATOM      5  C   UNL     1       4.121   5.404  19.299  0.00  0.00    +0.000 A 
ATOM      6  C   UNL     1       3.391   6.529  19.660  0.00  0.00    +0.000 A 
ATOM      7  S   UNL     1       1.812   6.183  20.176  0.00  0.00    +0.000 S 
ATOM      8  C   UNL     1       2.070   4.500  20.038  0.00  0.00    +0.000 A 
ATOM      9  C   UNL     1       3.326   4.195  19.523  0.00  0.00    +0.000 A 
ATOM     10  C   UNL     1       3.830   2.788  19.318  0.00  0.00    +0.000 C 
ATOM     11  C   UNL     1       2.892   1.773  18.650  0.00  0.00    +0.000 C 
ATOM     12  C   UNL     1       1.445   2.175  18.389  0.00  0.00    +0.000 C 
ATOM     13  C   UNL     1       0.634   2.389  19.659  0.00  0.00    +0.000 C 
ATOM     14  C   UNL     1       0.986   3.589  20.534  0.00  0.00    +0.000 C 
ENDBRANCH   2   5
BRANCH   1  15
ATOM     15  C   UNL     1       6.855   6.342  16.840  0.00  0.00    +0.000 C 
BRANCH  15  17
ATOM     16  C   UNL     1       7.776   8.646  17.627  0.00  0.00    +0.000 C 
ATOM     17  C   UNL     1       7.797   7.129  17.769  0.00  0.00    +0.000 C 
ENDBRANCH  15  17
BRANCH  15  18
ATOM     18  C   UNL     1       7.421   5.022  16.238  0.00  0.00    +0.000 C 
BRANCH  18  19
ATOM     19  C   UNL     1       7.089   4.704  14.794  0.00  0.00    +0.000 A 
ATOM     20  C   UNL     1       7.849   5.231  13.740  0.00  0.00    +0.000 A 
ATOM     21  C   UNL     1       7.522   4.945  12.410  0.00  0.00    +0.000 A 
ATOM     22  C   UNL     1       6.446   4.110  12.114  0.00  0.00    +0.000 A 
ATOM     23  C   UNL     1       5.719   3.535  13.152  0.00  0.00    +0.000 A 
ATOM     24  C   UNL     1       6.039   3.830  14.481  0.00  0.00    +0.000 A 
ENDBRANCH  18  19
ENDBRANCH  15  18
ENDBRANCH   1  15
TORSDOF 5
ENDMDL
MODEL 4
REMARK VINA RESULT:      -7.1      0.935      1.123
REMARK  Name = 
REMARK  6 active torsions:
REMARK  status: ('A' for Active; 'I' for Inactive)
REMARK    1  A    between atoms: C_1  and  C_2
REMARK    2  A    between atoms: C_2  and  C_3
REMARK    3  A    between atoms: C_3  and  C_4
REMARK    4  A    between atoms: C_3  and  N_11
REMARK    5  A    between atoms: C_4  and  C_5
REMARK    6  A    between atoms: C_12  and  C_14
REMARK                            x       y       z     vdW  Elec       q    Type
REMARK                         _______ _______ _______ _____ _____    ______ ____
ROOT
ATOM      1  N   UNL     1       5.051   5.664  17.572  0.00  0.00    +0.000 N 
ATOM      2  C   UNL     1       4.066   6.583  17.835  0.00  0.00    +0.000 C 
ATOM      3  O   UNL     1       3.933   7.621  17.195  0.00  0.00    +0.000 OA
ATOM      4  H   UNL     1       5.123   4.867  18.180  0.00  0.00    +0.000 HD
ENDROOT
BRANCH   2   5
ATOM      5  C   UNL     1       3.186   6.208  18.959  0.00  0.00    +0.000 A 
ATOM      6  C   UNL     1       2.383   7.143  19.600  0.00  0.00    +0.000 A 
ATOM      7  S   UNL     1       1.438   6.492  20.848  0.00  0.00    +0.000 S 
ATOM      8  C   UNL     1       2.140   4.947  20.657  0.00  0.00    +0.000 A 
ATOM      9  C   UNL     1       3.034   4.896  19.592  0.00  0.00    +0.000 A 
ATOM     10  C   UNL     1       3.817   3.665  19.210  0.00  0.00    +0.000 C 
ATOM     11  C   UNL     1       3.069   2.326  19.137  0.00  0.00    +0.000 C 
ATOM     12  C   UNL     1       1.625   2.266  19.624  0.00  0.00    +0.000 C 
ATOM     13  C   UNL     1       1.478   2.495  21.121  0.00  0.00    +0.000 C 
ATOM     14  C   UNL     1       1.778   3.891  21.660  0.00  0.00    +0.000 C 
ENDBRANCH   2   5
BRANCH   1  15
ATOM     15  C   UNL     1       6.082   5.773  16.545  0.00  0.00    +0.000 C 
BRANCH  15  17
ATOM     16  C   UNL     1       7.620   6.070  18.625  0.00  0.00    +0.000 C 
ATOM     17  C   UNL     1       7.278   6.488  17.199  0.00  0.00    +0.000 C 
ENDBRANCH  15  17
BRANCH  15  18
ATOM     18  C   UNL     1       6.382   4.405  15.864  0.00  0.00    +0.000 C 
BRANCH  18  19
ATOM     19  C   UNL     1       6.711   4.409  14.385  0.00  0.00    +0.000 A 
ATOM     20  C   UNL     1       6.101   3.508  13.501  0.00  0.00    +0.000 A 
ATOM     21  C   UNL     1       6.426   3.509  12.141  0.00  0.00    +0.000 A 
ATOM     22  C   UNL     1       7.348   4.426  11.638  0.00  0.00    +0.000 A 
ATOM     23  C   UNL     1       7.917   5.363  12.494  0.00  0.00    +0.000 A 
ATOM     24  C   UNL     1       7.600   5.355  13.857  0.00  0.00    +0.000 A 
ENDBRANCH  18  19
ENDBRANCH  15  18
ENDBRANCH   1  15
TORSDOF 5
ENDMDL
MODEL 5
REMARK VINA RESULT:      -7.0      3.694      5.904
REMARK  Name = 
REMARK  6 active torsions:
REMARK  status: ('A' for Active; 'I' for Inactive)
REMARK    1  A    between atoms: C_1  and  C_2
REMARK    2  A    between atoms: C_2  and  C_3
REMARK    3  A    between atoms: C_3  and  C_4
REMARK    4  A    between atoms: C_3  and  N_11
REMARK    5  A    between atoms: C_4  and  C_5
REMARK    6  A    between atoms: C_12  and  C_14
REMARK                            x       y       z     vdW  Elec       q    Type
REMARK                         _______ _______ _______ _____ _____    ______ ____
ROOT
ATOM      1  N   UNL     1       2.506   6.919  19.247  0.00  0.00    +0.000 N 
ATOM      2  C   UNL     1       1.634   7.387  20.197  0.00  0.00    +0.000 C 
ATOM      3  O   UNL     1       1.179   6.681  21.092  0.00  0.00    +0.000 OA
ATOM      4  H   UNL     1       2.787   7.550  18.517  0.00  0.00    +0.000 HD
ENDROOT
BRANCH   2   5
ATOM      5  C   UNL     1       1.293   8.815  20.042  0.00  0.00    +0.000 A 
ATOM      6  C   UNL     1       1.357   9.450  18.808  0.00  0.00    +0.000 A 
ATOM      7  S   UNL     1       0.903  11.083  18.855  0.00  0.00    +0.000 S 
ATOM      8  C   UNL     1       0.701  11.041  20.550  0.00  0.00    +0.000 A 
ATOM      9  C   UNL     1       0.897   9.770  21.079  0.00  0.00    +0.000 A 
ATOM     10  C   UNL     1       0.807   9.448  22.550  0.00  0.00    +0.000 C 
ATOM     11  C   UNL     1      -0.386  10.005  23.340  0.00  0.00    +0.000 C 
ATOM     12  C   UNL     1      -1.320  10.996  22.656  0.00  0.00    +0.000 C 
ATOM     13  C   UNL     1      -0.660  12.327  22.328  0.00  0.00    +0.000 C 
ATOM     14  C   UNL     1       0.418  12.340  21.247  0.00  0.00    +0.000 C 
ENDBRANCH   2   5
BRANCH   1  15
ATOM     15  C   UNL     1       3.000   5.551  19.126  0.00  0.00    +0.000 C 
BRANCH  15  17
ATOM     16  C   UNL     1       1.450   3.538  18.560  0.00  0.00    +0.000 C 
ATOM     17  C   UNL     1       2.090   4.845  18.106  0.00  0.00    +0.000 C 
ENDBRANCH  15  17
BRANCH  15  18
ATOM     18  C   UNL     1       4.530   5.501  18.840  0.00  0.00    +0.000 C 
BRANCH  18  19
ATOM     19  C   UNL     1       4.974   5.299  17.405  0.00  0.00    +0.000 A 
ATOM     20  C   UNL     1       4.986   6.363  16.491  0.00  0.00    +0.000 A 
ATOM     21  C   UNL     1       5.381   6.161  15.165  0.00  0.00    +0.000 A 
ATOM     22  C   UNL     1       5.793   4.900  14.738  0.00  0.00    +0.000 A 
ATOM     23  C   UNL     1       5.841   3.849  15.649  0.00  0.00    +0.000 A 
ATOM     24  C   UNL     1       5.435   4.049  16.973  0.00  0.00    +0.000 A 
ENDBRANCH  18  19
ENDBRANCH  15  18
ENDBRANCH   1  15
TORSDOF 5
ENDMDL
MODEL 6
REMARK VINA RESULT:      -7.0      3.722      7.605
REMARK  Name = 
REMARK  6 active torsions:
REMARK  status: ('A' for Active; 'I' for Inactive)
REMARK    1  A    between atoms: C_1  and  C_2
REMARK    2  A    between atoms: C_2  and  C_3
REMARK    3  A    between atoms: C_3  and  C_4
REMARK    4  A    between atoms: C_3  and  N_11
REMARK    5  A    between atoms: C_4  and  C_5
REMARK    6  A    between atoms: C_12  and  C_14
REMARK                            x       y       z     vdW  Elec       q    Type
REMARK                         _______ _______ _______ _____ _____    ______ ____
ROOT
ATOM      1  N   UNL     1       2.087   7.625  20.175  0.00  0.00    +0.000 N 
ATOM      2  C   UNL     1       2.342   7.162  18.909  0.00  0.00    +0.000 C 
ATOM      3  O   UNL     1       1.759   7.582  17.915  0.00  0.00    +0.000 OA
ATOM      4  H   UNL     1       2.570   7.187  20.940  0.00  0.00    +0.000 HD
ENDROOT
BRANCH   2   5
ATOM      5  C   UNL     1       3.379   6.112  18.855  0.00  0.00    +0.000 A 
ATOM      6  C   UNL     1       3.405   5.066  19.769  0.00  0.00    +0.000 A 
ATOM      7  S   UNL     1       4.667   3.964  19.510  0.00  0.00    +0.000 S 
ATOM      8  C   UNL     1       5.299   4.895  18.225  0.00  0.00    +0.000 A 
ATOM      9  C   UNL     1       4.510   6.003  17.933  0.00  0.00    +0.000 A 
ATOM     10  C   UNL     1       4.843   7.012  16.862  0.00  0.00    +0.000 C 
ATOM     11  C   UNL     1       5.283   6.490  15.488  0.00  0.00    +0.000 C 
ATOM     12  C   UNL     1       5.537   4.996  15.319  0.00  0.00    +0.000 C 
ATOM     13  C   UNL     1       6.729   4.487  16.115  0.00  0.00    +0.000 C 
ATOM     14  C   UNL     1       6.611   4.465  17.637  0.00  0.00    +0.000 C 
ENDBRANCH   2   5
BRANCH   1  15
ATOM     15  C   UNL     1       1.101   8.635  20.544  0.00  0.00    +0.000 C 
BRANCH  15  17
ATOM     16  C   UNL     1       0.067   9.389  22.811  0.00  0.00    +0.000 C 
ATOM     17  C   UNL     1       1.295   8.910  22.046  0.00  0.00    +0.000 C 
ENDBRANCH  15  17
BRANCH  15  18
ATOM     18  C   UNL     1       1.147   9.874  19.603  0.00  0.00    +0.000 C 
BRANCH  18  19
ATOM     19  C   UNL     1      -0.171  10.432  19.103  0.00  0.00    +0.000 A 
ATOM     20  C   UNL     1      -0.770   9.944  17.933  0.00  0.00    +0.000 A 
ATOM     21  C   UNL     1      -1.978  10.478  17.472  0.00  0.00    +0.000 A 
ATOM     22  C   UNL     1      -2.616  11.492  18.185  0.00  0.00    +0.000 A 
ATOM     23  C   UNL     1      -2.061  11.945  19.377  0.00  0.00    +0.000 A 
ATOM     24  C   UNL     1      -0.848  11.418  19.833  0.00  0.00    +0.000 A 
ENDBRANCH  18  19
ENDBRANCH  15  18
ENDBRANCH   1  15
TORSDOF 5
ENDMDL
MODEL 7
REMARK VINA RESULT:      -7.0      3.704      5.909
REMARK  Name = 
REMARK  6 active torsions:
REMARK  status: ('A' for Active; 'I' for Inactive)
REMARK    1  A    between atoms: C_1  and  C_2
REMARK    2  A    between atoms: C_2  and  C_3
REMARK    3  A    between atoms: C_3  and  C_4
REMARK    4  A    between atoms: C_3  and  N_11
REMARK    5  A    between atoms: C_4  and  C_5
REMARK    6  A    between atoms: C_12  and  C_14
REMARK                            x       y       z     vdW  Elec       q    Type
REMARK                         _______ _______ _______ _____ _____    ______ ____
ROOT
ATOM      1  N   UNL     1       2.544   6.889  19.373  0.00  0.00    +0.000 N 
ATOM      2  C   UNL     1       1.610   7.373  20.254  0.00  0.00    +0.000 C 
ATOM      3  O   UNL     1       1.077   6.676  21.112  0.00  0.00    +0.000 OA
ATOM      4  H   UNL     1       2.889   7.513  18.666  0.00  0.00    +0.000 HD
ENDROOT
BRANCH   2   5
ATOM      5  C   UNL     1       1.303   8.805  20.070  0.00  0.00    +0.000 A 
ATOM      6  C   UNL     1       1.414   9.421  18.830  0.00  0.00    +0.000 A 
ATOM      7  S   UNL     1       0.994  11.064  18.843  0.00  0.00    +0.000 S 
ATOM      8  C   UNL     1       0.744  11.050  20.532  0.00  0.00    +0.000 A 
ATOM      9  C   UNL     1       0.899   9.782  21.083  0.00  0.00    +0.000 A 
ATOM     10  C   UNL     1       0.762   9.483  22.555  0.00  0.00    +0.000 C 
ATOM     11  C   UNL     1      -0.440  10.075  23.305  0.00  0.00    +0.000 C 
ATOM     12  C   UNL     1      -1.334  11.076  22.581  0.00  0.00    +0.000 C 
ATOM     13  C   UNL     1      -0.637  12.389  22.254  0.00  0.00    +0.000 C 
ATOM     14  C   UNL     1       0.470  12.364  21.204  0.00  0.00    +0.000 C 
ENDBRANCH   2   5
BRANCH   1  15
ATOM     15  C   UNL     1       3.025   5.513  19.293  0.00  0.00    +0.000 C 
BRANCH  15  17
ATOM     16  C   UNL     1       1.797   3.315  18.634  0.00  0.00    +0.000 C 
ATOM     17  C   UNL     1       2.088   4.777  18.319  0.00  0.00    +0.000 C 
ENDBRANCH  15  17
BRANCH  15  18
ATOM     18  C   UNL     1       4.547   5.440  18.977  0.00  0.00    +0.000 C 
BRANCH  18  19
ATOM     19  C   UNL     1       4.962   5.294  17.526  0.00  0.00    +0.000 A 
ATOM     20  C   UNL     1       5.327   4.048  16.996  0.00  0.00    +0.000 A 
ATOM     21  C   UNL     1       5.724   3.929  15.660  0.00  0.00    +0.000 A 
ATOM     22  C   UNL     1       5.741   5.047  14.828  0.00  0.00    +0.000 A 
ATOM     23  C   UNL     1       5.327   6.278  15.327  0.00  0.00    +0.000 A 
ATOM     24  C   UNL     1       4.939   6.400  16.666  0.00  0.00    +0.000 A 
ENDBRANCH  18  19
ENDBRANCH  15  18
ENDBRANCH   1  15
TORSDOF 5
ENDMDL
MODEL 8
REMARK VINA RESULT:      -7.0      1.490      2.259
REMARK  Name = 
REMARK  6 active torsions:
REMARK  status: ('A' for Active; 'I' for Inactive)
REMARK    1  A    between atoms: C_1  and  C_2
REMARK    2  A    between atoms: C_2  and  C_3
REMARK    3  A    between atoms: C_3  and  C_4
REMARK    4  A    between atoms: C_3  and  N_11
REMARK    5  A    between atoms: C_4  and  C_5
REMARK    6  A    between atoms: C_12  and  C_14
REMARK                            x       y       z     vdW  Elec       q    Type
REMARK                         _______ _______ _______ _____ _____    ______ ____
ROOT
ATOM      1  N   UNL     1       5.644   5.210  16.961  0.00  0.00    +0.000 N 
ATOM      2  C   UNL     1       4.346   5.549  17.245  0.00  0.00    +0.000 C 
ATOM      3  O   UNL     1       3.918   6.695  17.148  0.00  0.00    +0.000 OA
ATOM      4  H   UNL     1       5.926   4.259  17.121  0.00  0.00    +0.000 HD
ENDROOT
BRANCH   2   5
ATOM      5  C   UNL     1       3.514   4.410  17.682  0.00  0.00    +0.000 A 
ATOM      6  C   UNL     1       3.478   3.218  16.969  0.00  0.00    +0.000 A 
ATOM      7  S   UNL     1       2.474   2.039  17.659  0.00  0.00    +0.000 S 
ATOM      8  C   UNL     1       1.960   3.107  18.888  0.00  0.00    +0.000 A 
ATOM      9  C   UNL     1       2.608   4.337  18.829  0.00  0.00    +0.000 A 
ATOM     10  C   UNL     1       2.331   5.479  19.775  0.00  0.00    +0.000 C 
ATOM     11  C   UNL     1       2.245   5.169  21.277  0.00  0.00    +0.000 C 
ATOM     12  C   UNL     1       2.263   3.713  21.727  0.00  0.00    +0.000 C 
ATOM     13  C   UNL     1       1.035   2.926  21.291  0.00  0.00    +0.000 C 
ATOM     14  C   UNL     1       0.866   2.639  19.802  0.00  0.00    +0.000 C 
ENDBRANCH   2   5
BRANCH   1  15
ATOM     15  C   UNL     1       6.702   6.121  16.537  0.00  0.00    +0.000 C 
BRANCH  15  17
ATOM     16  C   UNL     1       7.678   5.775  18.925  0.00  0.00    +0.000 C 
ATOM     17  C   UNL     1       7.283   6.745  17.819  0.00  0.00    +0.000 C 
ENDBRANCH  15  17
BRANCH  15  18
ATOM     18  C   UNL     1       7.720   5.436  15.578  0.00  0.00    +0.000 C 
BRANCH  18  19
ATOM     19  C   UNL     1       7.184   4.823  14.299  0.00  0.00    +0.000 A 
ATOM     20  C   UNL     1       6.057   3.989  14.310  0.00  0.00    +0.000 A 
ATOM     21  C   UNL     1       5.582   3.415  13.126  0.00  0.00    +0.000 A 
ATOM     22  C   UNL     1       6.211   3.684  11.911  0.00  0.00    +0.000 A 
ATOM     23  C   UNL     1       7.295   4.556  11.880  0.00  0.00    +0.000 A 
ATOM     24  C   UNL     1       7.776   5.122  13.065  0.00  0.00    +0.000 A 
ENDBRANCH  18  19
ENDBRANCH  15  18
ENDBRANCH   1  15
TORSDOF 5
ENDMDL
MODEL 9
REMARK VINA RESULT:      -6.9      4.344      7.311
REMARK  Name = 
REMARK  6 active torsions:
REMARK  status: ('A' for Active; 'I' for Inactive)
REMARK    1  A    between atoms: C_1  and  C_2
REMARK    2  A    between atoms: C_2  and  C_3
REMARK    3  A    between atoms: C_3  and  C_4
REMARK    4  A    between atoms: C_3  and  N_11
REMARK    5  A    between atoms: C_4  and  C_5
REMARK    6  A    between atoms: C_12  and  C_14
REMARK                            x       y       z     vdW  Elec       q    Type
REMARK                         _______ _______ _______ _____ _____    ______ ____
ROOT
ATOM      1  N   UNL     1       1.523   8.945  18.976  0.00  0.00    +0.000 N 
ATOM      2  C   UNL     1       1.905   7.923  19.808  0.00  0.00    +0.000 C 
ATOM      3  O   UNL     1       1.750   7.958  21.024  0.00  0.00    +0.000 OA
ATOM      4  H   UNL     1       1.737   8.859  17.998  0.00  0.00    +0.000 HD
ENDROOT
BRANCH   2   5
ATOM      5  C   UNL     1       2.520   6.780  19.103  0.00  0.00    +0.000 A 
ATOM      6  C   UNL     1       3.451   6.965  18.089  0.00  0.00    +0.000 A 
ATOM      7  S   UNL     1       4.043   5.517  17.433  0.00  0.00    +0.000 S 
ATOM      8  C   UNL     1       3.002   4.578  18.407  0.00  0.00    +0.000 A 
ATOM      9  C   UNL     1       2.258   5.352  19.292  0.00  0.00    +0.000 A 
ATOM     10  C   UNL     1       1.241   4.788  20.252  0.00  0.00    +0.000 C 
ATOM     11  C   UNL     1       1.628   3.548  21.070  0.00  0.00    +0.000 C 
ATOM     12  C   UNL     1       2.940   2.840  20.751  0.00  0.00    +0.000 C 
ATOM     13  C   UNL     1       2.961   2.186  19.377  0.00  0.00    +0.000 C 
ATOM     14  C   UNL     1       2.962   3.099  18.154  0.00  0.00    +0.000 C 
ENDBRANCH   2   5
BRANCH   1  15
ATOM     15  C   UNL     1       0.917  10.209  19.383  0.00  0.00    +0.000 C 
BRANCH  15  17
ATOM     16  C   UNL     1       2.127  12.445  18.822  0.00  0.00    +0.000 C 
ATOM     17  C   UNL     1       1.321  11.250  18.324  0.00  0.00    +0.000 C 
ENDBRANCH  15  17
BRANCH  15  18
ATOM     18  C   UNL     1      -0.607  10.067  19.666  0.00  0.00    +0.000 C 
BRANCH  18  19
ATOM     19  C   UNL     1      -1.569  10.400  18.543  0.00  0.00    +0.000 A 
ATOM     20  C   UNL     1      -1.542   9.697  17.330  0.00  0.00    +0.000 A 
ATOM     21  C   UNL     1      -2.423  10.025  16.294  0.00  0.00    +0.000 A 
ATOM     22  C   UNL     1      -3.359  11.044  16.462  0.00  0.00    +0.000 A 
ATOM     23  C   UNL     1      -3.434  11.710  17.681  0.00  0.00    +0.000 A 
ATOM     24  C   UNL     1      -2.546  11.390  18.714  0.00  0.00    +0.000 A 
ENDBRANCH  18  19
ENDBRANCH  15  18
ENDBRANCH   1  15
TORSDOF 5
ENDMDL
