MODEL 1
REMARK VINA RESULT:      -6.6      0.000      0.000
REMARK  Name = 
REMARK  10 active torsions:
REMARK  status: ('A' for Active; 'I' for Inactive)
REMARK    1  A    between atoms: C_1  and  N_2
REMARK    2  A    between atoms: N_2  and  C_3
REMARK    3  A    between atoms: N_2  and  C_4
REMARK    4  A    between atoms: C_4  and  C_5
REMARK    5  A    between atoms: C_4  and  C_6
REMARK    6  A    between atoms: C_4  and  C_17
REMARK    7  A    between atoms: C_6  and  O_8
REMARK    8  A    between atoms: O_8  and  C_9
REMARK    9  A    between atoms: N_12  and  C_13
REMARK   10  A    between atoms: N_12  and  C_14
REMARK                            x       y       z     vdW  Elec       q    Type
REMARK                         _______ _______ _______ _____ _____    ______ ____
ROOT
ATOM      1  C   UNL     1       3.569   4.162  18.227  0.00  0.00    +0.000 C 
ATOM      2  C   UNL     1       2.222   4.085  17.444  0.00  0.00    +0.000 C 
ENDROOT
BRANCH   1   3
ATOM      3  C   UNL     1       4.783   4.313  17.263  0.00  0.00    +0.000 A 
ATOM      4  C   UNL     1       4.648   4.296  15.861  0.00  0.00    +0.000 A 
ATOM      5  C   UNL     1       5.756   4.435  15.015  0.00  0.00    +0.000 A 
ATOM      6  C   UNL     1       7.033   4.582  15.545  0.00  0.00    +0.000 A 
ATOM      7  C   UNL     1       7.199   4.618  16.921  0.00  0.00    +0.000 A 
ATOM      8  C   UNL     1       6.089   4.506  17.761  0.00  0.00    +0.000 A 
ENDBRANCH   1   3
BRANCH   1  10
ATOM      9  C   UNL     1       2.566   2.904  20.145  0.00  0.00    +0.000 C 
ATOM     10  N   UNL     1       3.622   2.937  19.125  0.00  0.00    +0.000 NA
ATOM     11  C   UNL     1       3.644   1.635  18.452  0.00  0.00    +0.000 C 
ENDBRANCH   1  10
BRANCH   1  12
ATOM     12  C   UNL     1       3.470   5.439  19.163  0.00  0.00    +0.000 C 
ATOM     13  O   UNL     1       4.282   5.745  20.031  0.00  0.00    +0.000 OA
BRANCH  12  14
ATOM     14  O   UNL     1       2.276   6.110  19.024  0.00  0.00    +0.000 OA
BRANCH  14  15
ATOM     15  C   UNL     1       2.376   7.537  19.173  0.00  0.00    +0.000 C 
ATOM     16  C   UNL     1       1.370   7.951  20.242  0.00  0.00    +0.000 C 
ATOM     17  C   UNL     1       1.323   9.456  20.415  0.00  0.00    +0.000 C 
ATOM     18  N   UNL     1       1.044  10.170  19.090  0.00  0.00    +0.000 N 
ATOM     19  C   UNL     1       1.206  11.678  19.329  0.00  0.00    +0.000 C 
ATOM     20  C   UNL     1      -0.397   9.940  18.624  0.00  0.00    +0.000 C 
ATOM     21  C   UNL     1       2.049   9.735  18.014  0.00  0.00    +0.000 C 
ATOM     22  C   UNL     1       2.075   8.221  17.845  0.00  0.00    +0.000 C 
ENDBRANCH  14  15
ENDBRANCH  12  14
ENDBRANCH   1  12
TORSDOF 5
ENDMDL
MODEL 2
REMARK VINA RESULT:      -6.5      0.894      1.076
REMARK  Name = 
REMARK  10 active torsions:
REMARK  status: ('A' for Active; 'I' for Inactive)
REMARK    1  A    between atoms: C_1  and  N_2
REMARK    2  A    between atoms: N_2  and  C_3
REMARK    3  A    between atoms: N_2  and  C_4
REMARK    4  A    between atoms: C_4  and  C_5
REMARK    5  A    between atoms: C_4  and  C_6
REMARK    6  A    between atoms: C_4  and  C_17
REMARK    7  A    between atoms: C_6  and  O_8
REMARK    8  A    between atoms: O_8  and  C_9
REMARK    9  A    between atoms: N_12  and  C_13
REMARK   10  A    between atoms: N_12  and  C_14
REMARK                            x       y       z     vdW  Elec       q    Type
REMARK                         _______ _______ _______ _____ _____    ______ ____
ROOT
ATOM      1  C   UNL     1       3.112   4.366  18.217  0.00  0.00    +0.000 C 
ATOM      2  C   UNL     1       1.670   4.431  17.627  0.00  0.00    +0.000 C 
ENDROOT
BRANCH   1   3
ATOM      3  C   UNL     1       4.189   4.638  17.125  0.00  0.00    +0.000 A 
ATOM      4  C   UNL     1       4.796   3.607  16.381  0.00  0.00    +0.000 A 
ATOM      5  C   UNL     1       5.761   3.878  15.403  0.00  0.00    +0.000 A 
ATOM      6  C   UNL     1       6.158   5.185  15.148  0.00  0.00    +0.000 A 
ATOM      7  C   UNL     1       5.569   6.225  15.851  0.00  0.00    +0.000 A 
ATOM      8  C   UNL     1       4.588   5.953  16.808  0.00  0.00    +0.000 A 
ENDBRANCH   1   3
BRANCH   1  10
ATOM      9  C   UNL     1       4.486   2.861  19.673  0.00  0.00    +0.000 C 
ATOM     10  N   UNL     1       3.240   3.018  18.910  0.00  0.00    +0.000 NA
ATOM     11  C   UNL     1       2.126   2.621  19.774  0.00  0.00    +0.000 C 
ENDBRANCH   1  10
BRANCH   1  12
ATOM     12  C   UNL     1       3.191   5.489  19.334  0.00  0.00    +0.000 C 
ATOM     13  O   UNL     1       4.117   5.637  20.126  0.00  0.00    +0.000 OA
BRANCH  12  14
ATOM     14  O   UNL     1       2.022   6.206  19.451  0.00  0.00    +0.000 OA
BRANCH  14  15
ATOM     15  C   UNL     1       2.196   7.634  19.425  0.00  0.00    +0.000 C 
ATOM     16  C   UNL     1       1.186   8.230  20.400  0.00  0.00    +0.000 C 
ATOM     17  C   UNL     1       1.217   9.745  20.384  0.00  0.00    +0.000 C 
ATOM     18  N   UNL     1       1.014  10.301  18.972  0.00  0.00    +0.000 N 
ATOM     19  C   UNL     1       1.254  11.817  19.029  0.00  0.00    +0.000 C 
ATOM     20  C   UNL     1      -0.423  10.089  18.489  0.00  0.00    +0.000 C 
ATOM     21  C   UNL     1       2.023   9.684  17.993  0.00  0.00    +0.000 C 
ATOM     22  C   UNL     1       1.970   8.161  18.013  0.00  0.00    +0.000 C 
ENDBRANCH  14  15
ENDBRANCH  12  14
ENDBRANCH   1  12
TORSDOF 5
ENDMDL
MODEL 3
REMARK VINA RESULT:      -6.5      0.365      1.078
REMARK  Name = 
REMARK  10 active torsions:
REMARK  status: ('A' for Active; 'I' for Inactive)
REMARK    1  A    between atoms: C_1  and  N_2
REMARK    2  A    between atoms: N_2  and  C_3
REMARK    3  A    between atoms: N_2  and  C_4
REMARK    4  A    between atoms: C_4  and  C_5
REMARK    5  A    between atoms: C_4  and  C_6
REMARK    6  A    between atoms: C_4  and  C_17
REMARK    7  A    between atoms: C_6  and  O_8
REMARK    8  A    between atoms: O_8  and  C_9
REMARK    9  A    between atoms: N_12  and  C_13
REMARK   10  A    between atoms: N_12  and  C_14
REMARK                            x       y       z     vdW  Elec       q    Type
REMARK                         _______ _______ _______ _____ _____    ______ ____
ROOT
ATOM      1  C   UNL     1       3.363   4.142  18.277  0.00  0.00    +0.000 C 
ATOM      2  C   UNL     1       2.125   4.000  17.339  0.00  0.00    +0.000 C 
ENDROOT
BRANCH   1   3
ATOM      3  C   UNL     1       4.686   4.260  17.464  0.00  0.00    +0.000 A 
ATOM      4  C   UNL     1       5.923   4.564  18.064  0.00  0.00    +0.000 A 
ATOM      5  C   UNL     1       7.100   4.663  17.311  0.00  0.00    +0.000 A 
ATOM      6  C   UNL     1       7.073   4.474  15.934  0.00  0.00    +0.000 A 
ATOM      7  C   UNL     1       5.874   4.159  15.313  0.00  0.00    +0.000 A 
ATOM      8  C   UNL     1       4.707   4.035  16.071  0.00  0.00    +0.000 A 
ENDBRANCH   1   3
BRANCH   1  10
ATOM      9  C   UNL     1       2.026   2.815  19.926  0.00  0.00    +0.000 C 
ATOM     10  N   UNL     1       3.317   2.968  19.242  0.00  0.00    +0.000 NA
ATOM     11  C   UNL     1       3.701   1.663  18.699  0.00  0.00    +0.000 C 
ENDBRANCH   1  10
BRANCH   1  12
ATOM     12  C   UNL     1       3.136   5.466  19.121  0.00  0.00    +0.000 C 
ATOM     13  O   UNL     1       3.645   5.706  20.212  0.00  0.00    +0.000 OA
BRANCH  12  14
ATOM     14  O   UNL     1       2.164   6.279  18.584  0.00  0.00    +0.000 OA
BRANCH  14  15
ATOM     15  C   UNL     1       2.285   7.667  18.944  0.00  0.00    +0.000 C 
ATOM     16  C   UNL     1       1.329   7.918  20.106  0.00  0.00    +0.000 C 
ATOM     17  C   UNL     1       1.305   9.378  20.507  0.00  0.00    +0.000 C 
ATOM     18  N   UNL     1       0.979  10.287  19.320  0.00  0.00    +0.000 N 
ATOM     19  C   UNL     1       1.168  11.741  19.779  0.00  0.00    +0.000 C 
ATOM     20  C   UNL     1      -0.482  10.138  18.886  0.00  0.00    +0.000 C 
ATOM     21  C   UNL     1       1.934  10.018  18.148  0.00  0.00    +0.000 C 
ATOM     22  C   UNL     1       1.937   8.547  17.750  0.00  0.00    +0.000 C 
ENDBRANCH  14  15
ENDBRANCH  12  14
ENDBRANCH   1  12
TORSDOF 5
ENDMDL
MODEL 4
REMARK VINA RESULT:      -6.4      0.920      1.100
REMARK  Name = 
REMARK  10 active torsions:
REMARK  status: ('A' for Active; 'I' for Inactive)
REMARK    1  A    between atoms: C_1  and  N_2
REMARK    2  A    between atoms: N_2  and  C_3
REMARK    3  A    between atoms: N_2  and  C_4
REMARK    4  A    between atoms: C_4  and  C_5
REMARK    5  A    between atoms: C_4  and  C_6
REMARK    6  A    between atoms: C_4  and  C_17
REMARK    7  A    between atoms: C_6  and  O_8
REMARK    8  A    between atoms: O_8  and  C_9
REMARK    9  A    between atoms: N_12  and  C_13
REMARK   10  A    between atoms: N_12  and  C_14
REMARK                            x       y       z     vdW  Elec       q    Type
REMARK                         _______ _______ _______ _____ _____    ______ ____
ROOT
ATOM      1  C   UNL     1       3.189   4.328  18.175  0.00  0.00    +0.000 C 
ATOM      2  C   UNL     1       1.734   4.432  17.624  0.00  0.00    +0.000 C 
ENDROOT
BRANCH   1   3
ATOM      3  C   UNL     1       4.243   4.618  17.066  0.00  0.00    +0.000 A 
ATOM      4  C   UNL     1       4.589   5.925  16.668  0.00  0.00    +0.000 A 
ATOM      5  C   UNL     1       5.542   6.160  15.668  0.00  0.00    +0.000 A 
ATOM      6  C   UNL     1       6.168   5.097  15.029  0.00  0.00    +0.000 A 
ATOM      7  C   UNL     1       5.863   3.799  15.407  0.00  0.00    +0.000 A 
ATOM      8  C   UNL     1       4.932   3.569  16.423  0.00  0.00    +0.000 A 
ENDBRANCH   1   3
BRANCH   1  10
ATOM      9  C   UNL     1       4.409   2.863  19.798  0.00  0.00    +0.000 C 
ATOM     10  N   UNL     1       3.314   2.958  18.823  0.00  0.00    +0.000 NA
ATOM     11  C   UNL     1       2.103   2.420  19.447  0.00  0.00    +0.000 C 
ENDBRANCH   1  10
BRANCH   1  12
ATOM     12  C   UNL     1       3.312   5.415  19.324  0.00  0.00    +0.000 C 
ATOM     13  O   UNL     1       4.295   5.581  20.040  0.00  0.00    +0.000 OA
BRANCH  12  14
ATOM     14  O   UNL     1       2.126   6.071  19.564  0.00  0.00    +0.000 OA
BRANCH  14  15
ATOM     15  C   UNL     1       2.239   7.505  19.610  0.00  0.00    +0.000 C 
ATOM     16  C   UNL     1       1.184   8.009  20.590  0.00  0.00    +0.000 C 
ATOM     17  C   UNL     1       1.150   9.523  20.647  0.00  0.00    +0.000 C 
ATOM     18  N   UNL     1       0.951  10.138  19.259  0.00  0.00    +0.000 N 
ATOM     19  C   UNL     1       1.124  11.658  19.392  0.00  0.00    +0.000 C 
ATOM     20  C   UNL     1      -0.465   9.889  18.735  0.00  0.00    +0.000 C 
ATOM     21  C   UNL     1       2.005   9.612  18.274  0.00  0.00    +0.000 C 
ATOM     22  C   UNL     1       2.018   8.089  18.221  0.00  0.00    +0.000 C 
ENDBRANCH  14  15
ENDBRANCH  12  14
ENDBRANCH   1  12
TORSDOF 5
ENDMDL
MODEL 5
REMARK VINA RESULT:      -6.4      2.309      5.536
REMARK  Name = 
REMARK  10 active torsions:
REMARK  status: ('A' for Active; 'I' for Inactive)
REMARK    1  A    between atoms: C_1  and  N_2
REMARK    2  A    between atoms: N_2  and  C_3
REMARK    3  A    between atoms: N_2  and  C_4
REMARK    4  A    between atoms: C_4  and  C_5
REMARK    5  A    between atoms: C_4  and  C_6
REMARK    6  A    between atoms: C_4  and  C_17
REMARK    7  A    between atoms: C_6  and  O_8
REMARK    8  A    between atoms: O_8  and  C_9
REMARK    9  A    between atoms: N_12  and  C_13
REMARK   10  A    between atoms: N_12  and  C_14
REMARK                            x       y       z     vdW  Elec       q    Type
REMARK                         _______ _______ _______ _____ _____    ______ ____
ROOT
ATOM      1  C   UNL     1       2.664   3.806  19.771  0.00  0.00    +0.000 C 
ATOM      2  C   UNL     1       2.116   3.331  21.152  0.00  0.00    +0.000 C 
ENDROOT
BRANCH   1   3
ATOM      3  C   UNL     1       2.408   5.326  19.547  0.00  0.00    +0.000 A 
ATOM      4  C   UNL     1       2.511   5.937  18.282  0.00  0.00    +0.000 A 
ATOM      5  C   UNL     1       2.274   7.306  18.105  0.00  0.00    +0.000 A 
ATOM      6  C   UNL     1       1.941   8.108  19.191  0.00  0.00    +0.000 A 
ATOM      7  C   UNL     1       1.816   7.537  20.448  0.00  0.00    +0.000 A 
ATOM      8  C   UNL     1       2.027   6.166  20.615  0.00  0.00    +0.000 A 
ENDBRANCH   1   3
BRANCH   1  10
ATOM      9  C   UNL     1       2.757   1.627  18.542  0.00  0.00    +0.000 C 
ATOM     10  N   UNL     1       2.045   2.899  18.719  0.00  0.00    +0.000 NA
ATOM     11  C   UNL     1       0.618   2.603  18.873  0.00  0.00    +0.000 C 
ENDBRANCH   1  10
BRANCH   1  12
ATOM     12  C   UNL     1       4.225   3.525  19.788  0.00  0.00    +0.000 C 
ATOM     13  O   UNL     1       4.754   2.491  20.185  0.00  0.00    +0.000 OA
BRANCH  12  14
ATOM     14  O   UNL     1       4.969   4.635  19.460  0.00  0.00    +0.000 OA
BRANCH  14  15
ATOM     15  C   UNL     1       5.799   4.472  18.296  0.00  0.00    +0.000 C 
ATOM     16  C   UNL     1       6.364   5.845  17.948  0.00  0.00    +0.000 C 
ATOM     17  C   UNL     1       7.184   5.808  16.675  0.00  0.00    +0.000 C 
ATOM     18  N   UNL     1       6.386   5.229  15.504  0.00  0.00    +0.000 N 
ATOM     19  C   UNL     1       7.350   5.054  14.322  0.00  0.00    +0.000 C 
ATOM     20  C   UNL     1       5.284   6.190  15.049  0.00  0.00    +0.000 C 
ATOM     21  C   UNL     1       5.805   3.855  15.867  0.00  0.00    +0.000 C 
ATOM     22  C   UNL     1       4.975   3.913  17.144  0.00  0.00    +0.000 C 
ENDBRANCH  14  15
ENDBRANCH  12  14
ENDBRANCH   1  12
TORSDOF 5
ENDMDL
MODEL 6
REMARK VINA RESULT:      -6.4      3.390      5.270
REMARK  Name = 
REMARK  10 active torsions:
REMARK  status: ('A' for Active; 'I' for Inactive)
REMARK    1  A    between atoms: C_1  and  N_2
REMARK    2  A    between atoms: N_2  and  C_3
REMARK    3  A    between atoms: N_2  and  C_4
REMARK    4  A    between atoms: C_4  and  C_5
REMARK    5  A    between atoms: C_4  and  C_6
REMARK    6  A    between atoms: C_4  and  C_17
REMARK    7  A    between atoms: C_6  and  O_8
REMARK    8  A    between atoms: O_8  and  C_9
REMARK    9  A    between atoms: N_12  and  C_13
REMARK   10  A    between atoms: N_12  and  C_14
REMARK                            x       y       z     vdW  Elec       q    Type
REMARK                         _______ _______ _______ _____ _____    ______ ____
ROOT
ATOM      1  C   UNL     1       6.038   5.118  15.680  0.00  0.00    +0.000 C 
ATOM      2  C   UNL     1       5.059   6.129  15.007  0.00  0.00    +0.000 C 
ENDROOT
BRANCH   1   3
ATOM      3  C   UNL     1       6.841   5.784  16.837  0.00  0.00    +0.000 A 
ATOM      4  C   UNL     1       7.092   7.169  16.890  0.00  0.00    +0.000 A 
ATOM      5  C   UNL     1       7.815   7.745  17.943  0.00  0.00    +0.000 A 
ATOM      6  C   UNL     1       8.320   6.951  18.966  0.00  0.00    +0.000 A 
ATOM      7  C   UNL     1       8.077   5.587  18.953  0.00  0.00    +0.000 A 
ATOM      8  C   UNL     1       7.333   5.020  17.916  0.00  0.00    +0.000 A 
ENDBRANCH   1   3
BRANCH   1  10
ATOM      9  C   UNL     1       6.127   3.819  13.542  0.00  0.00    +0.000 C 
ATOM     10  N   UNL     1       6.896   4.534  14.569  0.00  0.00    +0.000 NA
ATOM     11  C   UNL     1       7.805   5.463  13.891  0.00  0.00    +0.000 C 
ENDBRANCH   1  10
BRANCH   1  12
ATOM     12  C   UNL     1       5.141   3.946  16.261  0.00  0.00    +0.000 C 
ATOM     13  O   UNL     1       5.420   2.751  16.213  0.00  0.00    +0.000 OA
BRANCH  12  14
ATOM     14  O   UNL     1       3.909   4.381  16.693  0.00  0.00    +0.000 OA
BRANCH  14  15
ATOM     15  C   UNL     1       3.362   3.625  17.787  0.00  0.00    +0.000 C 
ATOM     16  C   UNL     1       1.869   3.933  17.848  0.00  0.00    +0.000 C 
ATOM     17  C   UNL     1       1.204   3.258  19.030  0.00  0.00    +0.000 C 
ATOM     18  N   UNL     1       1.894   3.616  20.349  0.00  0.00    +0.000 N 
ATOM     19  C   UNL     1       1.278   2.742  21.451  0.00  0.00    +0.000 C 
ATOM     20  C   UNL     1       1.639   5.076  20.735  0.00  0.00    +0.000 C 
ATOM     21  C   UNL     1       3.399   3.319  20.275  0.00  0.00    +0.000 C 
ATOM     22  C   UNL     1       4.054   4.015  19.087  0.00  0.00    +0.000 C 
ENDBRANCH  14  15
ENDBRANCH  12  14
ENDBRANCH   1  12
TORSDOF 5
ENDMDL
MODEL 7
REMARK VINA RESULT:      -6.4      1.099      2.059
REMARK  Name = 
REMARK  10 active torsions:
REMARK  status: ('A' for Active; 'I' for Inactive)
REMARK    1  A    between atoms: C_1  and  N_2
REMARK    2  A    between atoms: N_2  and  C_3
REMARK    3  A    between atoms: N_2  and  C_4
REMARK    4  A    between atoms: C_4  and  C_5
REMARK    5  A    between atoms: C_4  and  C_6
REMARK    6  A    between atoms: C_4  and  C_17
REMARK    7  A    between atoms: C_6  and  O_8
REMARK    8  A    between atoms: O_8  and  C_9
REMARK    9  A    between atoms: N_12  and  C_13
REMARK   10  A    between atoms: N_12  and  C_14
REMARK                            x       y       z     vdW  Elec       q    Type
REMARK                         _______ _______ _______ _____ _____    ______ ____
ROOT
ATOM      1  C   UNL     1       3.206   4.396  18.843  0.00  0.00    +0.000 C 
ATOM      2  C   UNL     1       2.191   4.562  17.671  0.00  0.00    +0.000 C 
ENDROOT
BRANCH   1   3
ATOM      3  C   UNL     1       4.666   4.677  18.379  0.00  0.00    +0.000 A 
ATOM      4  C   UNL     1       5.642   5.230  19.231  0.00  0.00    +0.000 A 
ATOM      5  C   UNL     1       6.950   5.472  18.791  0.00  0.00    +0.000 A 
ATOM      6  C   UNL     1       7.317   5.180  17.483  0.00  0.00    +0.000 A 
ATOM      7  C   UNL     1       6.386   4.620  16.622  0.00  0.00    +0.000 A 
ATOM      8  C   UNL     1       5.090   4.356  17.072  0.00  0.00    +0.000 A 
ENDBRANCH   1   3
BRANCH   1  10
ATOM      9  C   UNL     1       2.376   2.063  18.473  0.00  0.00    +0.000 C 
ATOM     10  N   UNL     1       2.982   3.007  19.421  0.00  0.00    +0.000 NA
ATOM     11  C   UNL     1       4.149   2.357  20.025  0.00  0.00    +0.000 C 
ENDBRANCH   1  10
BRANCH   1  12
ATOM     12  C   UNL     1       2.787   5.450  19.952  0.00  0.00    +0.000 C 
ATOM     13  O   UNL     1       2.182   5.186  20.987  0.00  0.00    +0.000 OA
BRANCH  12  14
ATOM     14  O   UNL     1       3.025   6.749  19.568  0.00  0.00    +0.000 OA
BRANCH  14  15
ATOM     15  C   UNL     1       1.838   7.533  19.352  0.00  0.00    +0.000 C 
ATOM     16  C   UNL     1       2.058   8.345  18.080  0.00  0.00    +0.000 C 
ATOM     17  C   UNL     1       0.900   9.283  17.805  0.00  0.00    +0.000 C 
ATOM     18  N   UNL     1       0.616  10.197  19.000  0.00  0.00    +0.000 N 
ATOM     19  C   UNL     1      -0.681  10.964  18.703  0.00  0.00    +0.000 C 
ATOM     20  C   UNL     1       1.724  11.237  19.184  0.00  0.00    +0.000 C 
ATOM     21  C   UNL     1       0.413   9.373  20.280  0.00  0.00    +0.000 C 
ATOM     22  C   UNL     1       1.591   8.445  20.547  0.00  0.00    +0.000 C 
ENDBRANCH  14  15
ENDBRANCH  12  14
ENDBRANCH   1  12
TORSDOF 5
ENDMDL
MODEL 8
REMARK VINA RESULT:      -6.4      1.275      1.899
REMARK  Name = 
REMARK  10 active torsions:
REMARK  status: ('A' for Active; 'I' for Inactive)
REMARK    1  A    between atoms: C_1  and  N_2
REMARK    2  A    between atoms: N_2  and  C_3
REMARK    3  A    between atoms: N_2  and  C_4
REMARK    4  A    between atoms: C_4  and  C_5
REMARK    5  A    between atoms: C_4  and  C_6
REMARK    6  A    between atoms: C_4  and  C_17
REMARK    7  A    between atoms: C_6  and  O_8
REMARK    8  A    between atoms: O_8  and  C_9
REMARK    9  A    between atoms: N_12  and  C_13
REMARK   10  A    between atoms: N_12  and  C_14
REMARK                            x       y       z     vdW  Elec       q    Type
REMARK                         _______ _______ _______ _____ _____    ______ ____
ROOT
ATOM      1  C   UNL     1       2.986   4.663  18.880  0.00  0.00    +0.000 C 
ATOM      2  C   UNL     1       1.887   4.685  17.774  0.00  0.00    +0.000 C 
ENDROOT
BRANCH   1   3
ATOM      3  C   UNL     1       4.362   5.139  18.329  0.00  0.00    +0.000 A 
ATOM      4  C   UNL     1       4.555   5.514  16.985  0.00  0.00    +0.000 A 
ATOM      5  C   UNL     1       5.803   5.942  16.513  0.00  0.00    +0.000 A 
ATOM      6  C   UNL     1       6.898   5.994  17.367  0.00  0.00    +0.000 A 
ATOM      7  C   UNL     1       6.740   5.647  18.700  0.00  0.00    +0.000 A 
ATOM      8  C   UNL     1       5.487   5.247  19.173  0.00  0.00    +0.000 A 
ENDBRANCH   1   3
BRANCH   1  10
ATOM      9  C   UNL     1       1.759   2.503  19.197  0.00  0.00    +0.000 C 
ATOM     10  N   UNL     1       2.990   3.259  19.464  0.00  0.00    +0.000 NA
ATOM     11  C   UNL     1       4.130   2.409  19.109  0.00  0.00    +0.000 C 
ENDBRANCH   1  10
BRANCH   1  12
ATOM     12  C   UNL     1       2.496   5.653  20.018  0.00  0.00    +0.000 C 
ATOM     13  O   UNL     1       1.816   5.336  20.989  0.00  0.00    +0.000 OA
BRANCH  12  14
ATOM     14  O   UNL     1       2.771   6.971  19.731  0.00  0.00    +0.000 OA
BRANCH  14  15
ATOM     15  C   UNL     1       1.609   7.778  19.470  0.00  0.00    +0.000 C 
ATOM     16  C   UNL     1       1.917   8.631  18.244  0.00  0.00    +0.000 C 
ATOM     17  C   UNL     1       0.790   9.593  17.932  0.00  0.00    +0.000 C 
ATOM     18  N   UNL     1       0.443  10.469  19.138  0.00  0.00    +0.000 N 
ATOM     19  C   UNL     1      -0.823  11.265  18.789  0.00  0.00    +0.000 C 
ATOM     20  C   UNL     1       1.550  11.487  19.427  0.00  0.00    +0.000 C 
ATOM     21  C   UNL     1       0.151   9.605  20.373  0.00  0.00    +0.000 C 
ATOM     22  C   UNL     1       1.299   8.651  20.679  0.00  0.00    +0.000 C 
ENDBRANCH  14  15
ENDBRANCH  12  14
ENDBRANCH   1  12
TORSDOF 5
ENDMDL
MODEL 9
REMARK VINA RESULT:      -6.3      1.462      3.473
REMARK  Name = 
REMARK  10 active torsions:
REMARK  status: ('A' for Active; 'I' for Inactive)
REMARK    1  A    between atoms: C_1  and  N_2
REMARK    2  A    between atoms: N_2  and  C_3
REMARK    3  A    between atoms: N_2  and  C_4
REMARK    4  A    between atoms: C_4  and  C_5
REMARK    5  A    between atoms: C_4  and  C_6
REMARK    6  A    between atoms: C_4  and  C_17
REMARK    7  A    between atoms: C_6  and  O_8
REMARK    8  A    between atoms: O_8  and  C_9
REMARK    9  A    between atoms: N_12  and  C_13
REMARK   10  A    between atoms: N_12  and  C_14
REMARK                            x       y       z     vdW  Elec       q    Type
REMARK                         _______ _______ _______ _____ _____    ______ ____
ROOT
ATOM      1  C   UNL     1       4.367   5.021  18.290  0.00  0.00    +0.000 C 
ATOM      2  C   UNL     1       5.389   5.333  19.426  0.00  0.00    +0.000 C 
ENDROOT
BRANCH   1   3
ATOM      3  C   UNL     1       3.100   4.302  18.842  0.00  0.00    +0.000 A 
ATOM      4  C   UNL     1       2.238   3.546  18.024  0.00  0.00    +0.000 A 
ATOM      5  C   UNL     1       1.105   2.906  18.545  0.00  0.00    +0.000 A 
ATOM      6  C   UNL     1       0.795   3.015  19.895  0.00  0.00    +0.000 A 
ATOM      7  C   UNL     1       1.631   3.739  20.731  0.00  0.00    +0.000 A 
ATOM      8  C   UNL     1       2.774   4.353  20.213  0.00  0.00    +0.000 A 
ENDBRANCH   1   3
BRANCH   1  10
ATOM      9  C   UNL     1       4.661   4.514  15.856  0.00  0.00    +0.000 C 
ATOM     10  N   UNL     1       5.122   4.243  17.224  0.00  0.00    +0.000 NA
ATOM     11  C   UNL     1       6.582   4.361  17.242  0.00  0.00    +0.000 C 
ENDBRANCH   1  10
BRANCH   1  12
ATOM     12  C   UNL     1       3.955   6.418  17.662  0.00  0.00    +0.000 C 
ATOM     13  O   UNL     1       4.720   7.192  17.093  0.00  0.00    +0.000 OA
BRANCH  12  14
ATOM     14  O   UNL     1       2.660   6.774  17.960  0.00  0.00    +0.000 OA
BRANCH  14  15
ATOM     15  C   UNL     1       2.531   8.034  18.643  0.00  0.00    +0.000 C 
ATOM     16  C   UNL     1       1.690   7.787  19.891  0.00  0.00    +0.000 C 
ATOM     17  C   UNL     1       1.411   9.072  20.643  0.00  0.00    +0.000 C 
ATOM     18  N   UNL     1       0.764  10.127  19.742  0.00  0.00    +0.000 N 
ATOM     19  C   UNL     1       0.699  11.442  20.533  0.00  0.00    +0.000 C 
ATOM     20  C   UNL     1      -0.675   9.747  19.382  0.00  0.00    +0.000 C 
ATOM     21  C   UNL     1       1.607  10.358  18.480  0.00  0.00    +0.000 C 
ATOM     22  C   UNL     1       1.868   9.057  17.730  0.00  0.00    +0.000 C 
ENDBRANCH  14  15
ENDBRANCH  12  14
ENDBRANCH   1  12
TORSDOF 5
ENDMDL
