MODEL 1
REMARK VINA RESULT:      -8.3      0.000      0.000
REMARK  Name = 
REMARK  9 active torsions:
REMARK  status: ('A' for Active; 'I' for Inactive)
REMARK    1  A    between atoms: C_2  and  C_3
REMARK    2  A    between atoms: C_3  and  O_4
REMARK    3  A    between atoms: O_4  and  C_5
REMARK    4  A    between atoms: C_5  and  C_7
REMARK    5  A    between atoms: C_7  and  C_8
REMARK    6  A    between atoms: C_8  and  N_9
REMARK    7  A    between atoms: N_20  and  C_21
REMARK    8  A    between atoms: C_21  and  C_22
REMARK    9  A    between atoms: C_22  and  C_23
REMARK                            x       y       z     vdW  Elec       q    Type
REMARK                         _______ _______ _______ _____ _____    ______ ____
ROOT
ATOM      1  C   UNL     1       6.399   5.355  15.582  0.00  0.00    +0.000 C 
ATOM      2  O   UNL     1       6.533   4.935  14.437  0.00  0.00    +0.000 OA
ENDROOT
BRANCH   1   3
ATOM      3  O   UNL     1       7.317   6.109  16.238  0.00  0.00    +0.000 OA
BRANCH   3   4
ATOM      4  C   UNL     1       6.790   7.097  17.132  0.00  0.00    +0.000 C 
BRANCH   4   6
ATOM      5  O   UNL     1       8.505   7.186  18.840  0.00  0.00    +0.000 OA
ATOM      6  C   UNL     1       7.828   7.800  18.018  0.00  0.00    +0.000 C 
ATOM      7  N   UNL     1       7.909   9.164  17.849  0.00  0.00    +0.000 N 
ATOM      8  H   UNL     1       7.205   9.616  17.267  0.00  0.00    +0.000 HD
BRANCH   7   9
ATOM      9  C   UNL     1       8.804   9.979  18.653  0.00  0.00    +0.000 C 
BRANCH   9  10
ATOM     10  C   UNL     1       9.795  10.765  17.794  0.00  0.00    +0.000 C 
BRANCH  10  11
ATOM     11  C   UNL     1      10.389  11.940  18.532  0.00  0.00    +0.000 A 
ATOM     12  C   UNL     1      11.128  12.913  17.847  0.00  0.00    +0.000 A 
ATOM     13  C   UNL     1      11.692  13.988  18.536  0.00  0.00    +0.000 A 
ATOM     14  C   UNL     1      11.527  14.100  19.916  0.00  0.00    +0.000 A 
ATOM     15  C   UNL     1      10.795  13.137  20.607  0.00  0.00    +0.000 A 
ATOM     16  C   UNL     1      10.229  12.061  19.920  0.00  0.00    +0.000 A 
ENDBRANCH  10  11
ENDBRANCH   9  10
ENDBRANCH   7   9
ENDBRANCH   4   6
ENDBRANCH   3   4
ENDBRANCH   1   3
BRANCH   1  17
ATOM     17  C   UNL     1       5.193   5.104  16.459  0.00  0.00    +0.000 C 
BRANCH  17  18
ATOM     18  C   UNL     1       5.012   3.604  16.621  0.00  0.00    +0.000 C 
BRANCH  18  19
ATOM     19  N   UNL     1       4.085   3.209  17.667  0.00  0.00    +0.000 N 
ATOM     20  C   UNL     1       2.745   3.036  17.470  0.00  0.00    +0.000 C 
ATOM     21  O   UNL     1       2.119   3.368  16.475  0.00  0.00    +0.000 OA
ATOM     22  C   UNL     1       2.177   2.290  18.657  0.00  0.00    +0.000 C 
ATOM     23  C   UNL     1       0.784   2.760  19.066  0.00  0.00    +0.000 C 
ATOM     24  C   UNL     1       0.682   3.416  20.403  0.00  0.00    +0.000 C 
ATOM     25  C   UNL     1       1.671   3.455  21.299  0.00  0.00    +0.000 C 
ATOM     26  C   UNL     1       3.019   2.847  21.090  0.00  0.00    +0.000 C 
ATOM     27  C   UNL     1       3.308   2.319  19.688  0.00  0.00    +0.000 C 
ATOM     28  C   UNL     1       4.429   3.051  18.979  0.00  0.00    +0.000 C 
ATOM     29  O   UNL     1       5.484   3.391  19.485  0.00  0.00    +0.000 OA
ENDBRANCH  18  19
ENDBRANCH  17  18
ENDBRANCH   1  17
TORSDOF 9
ENDMDL
MODEL 2
REMARK VINA RESULT:      -8.0      1.068      1.305
REMARK  Name = 
REMARK  9 active torsions:
REMARK  status: ('A' for Active; 'I' for Inactive)
REMARK    1  A    between atoms: C_2  and  C_3
REMARK    2  A    between atoms: C_3  and  O_4
REMARK    3  A    between atoms: O_4  and  C_5
REMARK    4  A    between atoms: C_5  and  C_7
REMARK    5  A    between atoms: C_7  and  C_8
REMARK    6  A    between atoms: C_8  and  N_9
REMARK    7  A    between atoms: N_20  and  C_21
REMARK    8  A    between atoms: C_21  and  C_22
REMARK    9  A    between atoms: C_22  and  C_23
REMARK                            x       y       z     vdW  Elec       q    Type
REMARK                         _______ _______ _______ _____ _____    ______ ____
ROOT
ATOM      1  C   UNL     1       4.746   6.183  17.188  0.00  0.00    +0.000 C 
ATOM      2  O   UNL     1       3.794   6.876  17.533  0.00  0.00    +0.000 OA
ENDROOT
BRANCH   1   3
ATOM      3  O   UNL     1       5.990   6.261  17.727  0.00  0.00    +0.000 OA
BRANCH   3   4
ATOM      4  C   UNL     1       6.865   7.231  17.138  0.00  0.00    +0.000 C 
BRANCH   4   6
ATOM      5  O   UNL     1       8.508   7.117  18.915  0.00  0.00    +0.000 OA
ATOM      6  C   UNL     1       7.930   7.810  18.081  0.00  0.00    +0.000 C 
ATOM      7  N   UNL     1       8.154   9.162  17.945  0.00  0.00    +0.000 N 
ATOM      8  H   UNL     1       7.523   9.693  17.346  0.00  0.00    +0.000 HD
BRANCH   7   9
ATOM      9  C   UNL     1       9.091   9.868  18.802  0.00  0.00    +0.000 C 
BRANCH   9  10
ATOM     10  C   UNL     1       9.442  11.252  18.254  0.00  0.00    +0.000 C 
BRANCH  10  11
ATOM     11  C   UNL     1       9.703  12.255  19.350  0.00  0.00    +0.000 A 
ATOM     12  C   UNL     1      10.317  13.481  19.064  0.00  0.00    +0.000 A 
ATOM     13  C   UNL     1      10.575  14.399  20.085  0.00  0.00    +0.000 A 
ATOM     14  C   UNL     1      10.225  14.100  21.401  0.00  0.00    +0.000 A 
ATOM     15  C   UNL     1       9.614  12.882  21.697  0.00  0.00    +0.000 A 
ATOM     16  C   UNL     1       9.356  11.963  20.677  0.00  0.00    +0.000 A 
ENDBRANCH  10  11
ENDBRANCH   9  10
ENDBRANCH   7   9
ENDBRANCH   4   6
ENDBRANCH   3   4
ENDBRANCH   1   3
BRANCH   1  17
ATOM     17  C   UNL     1       4.701   5.128  16.107  0.00  0.00    +0.000 C 
BRANCH  17  18
ATOM     18  C   UNL     1       5.063   3.785  16.720  0.00  0.00    +0.000 C 
BRANCH  18  19
ATOM     19  N   UNL     1       4.140   3.308  17.735  0.00  0.00    +0.000 N 
ATOM     20  C   UNL     1       2.821   3.044  17.500  0.00  0.00    +0.000 C 
ATOM     21  O   UNL     1       2.197   3.349  16.495  0.00  0.00    +0.000 OA
ATOM     22  C   UNL     1       2.278   2.240  18.661  0.00  0.00    +0.000 C 
ATOM     23  C   UNL     1       0.846   2.604  19.040  0.00  0.00    +0.000 C 
ATOM     24  C   UNL     1       0.664   3.227  20.384  0.00  0.00    +0.000 C 
ATOM     25  C   UNL     1       1.625   3.320  21.306  0.00  0.00    +0.000 C 
ATOM     26  C   UNL     1       3.018   2.813  21.123  0.00  0.00    +0.000 C 
ATOM     27  C   UNL     1       3.379   2.331  19.721  0.00  0.00    +0.000 C 
ATOM     28  C   UNL     1       4.462   3.152  19.053  0.00  0.00    +0.000 C 
ATOM     29  O   UNL     1       5.477   3.557  19.592  0.00  0.00    +0.000 OA
ENDBRANCH  18  19
ENDBRANCH  17  18
ENDBRANCH   1  17
TORSDOF 9
ENDMDL
MODEL 3
REMARK VINA RESULT:      -8.0      4.964      6.690
REMARK  Name = 
REMARK  9 active torsions:
REMARK  status: ('A' for Active; 'I' for Inactive)
REMARK    1  A    between atoms: C_2  and  C_3
REMARK    2  A    between atoms: C_3  and  O_4
REMARK    3  A    between atoms: O_4  and  C_5
REMARK    4  A    between atoms: C_5  and  C_7
REMARK    5  A    between atoms: C_7  and  C_8
REMARK    6  A    between atoms: C_8  and  N_9
REMARK    7  A    between atoms: N_20  and  C_21
REMARK    8  A    between atoms: C_21  and  C_22
REMARK    9  A    between atoms: C_22  and  C_23
REMARK                            x       y       z     vdW  Elec       q    Type
REMARK                         _______ _______ _______ _____ _____    ______ ____
ROOT
ATOM      1  C   UNL     1       4.951   6.205  17.157  0.00  0.00    +0.000 C 
ATOM      2  O   UNL     1       5.972   6.338  17.825  0.00  0.00    +0.000 OA
ENDROOT
BRANCH   1   3
ATOM      3  O   UNL     1       3.855   7.000  17.259  0.00  0.00    +0.000 OA
BRANCH   3   4
ATOM      4  C   UNL     1       2.913   6.636  18.276  0.00  0.00    +0.000 C 
BRANCH   4   6
ATOM      5  O   UNL     1       2.061   7.746  20.253  0.00  0.00    +0.000 OA
ATOM      6  C   UNL     1       2.296   7.810  19.048  0.00  0.00    +0.000 C 
ATOM      7  N   UNL     1       1.991   8.914  18.283  0.00  0.00    +0.000 N 
ATOM      8  H   UNL     1       2.066   8.828  17.270  0.00  0.00    +0.000 HD
BRANCH   7   9
ATOM      9  C   UNL     1       1.351  10.085  18.857  0.00  0.00    +0.000 C 
BRANCH   9  10
ATOM     10  C   UNL     1      -0.125   9.838  19.171  0.00  0.00    +0.000 C 
BRANCH  10  11
ATOM     11  C   UNL     1      -0.536  10.427  20.498  0.00  0.00    +0.000 A 
ATOM     12  C   UNL     1      -0.353   9.706  21.685  0.00  0.00    +0.000 A 
ATOM     13  C   UNL     1      -0.752  10.246  22.910  0.00  0.00    +0.000 A 
ATOM     14  C   UNL     1      -1.340  11.508  22.961  0.00  0.00    +0.000 A 
ATOM     15  C   UNL     1      -1.528  12.234  21.785  0.00  0.00    +0.000 A 
ATOM     16  C   UNL     1      -1.130  11.695  20.559  0.00  0.00    +0.000 A 
ENDBRANCH  10  11
ENDBRANCH   9  10
ENDBRANCH   7   9
ENDBRANCH   4   6
ENDBRANCH   3   4
ENDBRANCH   1   3
BRANCH   1  17
ATOM     17  C   UNL     1       4.736   5.135  16.112  0.00  0.00    +0.000 C 
BRANCH  17  18
ATOM     18  C   UNL     1       5.084   3.785  16.717  0.00  0.00    +0.000 C 
BRANCH  18  19
ATOM     19  N   UNL     1       4.151   3.306  17.723  0.00  0.00    +0.000 N 
ATOM     20  C   UNL     1       2.841   3.020  17.470  0.00  0.00    +0.000 C 
ATOM     21  O   UNL     1       2.229   3.302  16.450  0.00  0.00    +0.000 OA
ATOM     22  C   UNL     1       2.291   2.223  18.631  0.00  0.00    +0.000 C 
ATOM     23  C   UNL     1       0.847   2.569  18.983  0.00  0.00    +0.000 C 
ATOM     24  C   UNL     1       0.633   3.207  20.315  0.00  0.00    +0.000 C 
ATOM     25  C   UNL     1       1.578   3.326  21.252  0.00  0.00    +0.000 C 
ATOM     26  C   UNL     1       2.981   2.838  21.098  0.00  0.00    +0.000 C 
ATOM     27  C   UNL     1       3.372   2.344  19.709  0.00  0.00    +0.000 C 
ATOM     28  C   UNL     1       4.454   3.173  19.047  0.00  0.00    +0.000 C 
ATOM     29  O   UNL     1       5.454   3.599  19.597  0.00  0.00    +0.000 OA
ENDBRANCH  18  19
ENDBRANCH  17  18
ENDBRANCH   1  17
TORSDOF 9
ENDMDL
MODEL 4
REMARK VINA RESULT:      -8.0      1.863      2.623
REMARK  Name = 
REMARK  9 active torsions:
REMARK  status: ('A' for Active; 'I' for Inactive)
REMARK    1  A    between atoms: C_2  and  C_3
REMARK    2  A    between atoms: C_3  and  O_4
REMARK    3  A    between atoms: O_4  and  C_5
REMARK    4  A    between atoms: C_5  and  C_7
REMARK    5  A    between atoms: C_7  and  C_8
REMARK    6  A    between atoms: C_8  and  N_9
REMARK    7  A    between atoms: N_20  and  C_21
REMARK    8  A    between atoms: C_21  and  C_22
REMARK    9  A    between atoms: C_22  and  C_23
REMARK                            x       y       z     vdW  Elec       q    Type
REMARK                         _______ _______ _______ _____ _____    ______ ____
ROOT
ATOM      1  C   UNL     1       6.907   4.743  17.783  0.00  0.00    +0.000 C 
ATOM      2  O   UNL     1       6.680   4.354  18.924  0.00  0.00    +0.000 OA
ENDROOT
BRANCH   1   3
ATOM      3  O   UNL     1       7.728   5.779  17.472  0.00  0.00    +0.000 OA
BRANCH   3   4
ATOM      4  C   UNL     1       7.981   6.714  18.528  0.00  0.00    +0.000 C 
BRANCH   4   6
ATOM      5  O   UNL     1       7.580   8.589  17.048  0.00  0.00    +0.000 OA
ATOM      6  C   UNL     1       8.084   8.183  18.093  0.00  0.00    +0.000 C 
ATOM      7  N   UNL     1       8.814   8.990  18.937  0.00  0.00    +0.000 N 
ATOM      8  H   UNL     1       9.332   8.545  19.693  0.00  0.00    +0.000 HD
BRANCH   7   9
ATOM      9  C   UNL     1       9.050  10.392  18.634  0.00  0.00    +0.000 C 
BRANCH   9  10
ATOM     10  C   UNL     1      10.343  10.907  19.268  0.00  0.00    +0.000 C 
BRANCH  10  11
ATOM     11  C   UNL     1      10.496  12.401  19.124  0.00  0.00    +0.000 A 
ATOM     12  C   UNL     1      11.096  13.158  20.139  0.00  0.00    +0.000 A 
ATOM     13  C   UNL     1      11.219  14.543  20.010  0.00  0.00    +0.000 A 
ATOM     14  C   UNL     1      10.742  15.186  18.869  0.00  0.00    +0.000 A 
ATOM     15  C   UNL     1      10.143  14.442  17.853  0.00  0.00    +0.000 A 
ATOM     16  C   UNL     1      10.019  13.057  17.980  0.00  0.00    +0.000 A 
ENDBRANCH  10  11
ENDBRANCH   9  10
ENDBRANCH   7   9
ENDBRANCH   4   6
ENDBRANCH   3   4
ENDBRANCH   1   3
BRANCH   1  17
ATOM     17  C   UNL     1       6.312   4.142  16.530  0.00  0.00    +0.000 C 
BRANCH  17  18
ATOM     18  C   UNL     1       5.199   5.050  16.034  0.00  0.00    +0.000 C 
BRANCH  18  19
ATOM     19  N   UNL     1       4.085   5.210  16.952  0.00  0.00    +0.000 N 
ATOM     20  C   UNL     1       3.810   6.368  17.620  0.00  0.00    +0.000 C 
ATOM     21  O   UNL     1       4.544   7.342  17.699  0.00  0.00    +0.000 OA
ATOM     22  C   UNL     1       2.408   6.278  18.182  0.00  0.00    +0.000 C 
ATOM     23  C   UNL     1       2.258   6.920  19.558  0.00  0.00    +0.000 C 
ATOM     24  C   UNL     1       1.942   5.990  20.682  0.00  0.00    +0.000 C 
ATOM     25  C   UNL     1       1.626   4.702  20.526  0.00  0.00    +0.000 C 
ATOM     26  C   UNL     1       1.541   4.011  19.205  0.00  0.00    +0.000 C 
ATOM     27  C   UNL     1       2.030   4.805  17.998  0.00  0.00    +0.000 C 
ATOM     28  C   UNL     1       3.241   4.201  17.318  0.00  0.00    +0.000 C 
ATOM     29  O   UNL     1       3.405   3.015  17.087  0.00  0.00    +0.000 OA
ENDBRANCH  18  19
ENDBRANCH  17  18
ENDBRANCH   1  17
TORSDOF 9
ENDMDL
MODEL 5
REMARK VINA RESULT:      -8.0      1.605      2.466
REMARK  Name = 
REMARK  9 active torsions:
REMARK  status: ('A' for Active; 'I' for Inactive)
REMARK    1  A    between atoms: C_2  and  C_3
REMARK    2  A    between atoms: C_3  and  O_4
REMARK    3  A    between atoms: O_4  and  C_5
REMARK    4  A    between atoms: C_5  and  C_7
REMARK    5  A    between atoms: C_7  and  C_8
REMARK    6  A    between atoms: C_8  and  N_9
REMARK    7  A    between atoms: N_20  and  C_21
REMARK    8  A    between atoms: C_21  and  C_22
REMARK    9  A    between atoms: C_22  and  C_23
REMARK                            x       y       z     vdW  Elec       q    Type
REMARK                         _______ _______ _______ _____ _____    ______ ____
ROOT
ATOM      1  C   UNL     1       6.195   4.938  16.264  0.00  0.00    +0.000 C 
ATOM      2  O   UNL     1       6.216   6.010  15.669  0.00  0.00    +0.000 OA
ENDROOT
BRANCH   1   3
ATOM      3  O   UNL     1       7.168   4.504  17.105  0.00  0.00    +0.000 OA
BRANCH   3   4
ATOM      4  C   UNL     1       6.881   4.619  18.504  0.00  0.00    +0.000 C 
BRANCH   4   6
ATOM      5  O   UNL     1       7.983   5.588  20.432  0.00  0.00    +0.000 OA
ATOM      6  C   UNL     1       7.673   5.704  19.248  0.00  0.00    +0.000 C 
ATOM      7  N   UNL     1       7.971   6.822  18.502  0.00  0.00    +0.000 N 
ATOM      8  H   UNL     1       7.541   6.910  17.581  0.00  0.00    +0.000 HD
BRANCH   7   9
ATOM      9  C   UNL     1       8.667   7.960  19.079  0.00  0.00    +0.000 C 
BRANCH   9  10
ATOM     10  C   UNL     1       8.410   9.249  18.297  0.00  0.00    +0.000 C 
BRANCH  10  11
ATOM     11  C   UNL     1       9.316  10.374  18.731  0.00  0.00    +0.000 A 
ATOM     12  C   UNL     1       9.392  10.749  20.079  0.00  0.00    +0.000 A 
ATOM     13  C   UNL     1      10.218  11.804  20.474  0.00  0.00    +0.000 A 
ATOM     14  C   UNL     1      10.972  12.496  19.527  0.00  0.00    +0.000 A 
ATOM     15  C   UNL     1      10.903  12.131  18.184  0.00  0.00    +0.000 A 
ATOM     16  C   UNL     1      10.078  11.076  17.787  0.00  0.00    +0.000 A 
ENDBRANCH  10  11
ENDBRANCH   9  10
ENDBRANCH   7   9
ENDBRANCH   4   6
ENDBRANCH   3   4
ENDBRANCH   1   3
BRANCH   1  17
ATOM     17  C   UNL     1       5.086   3.915  16.161  0.00  0.00    +0.000 C 
BRANCH  17  18
ATOM     18  C   UNL     1       3.750   4.633  16.248  0.00  0.00    +0.000 C 
BRANCH  18  19
ATOM     19  N   UNL     1       3.008   4.398  17.475  0.00  0.00    +0.000 N 
ATOM     20  C   UNL     1       3.055   5.224  18.562  0.00  0.00    +0.000 C 
ATOM     21  O   UNL     1       3.849   6.135  18.735  0.00  0.00    +0.000 OA
ATOM     22  C   UNL     1       1.907   4.872  19.482  0.00  0.00    +0.000 C 
ATOM     23  C   UNL     1       2.260   4.965  20.963  0.00  0.00    +0.000 C 
ATOM     24  C   UNL     1       2.253   3.679  21.720  0.00  0.00    +0.000 C 
ATOM     25  C   UNL     1       1.803   2.521  21.230  0.00  0.00    +0.000 C 
ATOM     26  C   UNL     1       1.242   2.350  19.856  0.00  0.00    +0.000 C 
ATOM     27  C   UNL     1       1.376   3.549  18.922  0.00  0.00    +0.000 C 
ATOM     28  C   UNL     1       2.251   3.287  17.713  0.00  0.00    +0.000 C 
ATOM     29  O   UNL     1       2.238   2.274  17.037  0.00  0.00    +0.000 OA
ENDBRANCH  18  19
ENDBRANCH  17  18
ENDBRANCH   1  17
TORSDOF 9
ENDMDL
MODEL 6
REMARK VINA RESULT:      -7.9      1.464      1.804
REMARK  Name = 
REMARK  9 active torsions:
REMARK  status: ('A' for Active; 'I' for Inactive)
REMARK    1  A    between atoms: C_2  and  C_3
REMARK    2  A    between atoms: C_3  and  O_4
REMARK    3  A    between atoms: O_4  and  C_5
REMARK    4  A    between atoms: C_5  and  C_7
REMARK    5  A    between atoms: C_7  and  C_8
REMARK    6  A    between atoms: C_8  and  N_9
REMARK    7  A    between atoms: N_20  and  C_21
REMARK    8  A    between atoms: C_21  and  C_22
REMARK    9  A    between atoms: C_22  and  C_23
REMARK                            x       y       z     vdW  Elec       q    Type
REMARK                         _______ _______ _______ _____ _____    ______ ____
ROOT
ATOM      1  C   UNL     1       5.723   4.602  16.170  0.00  0.00    +0.000 C 
ATOM      2  O   UNL     1       5.305   3.456  16.043  0.00  0.00    +0.000 OA
ENDROOT
BRANCH   1   3
ATOM      3  O   UNL     1       7.037   4.943  16.208  0.00  0.00    +0.000 OA
BRANCH   3   4
ATOM      4  C   UNL     1       7.746   4.563  17.394  0.00  0.00    +0.000 C 
BRANCH   4   6
ATOM      5  O   UNL     1       8.258   5.510  19.564  0.00  0.00    +0.000 OA
ATOM      6  C   UNL     1       8.055   5.709  18.369  0.00  0.00    +0.000 C 
ATOM      7  N   UNL     1       8.045   6.967  17.809  0.00  0.00    +0.000 N 
ATOM      8  H   UNL     1       7.711   7.061  16.851  0.00  0.00    +0.000 HD
BRANCH   7   9
ATOM      9  C   UNL     1       8.264   8.159  18.611  0.00  0.00    +0.000 C 
BRANCH   9  10
ATOM     10  C   UNL     1       8.318   9.426  17.757  0.00  0.00    +0.000 C 
BRANCH  10  11
ATOM     11  C   UNL     1       8.946  10.586  18.489  0.00  0.00    +0.000 A 
ATOM     12  C   UNL     1       8.989  11.859  17.905  0.00  0.00    +0.000 A 
ATOM     13  C   UNL     1       9.588  12.926  18.578  0.00  0.00    +0.000 A 
ATOM     14  C   UNL     1      10.152  12.732  19.838  0.00  0.00    +0.000 A 
ATOM     15  C   UNL     1      10.115  11.469  20.428  0.00  0.00    +0.000 A 
ATOM     16  C   UNL     1       9.516  10.401  19.756  0.00  0.00    +0.000 A 
ENDBRANCH  10  11
ENDBRANCH   9  10
ENDBRANCH   7   9
ENDBRANCH   4   6
ENDBRANCH   3   4
ENDBRANCH   1   3
BRANCH   1  17
ATOM     17  C   UNL     1       4.851   5.830  16.309  0.00  0.00    +0.000 C 
BRANCH  17  18
ATOM     18  C   UNL     1       4.553   6.052  17.783  0.00  0.00    +0.000 C 
BRANCH  18  19
ATOM     19  N   UNL     1       3.816   4.978  18.426  0.00  0.00    +0.000 N 
ATOM     20  C   UNL     1       2.468   4.800  18.302  0.00  0.00    +0.000 C 
ATOM     21  O   UNL     1       1.682   5.598  17.817  0.00  0.00    +0.000 OA
ATOM     22  C   UNL     1       2.120   3.412  18.794  0.00  0.00    +0.000 C 
ATOM     23  C   UNL     1       0.795   3.345  19.548  0.00  0.00    +0.000 C 
ATOM     24  C   UNL     1       0.885   3.002  20.998  0.00  0.00    +0.000 C 
ATOM     25  C   UNL     1       2.002   2.597  21.607  0.00  0.00    +0.000 C 
ATOM     26  C   UNL     1       3.319   2.428  20.923  0.00  0.00    +0.000 C 
ATOM     27  C   UNL     1       3.399   2.933  19.486  0.00  0.00    +0.000 C 
ATOM     28  C   UNL     1       4.369   4.081  19.294  0.00  0.00    +0.000 C 
ATOM     29  O   UNL     1       5.480   4.158  19.790  0.00  0.00    +0.000 OA
ENDBRANCH  18  19
ENDBRANCH  17  18
ENDBRANCH   1  17
TORSDOF 9
ENDMDL
MODEL 7
REMARK VINA RESULT:      -7.8      5.357      7.594
REMARK  Name = 
REMARK  9 active torsions:
REMARK  status: ('A' for Active; 'I' for Inactive)
REMARK    1  A    between atoms: C_2  and  C_3
REMARK    2  A    between atoms: C_3  and  O_4
REMARK    3  A    between atoms: O_4  and  C_5
REMARK    4  A    between atoms: C_5  and  C_7
REMARK    5  A    between atoms: C_7  and  C_8
REMARK    6  A    between atoms: C_8  and  N_9
REMARK    7  A    between atoms: N_20  and  C_21
REMARK    8  A    between atoms: C_21  and  C_22
REMARK    9  A    between atoms: C_22  and  C_23
REMARK                            x       y       z     vdW  Elec       q    Type
REMARK                         _______ _______ _______ _____ _____    ______ ____
ROOT
ATOM      1  C   UNL     1       1.712   3.061  21.277  0.00  0.00    +0.000 C 
ATOM      2  O   UNL     1       1.710   2.333  22.264  0.00  0.00    +0.000 OA
ENDROOT
BRANCH   1   3
ATOM      3  O   UNL     1       2.076   4.369  21.286  0.00  0.00    +0.000 OA
BRANCH   3   4
ATOM      4  C   UNL     1       1.300   5.239  20.453  0.00  0.00    +0.000 C 
BRANCH   4   6
ATOM      5  O   UNL     1       2.680   7.067  19.664  0.00  0.00    +0.000 OA
ATOM      6  C   UNL     1       1.774   6.699  20.408  0.00  0.00    +0.000 C 
ATOM      7  N   UNL     1       1.137   7.545  21.289  0.00  0.00    +0.000 N 
ATOM      8  H   UNL     1       0.513   7.132  21.981  0.00  0.00    +0.000 HD
BRANCH   7   9
ATOM      9  C   UNL     1       1.511   8.944  21.406  0.00  0.00    +0.000 C 
BRANCH   9  10
ATOM     10  C   UNL     1       0.314   9.833  21.747  0.00  0.00    +0.000 C 
BRANCH  10  11
ATOM     11  C   UNL     1      -0.089  10.720  20.594  0.00  0.00    +0.000 A 
ATOM     12  C   UNL     1       0.146  12.100  20.640  0.00  0.00    +0.000 A 
ATOM     13  C   UNL     1      -0.246  12.920  19.580  0.00  0.00    +0.000 A 
ATOM     14  C   UNL     1      -0.879  12.370  18.466  0.00  0.00    +0.000 A 
ATOM     15  C   UNL     1      -1.118  10.998  18.411  0.00  0.00    +0.000 A 
ATOM     16  C   UNL     1      -0.726  10.176  19.470  0.00  0.00    +0.000 A 
ENDBRANCH  10  11
ENDBRANCH   9  10
ENDBRANCH   7   9
ENDBRANCH   4   6
ENDBRANCH   3   4
ENDBRANCH   1   3
BRANCH   1  17
ATOM     17  C   UNL     1       1.307   2.633  19.885  0.00  0.00    +0.000 C 
BRANCH  17  18
ATOM     18  C   UNL     1       2.517   2.034  19.188  0.00  0.00    +0.000 C 
BRANCH  18  19
ATOM     19  N   UNL     1       3.448   3.003  18.637  0.00  0.00    +0.000 N 
ATOM     20  C   UNL     1       3.272   3.629  17.436  0.00  0.00    +0.000 C 
ATOM     21  O   UNL     1       2.445   3.332  16.588  0.00  0.00    +0.000 OA
ATOM     22  C   UNL     1       4.221   4.805  17.364  0.00  0.00    +0.000 C 
ATOM     23  C   UNL     1       4.812   5.030  15.975  0.00  0.00    +0.000 C 
ATOM     24  C   UNL     1       6.284   4.818  15.849  0.00  0.00    +0.000 C 
ATOM     25  C   UNL     1       7.106   4.620  16.883  0.00  0.00    +0.000 C 
ATOM     26  C   UNL     1       6.669   4.584  18.310  0.00  0.00    +0.000 C 
ATOM     27  C   UNL     1       5.163   4.593  18.552  0.00  0.00    +0.000 C 
ATOM     28  C   UNL     1       4.641   3.333  19.211  0.00  0.00    +0.000 C 
ATOM     29  O   UNL     1       5.174   2.746  20.137  0.00  0.00    +0.000 OA
ENDBRANCH  18  19
ENDBRANCH  17  18
ENDBRANCH   1  17
TORSDOF 9
ENDMDL
MODEL 8
REMARK VINA RESULT:      -7.8      1.537      2.135
REMARK  Name = 
REMARK  9 active torsions:
REMARK  status: ('A' for Active; 'I' for Inactive)
REMARK    1  A    between atoms: C_2  and  C_3
REMARK    2  A    between atoms: C_3  and  O_4
REMARK    3  A    between atoms: O_4  and  C_5
REMARK    4  A    between atoms: C_5  and  C_7
REMARK    5  A    between atoms: C_7  and  C_8
REMARK    6  A    between atoms: C_8  and  N_9
REMARK    7  A    between atoms: N_20  and  C_21
REMARK    8  A    between atoms: C_21  and  C_22
REMARK    9  A    between atoms: C_22  and  C_23
REMARK                            x       y       z     vdW  Elec       q    Type
REMARK                         _______ _______ _______ _____ _____    ______ ____
ROOT
ATOM      1  C   UNL     1       7.193   6.590  17.435  0.00  0.00    +0.000 C 
ATOM      2  O   UNL     1       7.460   6.124  16.332  0.00  0.00    +0.000 OA
ENDROOT
BRANCH   1   3
ATOM      3  O   UNL     1       7.347   7.895  17.777  0.00  0.00    +0.000 OA
BRANCH   3   4
ATOM      4  C   UNL     1       8.513   8.204  18.551  0.00  0.00    +0.000 C 
BRANCH   4   6
ATOM      5  O   UNL     1       8.616  10.514  17.830  0.00  0.00    +0.000 OA
ATOM      6  C   UNL     1       8.801   9.701  18.732  0.00  0.00    +0.000 C 
ATOM      7  N   UNL     1       9.316  10.050  19.961  0.00  0.00    +0.000 N 
ATOM      8  H   UNL     1       9.590   9.300  20.595  0.00  0.00    +0.000 HD
BRANCH   7   9
ATOM      9  C   UNL     1       9.693  11.419  20.268  0.00  0.00    +0.000 C 
BRANCH   9  10
ATOM     10  C   UNL     1      11.172  11.686  19.987  0.00  0.00    +0.000 C 
BRANCH  10  11
ATOM     11  C   UNL     1      11.375  12.786  18.975  0.00  0.00    +0.000 A 
ATOM     12  C   UNL     1      11.481  12.489  17.610  0.00  0.00    +0.000 A 
ATOM     13  C   UNL     1      11.688  13.509  16.678  0.00  0.00    +0.000 A 
ATOM     14  C   UNL     1      11.795  14.833  17.100  0.00  0.00    +0.000 A 
ATOM     15  C   UNL     1      11.692  15.139  18.456  0.00  0.00    +0.000 A 
ATOM     16  C   UNL     1      11.485  14.121  19.390  0.00  0.00    +0.000 A 
ENDBRANCH  10  11
ENDBRANCH   9  10
ENDBRANCH   7   9
ENDBRANCH   4   6
ENDBRANCH   3   4
ENDBRANCH   1   3
BRANCH   1  17
ATOM     17  C   UNL     1       6.652   5.796  18.602  0.00  0.00    +0.000 C 
BRANCH  17  18
ATOM     18  C   UNL     1       6.220   4.427  18.102  0.00  0.00    +0.000 C 
BRANCH  18  19
ATOM     19  N   UNL     1       4.867   4.042  18.464  0.00  0.00    +0.000 N 
ATOM     20  C   UNL     1       3.748   4.688  18.022  0.00  0.00    +0.000 C 
ATOM     21  O   UNL     1       3.724   5.764  17.444  0.00  0.00    +0.000 OA
ATOM     22  C   UNL     1       2.547   3.812  18.298  0.00  0.00    +0.000 C 
ATOM     23  C   UNL     1       1.306   4.590  18.723  0.00  0.00    +0.000 C 
ATOM     24  C   UNL     1       0.834   4.356  20.120  0.00  0.00    +0.000 C 
ATOM     25  C   UNL     1       1.316   3.409  20.928  0.00  0.00    +0.000 C 
ATOM     26  C   UNL     1       2.396   2.450  20.548  0.00  0.00    +0.000 C 
ATOM     27  C   UNL     1       3.092   2.715  19.217  0.00  0.00    +0.000 C 
ATOM     28  C   UNL     1       4.563   3.050  19.352  0.00  0.00    +0.000 C 
ATOM     29  O   UNL     1       5.352   2.488  20.091  0.00  0.00    +0.000 OA
ENDBRANCH  18  19
ENDBRANCH  17  18
ENDBRANCH   1  17
TORSDOF 9
ENDMDL
MODEL 9
REMARK VINA RESULT:      -7.7      4.990      6.418
REMARK  Name = 
REMARK  9 active torsions:
REMARK  status: ('A' for Active; 'I' for Inactive)
REMARK    1  A    between atoms: C_2  and  C_3
REMARK    2  A    between atoms: C_3  and  O_4
REMARK    3  A    between atoms: O_4  and  C_5
REMARK    4  A    between atoms: C_5  and  C_7
REMARK    5  A    between atoms: C_7  and  C_8
REMARK    6  A    between atoms: C_8  and  N_9
REMARK    7  A    between atoms: N_20  and  C_21
REMARK    8  A    between atoms: C_21  and  C_22
REMARK    9  A    between atoms: C_22  and  C_23
REMARK                            x       y       z     vdW  Elec       q    Type
REMARK                         _______ _______ _______ _____ _____    ______ ____
ROOT
ATOM      1  C   UNL     1       5.268   5.907  16.119  0.00  0.00    +0.000 C 
ATOM      2  O   UNL     1       5.622   6.046  14.952  0.00  0.00    +0.000 OA
ENDROOT
BRANCH   1   3
ATOM      3  O   UNL     1       4.351   6.690  16.743  0.00  0.00    +0.000 OA
BRANCH   3   4
ATOM      4  C   UNL     1       4.292   6.565  18.170  0.00  0.00    +0.000 C 
BRANCH   4   6
ATOM      5  O   UNL     1       1.922   6.078  18.285  0.00  0.00    +0.000 OA
ATOM      6  C   UNL     1       2.886   6.659  18.779  0.00  0.00    +0.000 C 
ATOM      7  N   UNL     1       2.785   7.472  19.886  0.00  0.00    +0.000 N 
ATOM      8  H   UNL     1       3.592   8.043  20.135  0.00  0.00    +0.000 HD
BRANCH   7   9
ATOM      9  C   UNL     1       1.510   7.708  20.543  0.00  0.00    +0.000 C 
BRANCH   9  10
ATOM     10  C   UNL     1       0.771   8.909  19.950  0.00  0.00    +0.000 C 
BRANCH  10  11
ATOM     11  C   UNL     1       0.113   9.758  21.009  0.00  0.00    +0.000 A 
ATOM     12  C   UNL     1      -0.164  11.110  20.769  0.00  0.00    +0.000 A 
ATOM     13  C   UNL     1      -0.756  11.898  21.759  0.00  0.00    +0.000 A 
ATOM     14  C   UNL     1      -1.072  11.344  22.999  0.00  0.00    +0.000 A 
ATOM     15  C   UNL     1      -0.799  10.001  23.249  0.00  0.00    +0.000 A 
ATOM     16  C   UNL     1      -0.207   9.211  22.260  0.00  0.00    +0.000 A 
ENDBRANCH  10  11
ENDBRANCH   9  10
ENDBRANCH   7   9
ENDBRANCH   4   6
ENDBRANCH   3   4
ENDBRANCH   1   3
BRANCH   1  17
ATOM     17  C   UNL     1       5.792   4.848  17.061  0.00  0.00    +0.000 C 
BRANCH  17  18
ATOM     18  C   UNL     1       5.080   3.538  16.766  0.00  0.00    +0.000 C 
BRANCH  18  19
ATOM     19  N   UNL     1       4.110   3.129  17.767  0.00  0.00    +0.000 N 
ATOM     20  C   UNL     1       2.787   2.918  17.502  0.00  0.00    +0.000 C 
ATOM     21  O   UNL     1       2.206   3.222  16.472  0.00  0.00    +0.000 OA
ATOM     22  C   UNL     1       2.178   2.170  18.667  0.00  0.00    +0.000 C 
ATOM     23  C   UNL     1       0.754   2.607  18.997  0.00  0.00    +0.000 C 
ATOM     24  C   UNL     1       0.564   3.274  20.319  0.00  0.00    +0.000 C 
ATOM     25  C   UNL     1       1.503   3.349  21.264  0.00  0.00    +0.000 C 
ATOM     26  C   UNL     1       2.876   2.775  21.134  0.00  0.00    +0.000 C 
ATOM     27  C   UNL     1       3.253   2.241  19.755  0.00  0.00    +0.000 C 
ATOM     28  C   UNL     1       4.389   2.995  19.096  0.00  0.00    +0.000 C 
ATOM     29  O   UNL     1       5.407   3.369  19.653  0.00  0.00    +0.000 OA
ENDBRANCH  18  19
ENDBRANCH  17  18
ENDBRANCH   1  17
TORSDOF 9
ENDMDL
