MODEL 1
REMARK VINA RESULT:      -7.0      0.000      0.000
REMARK  Name = 
REMARK  12 active torsions:
REMARK  status: ('A' for Active; 'I' for Inactive)
REMARK    1  A    between atoms: C_1  and  C_2
REMARK    2  A    between atoms: C_2  and  N_3
REMARK    3  A    between atoms: N_3  and  C_4
REMARK    4  A    between atoms: N_3  and  S_6
REMARK    5  A    between atoms: C_4  and  C_5
REMARK    6  A    between atoms: S_6  and  C_9
REMARK    7  A    between atoms: C_12  and  O_13
REMARK    8  A    between atoms: O_13  and  C_14
REMARK    9  A    between atoms: C_15  and  N_16
REMARK   10  A    between atoms: N_16  and  S_17
REMARK   11  A    between atoms: S_17  and  C_20
REMARK   12  A    between atoms: C_20  and  C_21
REMARK                            x       y       z     vdW  Elec       q    Type
REMARK                         _______ _______ _______ _____ _____    ______ ____
ROOT
ATOM      1  C   UNL     1       3.883   5.128  18.367  0.00  0.00    +0.000 A 
ATOM      2  C   UNL     1       4.837   5.342  19.365  0.00  0.00    +0.000 A 
ATOM      3  C   UNL     1       6.107   5.827  19.032  0.00  0.00    +0.000 A 
ATOM      4  C   UNL     1       6.448   6.090  17.703  0.00  0.00    +0.000 A 
ATOM      5  C   UNL     1       5.493   5.844  16.696  0.00  0.00    +0.000 A 
ATOM      6  C   UNL     1       4.197   5.411  17.034  0.00  0.00    +0.000 A 
ENDROOT
BRANCH   1   7
ATOM      7  S   UNL     1       2.220   4.662  18.832  0.00  0.00    +0.000 S 
ATOM      8  O   UNL     1       1.431   4.676  17.616  0.00  0.00    +0.000 OA
ATOM      9  O   UNL     1       1.845   5.475  19.972  0.00  0.00    +0.000 OA
BRANCH   7  10
ATOM     10  N   UNL     1       2.313   3.029  19.391  0.00  0.00    +0.000 NA
BRANCH  10  12
ATOM     11  C   UNL     1       1.507   2.615  21.746  0.00  0.00    +0.000 C 
ATOM     12  C   UNL     1       1.171   2.604  20.258  0.00  0.00    +0.000 C 
ENDBRANCH  10  12
BRANCH  10  13
ATOM     13  C   UNL     1       2.660   2.049  18.304  0.00  0.00    +0.000 C 
ATOM     14  C   UNL     1       3.767   1.070  18.671  0.00  0.00    +0.000 C 
ENDBRANCH  10  13
ENDBRANCH   7  10
ENDBRANCH   1   7
BRANCH   4  15
ATOM     15  O   UNL     1       7.699   6.530  17.324  0.00  0.00    +0.000 OA
ATOM     16  C   UNL     1       8.029   7.866  17.708  0.00  0.00    +0.000 C 
ENDBRANCH   4  15
BRANCH   5  17
ATOM     17  N   UNL     1       5.808   6.051  15.303  0.00  0.00    +0.000 N 
ATOM     18  H   UNL     1       6.341   6.906  15.129  0.00  0.00    +0.000 HD
BRANCH  17  19
ATOM     19  S   UNL     1       6.591   4.791  14.471  0.00  0.00    +0.000 S 
ATOM     20  O   UNL     1       7.930   5.311  14.246  0.00  0.00    +0.000 OA
ATOM     21  O   UNL     1       6.373   3.558  15.187  0.00  0.00    +0.000 OA
BRANCH  19  22
ATOM     22  C   UNL     1       5.718   4.772  12.892  0.00  0.00    +0.000 C 
BRANCH  22  23
ATOM     23  C   UNL     1       6.086   3.512  12.142  0.00  0.00    +0.000 A 
ATOM     24  C   UNL     1       5.092   2.577  11.815  0.00  0.00    +0.000 A 
ATOM     25  C   UNL     1       5.416   1.391  11.154  0.00  0.00    +0.000 A 
ATOM     26  C   UNL     1       6.739   1.123  10.809  0.00  0.00    +0.000 A 
ATOM     27  C   UNL     1       7.735   2.047  11.120  0.00  0.00    +0.000 A 
ATOM     28  C   UNL     1       7.414   3.236  11.781  0.00  0.00    +0.000 A 
ENDBRANCH  22  23
ENDBRANCH  19  22
ENDBRANCH  17  19
ENDBRANCH   5  17
TORSDOF 9
ENDMDL
MODEL 2
REMARK VINA RESULT:      -6.6      0.564      1.405
REMARK  Name = 
REMARK  12 active torsions:
REMARK  status: ('A' for Active; 'I' for Inactive)
REMARK    1  A    between atoms: C_1  and  C_2
REMARK    2  A    between atoms: C_2  and  N_3
REMARK    3  A    between atoms: N_3  and  C_4
REMARK    4  A    between atoms: N_3  and  S_6
REMARK    5  A    between atoms: C_4  and  C_5
REMARK    6  A    between atoms: S_6  and  C_9
REMARK    7  A    between atoms: C_12  and  O_13
REMARK    8  A    between atoms: O_13  and  C_14
REMARK    9  A    between atoms: C_15  and  N_16
REMARK   10  A    between atoms: N_16  and  S_17
REMARK   11  A    between atoms: S_17  and  C_20
REMARK   12  A    between atoms: C_20  and  C_21
REMARK                            x       y       z     vdW  Elec       q    Type
REMARK                         _______ _______ _______ _____ _____    ______ ____
ROOT
ATOM      1  C   UNL     1       3.562   4.859  18.265  0.00  0.00    +0.000 A 
ATOM      2  C   UNL     1       4.418   5.027  19.356  0.00  0.00    +0.000 A 
ATOM      3  C   UNL     1       5.699   5.557  19.169  0.00  0.00    +0.000 A 
ATOM      4  C   UNL     1       6.150   5.912  17.896  0.00  0.00    +0.000 A 
ATOM      5  C   UNL     1       5.294   5.712  16.793  0.00  0.00    +0.000 A 
ATOM      6  C   UNL     1       3.984   5.234  16.986  0.00  0.00    +0.000 A 
ENDROOT
BRANCH   1   7
ATOM      7  S   UNL     1       1.876   4.331  18.550  0.00  0.00    +0.000 S 
ATOM      8  O   UNL     1       1.293   4.088  17.246  0.00  0.00    +0.000 OA
ATOM      9  O   UNL     1       1.275   5.277  19.470  0.00  0.00    +0.000 OA
BRANCH   7  10
ATOM     10  N   UNL     1       1.975   2.820  19.382  0.00  0.00    +0.000 NA
BRANCH  10  12
ATOM     11  C   UNL     1       3.597   1.325  18.157  0.00  0.00    +0.000 C 
ATOM     12  C   UNL     1       3.336   2.198  19.381  0.00  0.00    +0.000 C 
ENDBRANCH  10  12
BRANCH  10  13
ATOM     13  C   UNL     1       1.309   2.841  20.731  0.00  0.00    +0.000 C 
ATOM     14  C   UNL     1       2.226   2.472  21.890  0.00  0.00    +0.000 C 
ENDBRANCH  10  13
ENDBRANCH   7  10
ENDBRANCH   1   7
BRANCH   4  15
ATOM     15  O   UNL     1       7.418   6.400  17.657  0.00  0.00    +0.000 OA
ATOM     16  C   UNL     1       8.200   6.683  18.819  0.00  0.00    +0.000 C 
ENDBRANCH   4  15
BRANCH   5  17
ATOM     17  N   UNL     1       5.724   6.015  15.450  0.00  0.00    +0.000 N 
ATOM     18  H   UNL     1       6.295   6.861  15.387  0.00  0.00    +0.000 HD
BRANCH  17  19
ATOM     19  S   UNL     1       6.531   4.795  14.582  0.00  0.00    +0.000 S 
ATOM     20  O   UNL     1       7.821   5.391  14.275  0.00  0.00    +0.000 OA
ATOM     21  O   UNL     1       6.429   3.558  15.317  0.00  0.00    +0.000 OA
BRANCH  19  22
ATOM     22  C   UNL     1       5.571   4.709  13.057  0.00  0.00    +0.000 C 
BRANCH  22  23
ATOM     23  C   UNL     1       6.030   3.513  12.254  0.00  0.00    +0.000 A 
ATOM     24  C   UNL     1       5.111   2.514  11.898  0.00  0.00    +0.000 A 
ATOM     25  C   UNL     1       5.521   1.385  11.187  0.00  0.00    +0.000 A 
ATOM     26  C   UNL     1       6.857   1.240  10.820  0.00  0.00    +0.000 A 
ATOM     27  C   UNL     1       7.779   2.228  11.158  0.00  0.00    +0.000 A 
ATOM     28  C   UNL     1       7.371   3.360  11.870  0.00  0.00    +0.000 A 
ENDBRANCH  22  23
ENDBRANCH  19  22
ENDBRANCH  17  19
ENDBRANCH   5  17
TORSDOF 9
ENDMDL
MODEL 3
REMARK VINA RESULT:      -6.3      1.474      1.951
REMARK  Name = 
REMARK  12 active torsions:
REMARK  status: ('A' for Active; 'I' for Inactive)
REMARK    1  A    between atoms: C_1  and  C_2
REMARK    2  A    between atoms: C_2  and  N_3
REMARK    3  A    between atoms: N_3  and  C_4
REMARK    4  A    between atoms: N_3  and  S_6
REMARK    5  A    between atoms: C_4  and  C_5
REMARK    6  A    between atoms: S_6  and  C_9
REMARK    7  A    between atoms: C_12  and  O_13
REMARK    8  A    between atoms: O_13  and  C_14
REMARK    9  A    between atoms: C_15  and  N_16
REMARK   10  A    between atoms: N_16  and  S_17
REMARK   11  A    between atoms: S_17  and  C_20
REMARK   12  A    between atoms: C_20  and  C_21
REMARK                            x       y       z     vdW  Elec       q    Type
REMARK                         _______ _______ _______ _____ _____    ______ ____
ROOT
ATOM      1  C   UNL     1       4.967   4.351  18.505  0.00  0.00    +0.000 A 
ATOM      2  C   UNL     1       5.852   4.991  19.376  0.00  0.00    +0.000 A 
ATOM      3  C   UNL     1       6.736   5.962  18.891  0.00  0.00    +0.000 A 
ATOM      4  C   UNL     1       6.761   6.297  17.536  0.00  0.00    +0.000 A 
ATOM      5  C   UNL     1       5.887   5.627  16.655  0.00  0.00    +0.000 A 
ATOM      6  C   UNL     1       4.958   4.692  17.149  0.00  0.00    +0.000 A 
ENDROOT
BRANCH   1   7
ATOM      7  S   UNL     1       3.739   3.234  19.171  0.00  0.00    +0.000 S 
ATOM      8  O   UNL     1       4.008   3.123  20.591  0.00  0.00    +0.000 OA
ATOM      9  O   UNL     1       3.717   2.058  18.324  0.00  0.00    +0.000 OA
BRANCH   7  10
ATOM     10  N   UNL     1       2.212   4.019  18.975  0.00  0.00    +0.000 NA
BRANCH  10  12
ATOM     11  C   UNL     1       0.471   2.198  18.819  0.00  0.00    +0.000 C 
ATOM     12  C   UNL     1       1.069   3.330  19.650  0.00  0.00    +0.000 C 
ENDBRANCH  10  12
BRANCH  10  13
ATOM     13  C   UNL     1       2.272   5.502  19.223  0.00  0.00    +0.000 C 
ATOM     14  C   UNL     1       1.837   5.923  20.620  0.00  0.00    +0.000 C 
ENDBRANCH  10  13
ENDBRANCH   7  10
ENDBRANCH   1   7
BRANCH   4  15
ATOM     15  O   UNL     1       7.642   7.217  17.007  0.00  0.00    +0.000 OA
ATOM     16  C   UNL     1       7.848   8.396  17.787  0.00  0.00    +0.000 C 
ENDBRANCH   4  15
BRANCH   5  17
ATOM     17  N   UNL     1       5.905   5.897  15.238  0.00  0.00    +0.000 N 
ATOM     18  H   UNL     1       6.184   6.854  15.010  0.00  0.00    +0.000 HD
BRANCH  17  19
ATOM     19  S   UNL     1       6.809   4.856  14.243  0.00  0.00    +0.000 S 
ATOM     20  O   UNL     1       7.991   5.638  13.917  0.00  0.00    +0.000 OA
ATOM     21  O   UNL     1       6.912   3.571  14.889  0.00  0.00    +0.000 OA
BRANCH  19  22
ATOM     22  C   UNL     1       5.780   4.745  12.766  0.00  0.00    +0.000 C 
BRANCH  22  23
ATOM     23  C   UNL     1       6.085   3.448  12.051  0.00  0.00    +0.000 A 
ATOM     24  C   UNL     1       5.053   2.533  11.789  0.00  0.00    +0.000 A 
ATOM     25  C   UNL     1       5.319   1.315  11.162  0.00  0.00    +0.000 A 
ATOM     26  C   UNL     1       6.621   0.995  10.785  0.00  0.00    +0.000 A 
ATOM     27  C   UNL     1       7.654   1.897  11.030  0.00  0.00    +0.000 A 
ATOM     28  C   UNL     1       7.391   3.118  11.658  0.00  0.00    +0.000 A 
ENDBRANCH  22  23
ENDBRANCH  19  22
ENDBRANCH  17  19
ENDBRANCH   5  17
TORSDOF 9
ENDMDL
MODEL 4
REMARK VINA RESULT:      -6.3      2.308      3.351
REMARK  Name = 
REMARK  12 active torsions:
REMARK  status: ('A' for Active; 'I' for Inactive)
REMARK    1  A    between atoms: C_1  and  C_2
REMARK    2  A    between atoms: C_2  and  N_3
REMARK    3  A    between atoms: N_3  and  C_4
REMARK    4  A    between atoms: N_3  and  S_6
REMARK    5  A    between atoms: C_4  and  C_5
REMARK    6  A    between atoms: S_6  and  C_9
REMARK    7  A    between atoms: C_12  and  O_13
REMARK    8  A    between atoms: O_13  and  C_14
REMARK    9  A    between atoms: C_15  and  N_16
REMARK   10  A    between atoms: N_16  and  S_17
REMARK   11  A    between atoms: S_17  and  C_20
REMARK   12  A    between atoms: C_20  and  C_21
REMARK                            x       y       z     vdW  Elec       q    Type
REMARK                         _______ _______ _______ _____ _____    ______ ____
ROOT
ATOM      1  C   UNL     1       2.568   4.292  18.162  0.00  0.00    +0.000 A 
ATOM      2  C   UNL     1       1.752   5.254  18.763  0.00  0.00    +0.000 A 
ATOM      3  C   UNL     1       2.032   6.615  18.600  0.00  0.00    +0.000 A 
ATOM      4  C   UNL     1       3.133   7.036  17.851  0.00  0.00    +0.000 A 
ATOM      5  C   UNL     1       3.971   6.062  17.271  0.00  0.00    +0.000 A 
ATOM      6  C   UNL     1       3.659   4.694  17.385  0.00  0.00    +0.000 A 
ENDROOT
BRANCH   1   7
ATOM      7  S   UNL     1       2.099   2.568  18.252  0.00  0.00    +0.000 S 
ATOM      8  O   UNL     1       2.717   1.912  17.117  0.00  0.00    +0.000 OA
ATOM      9  O   UNL     1       0.664   2.519  18.449  0.00  0.00    +0.000 OA
BRANCH   7  10
ATOM     10  N   UNL     1       2.823   1.943  19.692  0.00  0.00    +0.000 NA
BRANCH  10  12
ATOM     11  C   UNL     1       5.106   1.607  20.713  0.00  0.00    +0.000 C 
ATOM     12  C   UNL     1       4.199   1.389  19.504  0.00  0.00    +0.000 C 
ENDBRANCH  10  12
BRANCH  10  13
ATOM     13  C   UNL     1       2.684   2.865  20.872  0.00  0.00    +0.000 C 
ATOM     14  C   UNL     1       1.408   2.664  21.678  0.00  0.00    +0.000 C 
ENDBRANCH  10  13
ENDBRANCH   7  10
ENDBRANCH   1   7
BRANCH   4  15
ATOM     15  O   UNL     1       3.471   8.364  17.696  0.00  0.00    +0.000 OA
ATOM     16  C   UNL     1       2.400   9.298  17.848  0.00  0.00    +0.000 C 
ENDBRANCH   4  15
BRANCH   5  17
ATOM     17  N   UNL     1       5.150   6.439  16.528  0.00  0.00    +0.000 N 
ATOM     18  H   UNL     1       5.123   7.401  16.185  0.00  0.00    +0.000 HD
BRANCH  17  19
ATOM     19  S   UNL     1       6.662   6.209  17.270  0.00  0.00    +0.000 S 
ATOM     20  O   UNL     1       7.515   7.190  16.619  0.00  0.00    +0.000 OA
ATOM     21  O   UNL     1       6.480   6.203  18.702  0.00  0.00    +0.000 OA
BRANCH  19  22
ATOM     22  C   UNL     1       7.134   4.569  16.683  0.00  0.00    +0.000 C 
BRANCH  22  23
ATOM     23  C   UNL     1       6.970   4.519  15.181  0.00  0.00    +0.000 A 
ATOM     24  C   UNL     1       5.958   3.732  14.613  0.00  0.00    +0.000 A 
ATOM     25  C   UNL     1       5.812   3.644  13.227  0.00  0.00    +0.000 A 
ATOM     26  C   UNL     1       6.676   4.345  12.390  0.00  0.00    +0.000 A 
ATOM     27  C   UNL     1       7.681   5.139  12.940  0.00  0.00    +0.000 A 
ATOM     28  C   UNL     1       7.829   5.229  14.327  0.00  0.00    +0.000 A 
ENDBRANCH  22  23
ENDBRANCH  19  22
ENDBRANCH  17  19
ENDBRANCH   5  17
TORSDOF 9
ENDMDL
MODEL 5
REMARK VINA RESULT:      -6.3      4.241      5.447
REMARK  Name = 
REMARK  12 active torsions:
REMARK  status: ('A' for Active; 'I' for Inactive)
REMARK    1  A    between atoms: C_1  and  C_2
REMARK    2  A    between atoms: C_2  and  N_3
REMARK    3  A    between atoms: N_3  and  C_4
REMARK    4  A    between atoms: N_3  and  S_6
REMARK    5  A    between atoms: C_4  and  C_5
REMARK    6  A    between atoms: S_6  and  C_9
REMARK    7  A    between atoms: C_12  and  O_13
REMARK    8  A    between atoms: O_13  and  C_14
REMARK    9  A    between atoms: C_15  and  N_16
REMARK   10  A    between atoms: N_16  and  S_17
REMARK   11  A    between atoms: S_17  and  C_20
REMARK   12  A    between atoms: C_20  and  C_21
REMARK                            x       y       z     vdW  Elec       q    Type
REMARK                         _______ _______ _______ _____ _____    ______ ____
ROOT
ATOM      1  C   UNL     1       1.906   8.322  18.731  0.00  0.00    +0.000 A 
ATOM      2  C   UNL     1       1.820   7.864  20.048  0.00  0.00    +0.000 A 
ATOM      3  C   UNL     1       2.438   6.664  20.416  0.00  0.00    +0.000 A 
ATOM      4  C   UNL     1       3.135   5.898  19.479  0.00  0.00    +0.000 A 
ATOM      5  C   UNL     1       3.193   6.348  18.144  0.00  0.00    +0.000 A 
ATOM      6  C   UNL     1       2.622   7.583  17.784  0.00  0.00    +0.000 A 
ENDROOT
BRANCH   1   7
ATOM      7  S   UNL     1       1.247   9.933  18.321  0.00  0.00    +0.000 S 
ATOM      8  O   UNL     1      -0.017   9.705  17.650  0.00  0.00    +0.000 OA
ATOM      9  O   UNL     1       2.306  10.684  17.676  0.00  0.00    +0.000 OA
BRANCH   7  10
ATOM     10  N   UNL     1       0.921  10.720  19.825  0.00  0.00    +0.000 NA
BRANCH  10  12
ATOM     11  C   UNL     1       2.088  12.816  20.608  0.00  0.00    +0.000 C 
ATOM     12  C   UNL     1       0.966  12.214  19.767  0.00  0.00    +0.000 C 
ENDBRANCH  10  12
BRANCH  10  13
ATOM     13  C   UNL     1      -0.286  10.167  20.534  0.00  0.00    +0.000 C 
ATOM     14  C   UNL     1      -0.205  10.232  22.053  0.00  0.00    +0.000 C 
ENDBRANCH  10  13
ENDBRANCH   7  10
ENDBRANCH   1   7
BRANCH   4  15
ATOM     15  O   UNL     1       3.725   4.690  19.787  0.00  0.00    +0.000 OA
ATOM     16  C   UNL     1       2.861   3.707  20.360  0.00  0.00    +0.000 C 
ENDBRANCH   4  15
BRANCH   5  17
ATOM     17  N   UNL     1       3.857   5.573  17.124  0.00  0.00    +0.000 N 
ATOM     18  H   UNL     1       3.294   5.445  16.280  0.00  0.00    +0.000 HD
BRANCH  17  19
ATOM     19  S   UNL     1       5.404   6.075  16.627  0.00  0.00    +0.000 S 
ATOM     20  O   UNL     1       5.149   6.790  15.387  0.00  0.00    +0.000 OA
ATOM     21  O   UNL     1       6.064   6.713  17.741  0.00  0.00    +0.000 OA
BRANCH  19  22
ATOM     22  C   UNL     1       6.206   4.510  16.225  0.00  0.00    +0.000 C 
BRANCH  22  23
ATOM     23  C   UNL     1       6.512   4.480  14.744  0.00  0.00    +0.000 A 
ATOM     24  C   UNL     1       5.745   3.677  13.887  0.00  0.00    +0.000 A 
ATOM     25  C   UNL     1       6.033   3.609  12.523  0.00  0.00    +0.000 A 
ATOM     26  C   UNL     1       7.092   4.345  11.996  0.00  0.00    +0.000 A 
ATOM     27  C   UNL     1       7.856   5.154  12.834  0.00  0.00    +0.000 A 
ATOM     28  C   UNL     1       7.569   5.225  14.201  0.00  0.00    +0.000 A 
ENDBRANCH  22  23
ENDBRANCH  19  22
ENDBRANCH  17  19
ENDBRANCH   5  17
TORSDOF 9
ENDMDL
MODEL 6
REMARK VINA RESULT:      -6.1      4.829      7.088
REMARK  Name = 
REMARK  12 active torsions:
REMARK  status: ('A' for Active; 'I' for Inactive)
REMARK    1  A    between atoms: C_1  and  C_2
REMARK    2  A    between atoms: C_2  and  N_3
REMARK    3  A    between atoms: N_3  and  C_4
REMARK    4  A    between atoms: N_3  and  S_6
REMARK    5  A    between atoms: C_4  and  C_5
REMARK    6  A    between atoms: S_6  and  C_9
REMARK    7  A    between atoms: C_12  and  O_13
REMARK    8  A    between atoms: O_13  and  C_14
REMARK    9  A    between atoms: C_15  and  N_16
REMARK   10  A    between atoms: N_16  and  S_17
REMARK   11  A    between atoms: S_17  and  C_20
REMARK   12  A    between atoms: C_20  and  C_21
REMARK                            x       y       z     vdW  Elec       q    Type
REMARK                         _______ _______ _______ _____ _____    ______ ____
ROOT
ATOM      1  C   UNL     1       1.305   8.992  20.038  0.00  0.00    +0.000 A 
ATOM      2  C   UNL     1       1.447   9.429  18.719  0.00  0.00    +0.000 A 
ATOM      3  C   UNL     1       2.161   8.657  17.796  0.00  0.00    +0.000 A 
ATOM      4  C   UNL     1       2.754   7.451  18.175  0.00  0.00    +0.000 A 
ATOM      5  C   UNL     1       2.634   7.028  19.515  0.00  0.00    +0.000 A 
ATOM      6  C   UNL     1       1.868   7.773  20.431  0.00  0.00    +0.000 A 
ENDROOT
BRANCH   1   7
ATOM      7  S   UNL     1       0.256   9.913  21.156  0.00  0.00    +0.000 S 
ATOM      8  O   UNL     1       1.060  10.216  22.323  0.00  0.00    +0.000 OA
ATOM      9  O   UNL     1      -0.991   9.184  21.281  0.00  0.00    +0.000 OA
BRANCH   7  10
ATOM     10  N   UNL     1      -0.113  11.401  20.359  0.00  0.00    +0.000 NA
BRANCH  10  12
ATOM     11  C   UNL     1      -2.218  12.781  20.166  0.00  0.00    +0.000 C 
ATOM     12  C   UNL     1      -1.500  11.482  19.806  0.00  0.00    +0.000 C 
ENDBRANCH  10  12
BRANCH  10  13
ATOM     13  C   UNL     1       0.310  12.614  21.142  0.00  0.00    +0.000 C 
ATOM     14  C   UNL     1       1.595  13.263  20.647  0.00  0.00    +0.000 C 
ENDBRANCH  10  13
ENDBRANCH   7  10
ENDBRANCH   1   7
BRANCH   4  15
ATOM     15  O   UNL     1       3.500   6.677  17.311  0.00  0.00    +0.000 OA
ATOM     16  C   UNL     1       4.572   7.349  16.647  0.00  0.00    +0.000 C 
ENDBRANCH   4  15
BRANCH   5  17
ATOM     17  N   UNL     1       3.268   5.816  19.974  0.00  0.00    +0.000 N 
ATOM     18  H   UNL     1       3.650   5.890  20.919  0.00  0.00    +0.000 HD
BRANCH  17  19
ATOM     19  S   UNL     1       2.367   4.375  19.905  0.00  0.00    +0.000 S 
ATOM     20  O   UNL     1       1.837   4.239  21.252  0.00  0.00    +0.000 OA
ATOM     21  O   UNL     1       1.497   4.427  18.755  0.00  0.00    +0.000 OA
BRANCH  19  22
ATOM     22  C   UNL     1       3.651   3.129  19.673  0.00  0.00    +0.000 C 
BRANCH  22  23
ATOM     23  C   UNL     1       4.609   3.603  18.604  0.00  0.00    +0.000 A 
ATOM     24  C   UNL     1       4.326   3.359  17.251  0.00  0.00    +0.000 A 
ATOM     25  C   UNL     1       5.214   3.758  16.251  0.00  0.00    +0.000 A 
ATOM     26  C   UNL     1       6.398   4.408  16.589  0.00  0.00    +0.000 A 
ATOM     27  C   UNL     1       6.689   4.666  17.927  0.00  0.00    +0.000 A 
ATOM     28  C   UNL     1       5.801   4.268  18.931  0.00  0.00    +0.000 A 
ENDBRANCH  22  23
ENDBRANCH  19  22
ENDBRANCH  17  19
ENDBRANCH   5  17
TORSDOF 9
ENDMDL
MODEL 7
REMARK VINA RESULT:      -6.1      4.385      6.980
REMARK  Name = 
REMARK  12 active torsions:
REMARK  status: ('A' for Active; 'I' for Inactive)
REMARK    1  A    between atoms: C_1  and  C_2
REMARK    2  A    between atoms: C_2  and  N_3
REMARK    3  A    between atoms: N_3  and  C_4
REMARK    4  A    between atoms: N_3  and  S_6
REMARK    5  A    between atoms: C_4  and  C_5
REMARK    6  A    between atoms: S_6  and  C_9
REMARK    7  A    between atoms: C_12  and  O_13
REMARK    8  A    between atoms: O_13  and  C_14
REMARK    9  A    between atoms: C_15  and  N_16
REMARK   10  A    between atoms: N_16  and  S_17
REMARK   11  A    between atoms: S_17  and  C_20
REMARK   12  A    between atoms: C_20  and  C_21
REMARK                            x       y       z     vdW  Elec       q    Type
REMARK                         _______ _______ _______ _____ _____    ______ ____
ROOT
ATOM      1  C   UNL     1       1.517   8.314  19.237  0.00  0.00    +0.000 A 
ATOM      2  C   UNL     1       0.762   8.003  20.371  0.00  0.00    +0.000 A 
ATOM      3  C   UNL     1       1.040   6.844  21.104  0.00  0.00    +0.000 A 
ATOM      4  C   UNL     1       2.060   5.974  20.713  0.00  0.00    +0.000 A 
ATOM      5  C   UNL     1       2.800   6.276  19.552  0.00  0.00    +0.000 A 
ATOM      6  C   UNL     1       2.561   7.470  18.845  0.00  0.00    +0.000 A 
ENDROOT
BRANCH   1   7
ATOM      7  S   UNL     1       1.250   9.877  18.411  0.00  0.00    +0.000 S 
ATOM      8  O   UNL     1      -0.047   9.791  17.770  0.00  0.00    +0.000 OA
ATOM      9  O   UNL     1       2.443  10.170  17.640  0.00  0.00    +0.000 OA
BRANCH   7  10
ATOM     10  N   UNL     1       1.154  11.073  19.655  0.00  0.00    +0.000 NA
BRANCH  10  12
ATOM     11  C   UNL     1       0.993  13.341  18.560  0.00  0.00    +0.000 C 
ATOM     12  C   UNL     1       1.858  12.355  19.340  0.00  0.00    +0.000 C 
ENDBRANCH  10  12
BRANCH  10  13
ATOM     13  C   UNL     1      -0.237  11.251  20.199  0.00  0.00    +0.000 C 
ATOM     14  C   UNL     1      -0.310  11.339  21.718  0.00  0.00    +0.000 C 
ENDBRANCH  10  13
ENDBRANCH   7  10
ENDBRANCH   1   7
BRANCH   4  15
ATOM     15  O   UNL     1       2.343   4.802  21.381  0.00  0.00    +0.000 OA
ATOM     16  C   UNL     1       1.460   3.709  21.116  0.00  0.00    +0.000 C 
ENDBRANCH   4  15
BRANCH   5  17
ATOM     17  N   UNL     1       3.832   5.389  19.073  0.00  0.00    +0.000 N 
ATOM     18  H   UNL     1       4.328   4.901  19.822  0.00  0.00    +0.000 HD
BRANCH  17  19
ATOM     19  S   UNL     1       3.402   4.225  17.911  0.00  0.00    +0.000 S 
ATOM     20  O   UNL     1       3.707   2.961  18.563  0.00  0.00    +0.000 OA
ATOM     21  O   UNL     1       2.075   4.521  17.428  0.00  0.00    +0.000 OA
BRANCH  19  22
ATOM     22  C   UNL     1       4.626   4.503  16.615  0.00  0.00    +0.000 C 
BRANCH  22  23
ATOM     23  C   UNL     1       5.755   5.337  17.177  0.00  0.00    +0.000 A 
ATOM     24  C   UNL     1       5.855   6.696  16.843  0.00  0.00    +0.000 A 
ATOM     25  C   UNL     1       6.909   7.475  17.322  0.00  0.00    +0.000 A 
ATOM     26  C   UNL     1       7.878   6.907  18.145  0.00  0.00    +0.000 A 
ATOM     27  C   UNL     1       7.787   5.560  18.493  0.00  0.00    +0.000 A 
ATOM     28  C   UNL     1       6.732   4.778  18.015  0.00  0.00    +0.000 A 
ENDBRANCH  22  23
ENDBRANCH  19  22
ENDBRANCH  17  19
ENDBRANCH   5  17
TORSDOF 9
ENDMDL
MODEL 8
REMARK VINA RESULT:      -6.1      4.807      7.087
REMARK  Name = 
REMARK  12 active torsions:
REMARK  status: ('A' for Active; 'I' for Inactive)
REMARK    1  A    between atoms: C_1  and  C_2
REMARK    2  A    between atoms: C_2  and  N_3
REMARK    3  A    between atoms: N_3  and  C_4
REMARK    4  A    between atoms: N_3  and  S_6
REMARK    5  A    between atoms: C_4  and  C_5
REMARK    6  A    between atoms: S_6  and  C_9
REMARK    7  A    between atoms: C_12  and  O_13
REMARK    8  A    between atoms: O_13  and  C_14
REMARK    9  A    between atoms: C_15  and  N_16
REMARK   10  A    between atoms: N_16  and  S_17
REMARK   11  A    between atoms: S_17  and  C_20
REMARK   12  A    between atoms: C_20  and  C_21
REMARK                            x       y       z     vdW  Elec       q    Type
REMARK                         _______ _______ _______ _____ _____    ______ ____
ROOT
ATOM      1  C   UNL     1       1.296   8.903  20.204  0.00  0.00    +0.000 A 
ATOM      2  C   UNL     1       1.369   9.361  18.887  0.00  0.00    +0.000 A 
ATOM      3  C   UNL     1       2.051   8.615  17.919  0.00  0.00    +0.000 A 
ATOM      4  C   UNL     1       2.680   7.413  18.252  0.00  0.00    +0.000 A 
ATOM      5  C   UNL     1       2.629   6.969  19.589  0.00  0.00    +0.000 A 
ATOM      6  C   UNL     1       1.896   7.688  20.551  0.00  0.00    +0.000 A 
ENDROOT
BRANCH   1   7
ATOM      7  S   UNL     1       0.286   9.790  21.384  0.00  0.00    +0.000 S 
ATOM      8  O   UNL     1       1.128  10.055  22.533  0.00  0.00    +0.000 OA
ATOM      9  O   UNL     1      -0.959   9.060  21.525  0.00  0.00    +0.000 OA
BRANCH   7  10
ATOM     10  N   UNL     1      -0.104  11.304  20.646  0.00  0.00    +0.000 NA
BRANCH  10  12
ATOM     11  C   UNL     1      -1.531  12.459  22.378  0.00  0.00    +0.000 C 
ATOM     12  C   UNL     1      -1.461  11.830  20.989  0.00  0.00    +0.000 C 
ENDBRANCH  10  12
BRANCH  10  13
ATOM     13  C   UNL     1       0.999  12.321  20.762  0.00  0.00    +0.000 C 
ATOM     14  C   UNL     1       1.231  13.140  19.500  0.00  0.00    +0.000 C 
ENDBRANCH  10  13
ENDBRANCH   7  10
ENDBRANCH   1   7
BRANCH   4  15
ATOM     15  O   UNL     1       3.396   6.664  17.342  0.00  0.00    +0.000 OA
ATOM     16  C   UNL     1       4.445   7.356  16.660  0.00  0.00    +0.000 C 
ENDBRANCH   4  15
BRANCH   5  17
ATOM     17  N   UNL     1       3.303   5.760  20.000  0.00  0.00    +0.000 N 
ATOM     18  H   UNL     1       3.752   5.836  20.914  0.00  0.00    +0.000 HD
BRANCH  17  19
ATOM     19  S   UNL     1       2.409   4.314  19.995  0.00  0.00    +0.000 S 
ATOM     20  O   UNL     1       1.930   4.203  21.363  0.00  0.00    +0.000 OA
ATOM     21  O   UNL     1       1.496   4.337  18.878  0.00  0.00    +0.000 OA
BRANCH  19  22
ATOM     22  C   UNL     1       3.691   3.070  19.741  0.00  0.00    +0.000 C 
BRANCH  22  23
ATOM     23  C   UNL     1       4.606   3.527  18.627  0.00  0.00    +0.000 A 
ATOM     24  C   UNL     1       5.790   4.216  18.932  0.00  0.00    +0.000 A 
ATOM     25  C   UNL     1       6.630   4.677  17.918  0.00  0.00    +0.000 A 
ATOM     26  C   UNL     1       6.300   4.454  16.583  0.00  0.00    +0.000 A 
ATOM     27  C   UNL     1       5.133   3.762  16.266  0.00  0.00    +0.000 A 
ATOM     28  C   UNL     1       4.289   3.299  17.280  0.00  0.00    +0.000 A 
ENDBRANCH  22  23
ENDBRANCH  19  22
ENDBRANCH  17  19
ENDBRANCH   5  17
TORSDOF 9
ENDMDL
MODEL 9
REMARK VINA RESULT:      -6.1      1.249      1.997
REMARK  Name = 
REMARK  12 active torsions:
REMARK  status: ('A' for Active; 'I' for Inactive)
REMARK    1  A    between atoms: C_1  and  C_2
REMARK    2  A    between atoms: C_2  and  N_3
REMARK    3  A    between atoms: N_3  and  C_4
REMARK    4  A    between atoms: N_3  and  S_6
REMARK    5  A    between atoms: C_4  and  C_5
REMARK    6  A    between atoms: S_6  and  C_9
REMARK    7  A    between atoms: C_12  and  O_13
REMARK    8  A    between atoms: O_13  and  C_14
REMARK    9  A    between atoms: C_15  and  N_16
REMARK   10  A    between atoms: N_16  and  S_17
REMARK   11  A    between atoms: S_17  and  C_20
REMARK   12  A    between atoms: C_20  and  C_21
REMARK                            x       y       z     vdW  Elec       q    Type
REMARK                         _______ _______ _______ _____ _____    ______ ____
ROOT
ATOM      1  C   UNL     1       3.656   4.004  18.249  0.00  0.00    +0.000 A 
ATOM      2  C   UNL     1       4.505   4.144  19.350  0.00  0.00    +0.000 A 
ATOM      3  C   UNL     1       5.710   4.845  19.223  0.00  0.00    +0.000 A 
ATOM      4  C   UNL     1       6.091   5.402  18.001  0.00  0.00    +0.000 A 
ATOM      5  C   UNL     1       5.245   5.233  16.885  0.00  0.00    +0.000 A 
ATOM      6  C   UNL     1       4.007   4.578  17.024  0.00  0.00    +0.000 A 
ENDROOT
BRANCH   1   7
ATOM      7  S   UNL     1       2.052   3.244  18.474  0.00  0.00    +0.000 S 
ATOM      8  O   UNL     1       2.289   1.828  18.671  0.00  0.00    +0.000 OA
ATOM      9  O   UNL     1       1.196   3.714  17.403  0.00  0.00    +0.000 OA
BRANCH   7  10
ATOM     10  N   UNL     1       1.412   3.890  19.944  0.00  0.00    +0.000 NA
BRANCH  10  12
ATOM     11  C   UNL     1       1.504   2.417  21.991  0.00  0.00    +0.000 C 
ATOM     12  C   UNL     1       2.178   3.515  21.172  0.00  0.00    +0.000 C 
ENDBRANCH  10  12
BRANCH  10  13
ATOM     13  C   UNL     1       1.074   5.353  19.851  0.00  0.00    +0.000 C 
ATOM     14  C   UNL     1       2.030   6.267  20.605  0.00  0.00    +0.000 C 
ENDBRANCH  10  13
ENDBRANCH   7  10
ENDBRANCH   1   7
BRANCH   4  15
ATOM     15  O   UNL     1       7.286   6.066  17.819  0.00  0.00    +0.000 OA
ATOM     16  C   UNL     1       7.192   7.486  17.691  0.00  0.00    +0.000 C 
ENDBRANCH   4  15
BRANCH   5  17
ATOM     17  N   UNL     1       5.612   5.744  15.587  0.00  0.00    +0.000 N 
ATOM     18  H   UNL     1       6.056   6.664  15.623  0.00  0.00    +0.000 HD
BRANCH  17  19
ATOM     19  S   UNL     1       6.572   4.759  14.588  0.00  0.00    +0.000 S 
ATOM     20  O   UNL     1       7.748   5.575  14.332  0.00  0.00    +0.000 OA
ATOM     21  O   UNL     1       6.680   3.453  15.192  0.00  0.00    +0.000 OA
BRANCH  19  22
ATOM     22  C   UNL     1       5.597   4.679  13.073  0.00  0.00    +0.000 C 
BRANCH  22  23
ATOM     23  C   UNL     1       6.023   3.466  12.277  0.00  0.00    +0.000 A 
ATOM     24  C   UNL     1       7.343   3.361  11.813  0.00  0.00    +0.000 A 
ATOM     25  C   UNL     1       7.747   2.266  11.048  0.00  0.00    +0.000 A 
ATOM     26  C   UNL     1       6.837   1.259  10.736  0.00  0.00    +0.000 A 
ATOM     27  C   UNL     1       5.525   1.345  11.197  0.00  0.00    +0.000 A 
ATOM     28  C   UNL     1       5.117   2.440  11.965  0.00  0.00    +0.000 A 
ENDBRANCH  22  23
ENDBRANCH  19  22
ENDBRANCH  17  19
ENDBRANCH   5  17
TORSDOF 9
ENDMDL
