MODEL 1
REMARK VINA RESULT:      -7.0      0.000      0.000
REMARK  Name = 
REMARK  17 active torsions:
REMARK  status: ('A' for Active; 'I' for Inactive)
REMARK    1  A    between atoms: C_1  and  C_2
REMARK    2  A    between atoms: C_2  and  C_3
REMARK    3  A    between atoms: C_2  and  C_34
REMARK    4  A    between atoms: C_3  and  C_4
REMARK    5  A    between atoms: C_7  and  O_8
REMARK    6  A    between atoms: O_8  and  C_9
REMARK    7  A    between atoms: C_9  and  C_10
REMARK    8  A    between atoms: C_10  and  C_11
REMARK    9  A    between atoms: C_11  and  O_12
REMARK   10  A    between atoms: O_12  and  C_13
REMARK   11  A    between atoms: C_16  and  C_17
REMARK   12  A    between atoms: C_17  and  C_18
REMARK   13  A    between atoms: N_20  and  C_21
REMARK   14  A    between atoms: N_20  and  C_22
REMARK   15  A    between atoms: C_22  and  C_23
REMARK   16  A    between atoms: C_23  and  C_24
REMARK   17  A    between atoms: C_34  and  O_36
REMARK                            x       y       z     vdW  Elec       q    Type
REMARK                         _______ _______ _______ _____ _____    ______ ____
ROOT
ATOM      1  C   UNL     1      -3.790  11.036  17.658  0.00  0.00    +0.000 A 
ATOM      2  C   UNL     1      -3.452  11.857  18.741  0.00  0.00    +0.000 A 
ATOM      3  C   UNL     1      -2.179  11.804  19.306  0.00  0.00    +0.000 A 
ATOM      4  C   UNL     1      -1.216  10.927  18.804  0.00  0.00    +0.000 A 
ATOM      5  C   UNL     1      -1.552  10.101  17.721  0.00  0.00    +0.000 A 
ATOM      6  C   UNL     1      -2.829  10.156  17.155  0.00  0.00    +0.000 A 
ENDROOT
BRANCH   1   7
ATOM      7  O   UNL     1      -5.015  11.023  17.030  0.00  0.00    +0.000 OA
BRANCH   7   8
ATOM      8  C   UNL     1      -5.734  12.249  17.125  0.00  0.00    +0.000 C 
BRANCH   8   9
ATOM      9  C   UNL     1      -7.007  12.092  17.940  0.00  0.00    +0.000 C 
BRANCH   9  10
ATOM     10  C   UNL     1      -7.488  13.479  18.359  0.00  0.00    +0.000 C 
BRANCH  10  11
ATOM     11  O   UNL     1      -7.723  13.493  19.764  0.00  0.00    +0.000 OA
BRANCH  11  15
ATOM     12  C   UNL     1      -4.275  13.766  22.092  0.00  0.00    +0.000 A 
ATOM     13  C   UNL     1      -4.538  14.655  21.042  0.00  0.00    +0.000 A 
ATOM     14  C   UNL     1      -5.701  14.525  20.283  0.00  0.00    +0.000 A 
ATOM     15  C   UNL     1      -6.598  13.490  20.542  0.00  0.00    +0.000 A 
ATOM     16  C   UNL     1      -6.333  12.590  21.576  0.00  0.00    +0.000 A 
ATOM     17  C   UNL     1      -5.177  12.729  22.348  0.00  0.00    +0.000 A 
BRANCH  12  18
ATOM     18  C   UNL     1      -3.073  13.970  22.976  0.00  0.00    +0.000 C 
BRANCH  18  20
ATOM     19  C   UNL     1      -0.941  12.588  22.614  0.00  0.00    +0.000 C 
ATOM     20  C   UNL     1      -1.752  13.818  22.208  0.00  0.00    +0.000 C 
BRANCH  20  21
ATOM     21  C   UNL     1      -0.909  15.049  22.451  0.00  0.00    +0.000 C 
ATOM     22  O   UNL     1      -1.313  16.199  22.379  0.00  0.00    +0.000 OA
BRANCH  21  23
ATOM     23  O   UNL     1       0.364  14.751  22.790  0.00  0.00    +0.000 OA
ATOM     24  H   UNL     1       0.785  14.099  22.200  0.00  0.00    +0.000 HD
ENDBRANCH  21  23
ENDBRANCH  20  21
ENDBRANCH  18  20
ENDBRANCH  12  18
ENDBRANCH  11  15
ENDBRANCH  10  11
ENDBRANCH   9  10
ENDBRANCH   8   9
ENDBRANCH   7   8
ENDBRANCH   1   7
BRANCH   4  25
ATOM     25  C   UNL     1       0.177  10.922  19.397  0.00  0.00    +0.000 C 
BRANCH  25  26
ATOM     26  C   UNL     1       0.625   9.589  19.985  0.00  0.00    +0.000 C 
ATOM     27  O   UNL     1       0.164   9.172  21.049  0.00  0.00    +0.000 OA
ATOM     28  N   UNL     1       1.636   8.895  19.310  0.00  0.00    +0.000 N 
ATOM     29  C   UNL     1       2.068   9.181  17.946  0.00  0.00    +0.000 C 
BRANCH  28  30
ATOM     30  C   UNL     1       2.080   7.635  19.924  0.00  0.00    +0.000 C 
BRANCH  30  31
ATOM     31  C   UNL     1       2.677   6.606  18.955  0.00  0.00    +0.000 C 
BRANCH  31  32
ATOM     32  C   UNL     1       2.085   5.238  19.174  0.00  0.00    +0.000 A 
ATOM     33  C   UNL     1       1.868   4.370  18.097  0.00  0.00    +0.000 A 
ATOM     34  C   UNL     1       1.273   3.126  18.305  0.00  0.00    +0.000 A 
ATOM     35  C   UNL     1       0.889   2.741  19.589  0.00  0.00    +0.000 A 
ATOM     36  C   UNL     1       1.105   3.597  20.667  0.00  0.00    +0.000 A 
ATOM     37  C   UNL     1       1.700   4.841  20.461  0.00  0.00    +0.000 A 
ENDBRANCH  31  32
ENDBRANCH  30  31
ENDBRANCH  28  30
ENDBRANCH  25  26
ENDBRANCH   4  25
TORSDOF 15
ENDMDL
MODEL 2
REMARK VINA RESULT:      -6.5      3.510     10.439
REMARK  Name = 
REMARK  17 active torsions:
REMARK  status: ('A' for Active; 'I' for Inactive)
REMARK    1  A    between atoms: C_1  and  C_2
REMARK    2  A    between atoms: C_2  and  C_3
REMARK    3  A    between atoms: C_2  and  C_34
REMARK    4  A    between atoms: C_3  and  C_4
REMARK    5  A    between atoms: C_7  and  O_8
REMARK    6  A    between atoms: O_8  and  C_9
REMARK    7  A    between atoms: C_9  and  C_10
REMARK    8  A    between atoms: C_10  and  C_11
REMARK    9  A    between atoms: C_11  and  O_12
REMARK   10  A    between atoms: O_12  and  C_13
REMARK   11  A    between atoms: C_16  and  C_17
REMARK   12  A    between atoms: C_17  and  C_18
REMARK   13  A    between atoms: N_20  and  C_21
REMARK   14  A    between atoms: N_20  and  C_22
REMARK   15  A    between atoms: C_22  and  C_23
REMARK   16  A    between atoms: C_23  and  C_24
REMARK   17  A    between atoms: C_34  and  O_36
REMARK                            x       y       z     vdW  Elec       q    Type
REMARK                         _______ _______ _______ _____ _____    ______ ____
ROOT
ATOM      1  C   UNL     1       1.680   8.162  19.965  0.00  0.00    +0.000 A 
ATOM      2  C   UNL     1       1.616   8.983  18.831  0.00  0.00    +0.000 A 
ATOM      3  C   UNL     1       1.202  10.310  18.934  0.00  0.00    +0.000 A 
ATOM      4  C   UNL     1       0.839  10.846  20.172  0.00  0.00    +0.000 A 
ATOM      5  C   UNL     1       0.900  10.026  21.308  0.00  0.00    +0.000 A 
ATOM      6  C   UNL     1       1.316   8.695  21.202  0.00  0.00    +0.000 A 
ENDROOT
BRANCH   1   7
ATOM      7  O   UNL     1       2.083   6.846  19.963  0.00  0.00    +0.000 OA
BRANCH   7   8
ATOM      8  C   UNL     1       1.580   6.078  21.051  0.00  0.00    +0.000 C 
BRANCH   8   9
ATOM      9  C   UNL     1       1.838   4.592  20.859  0.00  0.00    +0.000 C 
BRANCH   9  10
ATOM     10  C   UNL     1       0.640   3.981  20.138  0.00  0.00    +0.000 C 
BRANCH  10  11
ATOM     11  O   UNL     1       1.079   2.894  19.330  0.00  0.00    +0.000 OA
BRANCH  11  15
ATOM     12  C   UNL     1       4.456   3.401  16.937  0.00  0.00    +0.000 A 
ATOM     13  C   UNL     1       4.277   2.271  17.745  0.00  0.00    +0.000 A 
ATOM     14  C   UNL     1       3.135   2.143  18.535  0.00  0.00    +0.000 A 
ATOM     15  C   UNL     1       2.175   3.153  18.553  0.00  0.00    +0.000 A 
ATOM     16  C   UNL     1       2.356   4.291  17.765  0.00  0.00    +0.000 A 
ATOM     17  C   UNL     1       3.491   4.413  16.959  0.00  0.00    +0.000 A 
BRANCH  12  18
ATOM     18  C   UNL     1       5.637   3.490  16.006  0.00  0.00    +0.000 C 
BRANCH  18  20
ATOM     19  C   UNL     1       6.954   5.196  14.614  0.00  0.00    +0.000 C 
ATOM     20  C   UNL     1       6.199   4.916  15.913  0.00  0.00    +0.000 C 
BRANCH  20  21
ATOM     21  C   UNL     1       7.143   5.139  17.072  0.00  0.00    +0.000 C 
ATOM     22  O   UNL     1       7.111   6.100  17.825  0.00  0.00    +0.000 OA
BRANCH  21  23
ATOM     23  O   UNL     1       8.035   4.136  17.219  0.00  0.00    +0.000 OA
ATOM     24  H   UNL     1       8.607   4.229  18.004  0.00  0.00    +0.000 HD
ENDBRANCH  21  23
ENDBRANCH  20  21
ENDBRANCH  18  20
ENDBRANCH  12  18
ENDBRANCH  11  15
ENDBRANCH  10  11
ENDBRANCH   9  10
ENDBRANCH   8   9
ENDBRANCH   7   8
ENDBRANCH   1   7
BRANCH   4  25
ATOM     25  C   UNL     1       0.444  12.304  20.272  0.00  0.00    +0.000 C 
BRANCH  25  26
ATOM     26  C   UNL     1      -0.861  12.670  19.574  0.00  0.00    +0.000 C 
ATOM     27  O   UNL     1      -0.876  13.045  18.400  0.00  0.00    +0.000 OA
ATOM     28  N   UNL     1      -2.031  12.635  20.341  0.00  0.00    +0.000 N 
ATOM     29  C   UNL     1      -2.151  11.989  21.643  0.00  0.00    +0.000 C 
BRANCH  28  30
ATOM     30  C   UNL     1      -3.269  13.036  19.654  0.00  0.00    +0.000 C 
BRANCH  30  31
ATOM     31  C   UNL     1      -4.196  11.884  19.246  0.00  0.00    +0.000 C 
BRANCH  31  32
ATOM     32  C   UNL     1      -3.711  11.208  17.989  0.00  0.00    +0.000 A 
ATOM     33  C   UNL     1      -2.693  10.248  18.039  0.00  0.00    +0.000 A 
ATOM     34  C   UNL     1      -2.217   9.666  16.864  0.00  0.00    +0.000 A 
ATOM     35  C   UNL     1      -2.752  10.041  15.632  0.00  0.00    +0.000 A 
ATOM     36  C   UNL     1      -3.768  10.993  15.573  0.00  0.00    +0.000 A 
ATOM     37  C   UNL     1      -4.245  11.576  16.747  0.00  0.00    +0.000 A 
ENDBRANCH  31  32
ENDBRANCH  30  31
ENDBRANCH  28  30
ENDBRANCH  25  26
ENDBRANCH   4  25
TORSDOF 15
ENDMDL
MODEL 3
REMARK VINA RESULT:      -6.3      4.447     11.480
REMARK  Name = 
REMARK  17 active torsions:
REMARK  status: ('A' for Active; 'I' for Inactive)
REMARK    1  A    between atoms: C_1  and  C_2
REMARK    2  A    between atoms: C_2  and  C_3
REMARK    3  A    between atoms: C_2  and  C_34
REMARK    4  A    between atoms: C_3  and  C_4
REMARK    5  A    between atoms: C_7  and  O_8
REMARK    6  A    between atoms: O_8  and  C_9
REMARK    7  A    between atoms: C_9  and  C_10
REMARK    8  A    between atoms: C_10  and  C_11
REMARK    9  A    between atoms: C_11  and  O_12
REMARK   10  A    between atoms: O_12  and  C_13
REMARK   11  A    between atoms: C_16  and  C_17
REMARK   12  A    between atoms: C_17  and  C_18
REMARK   13  A    between atoms: N_20  and  C_21
REMARK   14  A    between atoms: N_20  and  C_22
REMARK   15  A    between atoms: C_22  and  C_23
REMARK   16  A    between atoms: C_23  and  C_24
REMARK   17  A    between atoms: C_34  and  O_36
REMARK                            x       y       z     vdW  Elec       q    Type
REMARK                         _______ _______ _______ _____ _____    ______ ____
ROOT
ATOM      1  C   UNL     1       1.709   7.775  20.218  0.00  0.00    +0.000 A 
ATOM      2  C   UNL     1       1.297   8.304  21.448  0.00  0.00    +0.000 A 
ATOM      3  C   UNL     1       0.751   9.583  21.527  0.00  0.00    +0.000 A 
ATOM      4  C   UNL     1       0.607  10.366  20.379  0.00  0.00    +0.000 A 
ATOM      5  C   UNL     1       1.021   9.840  19.147  0.00  0.00    +0.000 A 
ATOM      6  C   UNL     1       1.568   8.556  19.070  0.00  0.00    +0.000 A 
ENDROOT
BRANCH   1   7
ATOM      7  O   UNL     1       2.251   6.522  20.041  0.00  0.00    +0.000 OA
BRANCH   7   8
ATOM      8  C   UNL     1       1.581   5.488  20.755  0.00  0.00    +0.000 C 
BRANCH   8   9
ATOM      9  C   UNL     1       2.550   4.430  21.256  0.00  0.00    +0.000 C 
BRANCH   9  10
ATOM     10  C   UNL     1       1.755   3.184  21.634  0.00  0.00    +0.000 C 
BRANCH  10  11
ATOM     11  O   UNL     1       1.860   2.221  20.590  0.00  0.00    +0.000 OA
BRANCH  11  15
ATOM     12  C   UNL     1       3.902   3.519  17.194  0.00  0.00    +0.000 A 
ATOM     13  C   UNL     1       2.539   3.199  17.167  0.00  0.00    +0.000 A 
ATOM     14  C   UNL     1       1.895   2.763  18.325  0.00  0.00    +0.000 A 
ATOM     15  C   UNL     1       2.608   2.611  19.513  0.00  0.00    +0.000 A 
ATOM     16  C   UNL     1       3.971   2.910  19.542  0.00  0.00    +0.000 A 
ATOM     17  C   UNL     1       4.614   3.364  18.387  0.00  0.00    +0.000 A 
BRANCH  12  18
ATOM     18  C   UNL     1       4.572   4.089  15.971  0.00  0.00    +0.000 C 
BRANCH  18  20
ATOM     19  C   UNL     1       5.764   6.255  16.656  0.00  0.00    +0.000 C 
ATOM     20  C   UNL     1       5.905   4.775  16.303  0.00  0.00    +0.000 C 
BRANCH  20  21
ATOM     21  C   UNL     1       6.821   4.653  15.107  0.00  0.00    +0.000 C 
ATOM     22  O   UNL     1       7.789   5.364  14.892  0.00  0.00    +0.000 OA
BRANCH  21  23
ATOM     23  O   UNL     1       6.474   3.638  14.286  0.00  0.00    +0.000 OA
ATOM     24  H   UNL     1       6.371   3.904  13.354  0.00  0.00    +0.000 HD
ENDBRANCH  21  23
ENDBRANCH  20  21
ENDBRANCH  18  20
ENDBRANCH  12  18
ENDBRANCH  11  15
ENDBRANCH  10  11
ENDBRANCH   9  10
ENDBRANCH   8   9
ENDBRANCH   7   8
ENDBRANCH   1   7
BRANCH   4  25
ATOM     25  C   UNL     1      -0.037  11.732  20.477  0.00  0.00    +0.000 C 
BRANCH  25  26
ATOM     26  C   UNL     1       0.367  12.718  19.387  0.00  0.00    +0.000 C 
ATOM     27  O   UNL     1      -0.185  12.714  18.284  0.00  0.00    +0.000 OA
ATOM     28  N   UNL     1       1.438  13.576  19.660  0.00  0.00    +0.000 N 
ATOM     29  C   UNL     1       1.988  13.817  20.990  0.00  0.00    +0.000 C 
BRANCH  28  30
ATOM     30  C   UNL     1       1.835  14.485  18.575  0.00  0.00    +0.000 C 
BRANCH  30  31
ATOM     31  C   UNL     1       2.043  15.948  18.986  0.00  0.00    +0.000 C 
BRANCH  31  32
ATOM     32  C   UNL     1       1.084  16.862  18.268  0.00  0.00    +0.000 A 
ATOM     33  C   UNL     1       1.510  17.637  17.182  0.00  0.00    +0.000 A 
ATOM     34  C   UNL     1       0.626  18.517  16.557  0.00  0.00    +0.000 A 
ATOM     35  C   UNL     1      -0.687  18.631  17.013  0.00  0.00    +0.000 A 
ATOM     36  C   UNL     1      -1.120  17.860  18.090  0.00  0.00    +0.000 A 
ATOM     37  C   UNL     1      -0.238  16.980  18.716  0.00  0.00    +0.000 A 
ENDBRANCH  31  32
ENDBRANCH  30  31
ENDBRANCH  28  30
ENDBRANCH  25  26
ENDBRANCH   4  25
TORSDOF 15
ENDMDL
MODEL 4
REMARK VINA RESULT:      -6.2      4.795     11.193
REMARK  Name = 
REMARK  17 active torsions:
REMARK  status: ('A' for Active; 'I' for Inactive)
REMARK    1  A    between atoms: C_1  and  C_2
REMARK    2  A    between atoms: C_2  and  C_3
REMARK    3  A    between atoms: C_2  and  C_34
REMARK    4  A    between atoms: C_3  and  C_4
REMARK    5  A    between atoms: C_7  and  O_8
REMARK    6  A    between atoms: O_8  and  C_9
REMARK    7  A    between atoms: C_9  and  C_10
REMARK    8  A    between atoms: C_10  and  C_11
REMARK    9  A    between atoms: C_11  and  O_12
REMARK   10  A    between atoms: O_12  and  C_13
REMARK   11  A    between atoms: C_16  and  C_17
REMARK   12  A    between atoms: C_17  and  C_18
REMARK   13  A    between atoms: N_20  and  C_21
REMARK   14  A    between atoms: N_20  and  C_22
REMARK   15  A    between atoms: C_22  and  C_23
REMARK   16  A    between atoms: C_23  and  C_24
REMARK   17  A    between atoms: C_34  and  O_36
REMARK                            x       y       z     vdW  Elec       q    Type
REMARK                         _______ _______ _______ _____ _____    ______ ____
ROOT
ATOM      1  C   UNL     1       1.727   7.301  20.525  0.00  0.00    +0.000 A 
ATOM      2  C   UNL     1       1.041   8.049  21.490  0.00  0.00    +0.000 A 
ATOM      3  C   UNL     1       0.654   9.363  21.232  0.00  0.00    +0.000 A 
ATOM      4  C   UNL     1       0.947   9.961  20.005  0.00  0.00    +0.000 A 
ATOM      5  C   UNL     1       1.636   9.216  19.037  0.00  0.00    +0.000 A 
ATOM      6  C   UNL     1       2.023   7.898  19.298  0.00  0.00    +0.000 A 
ENDROOT
BRANCH   1   7
ATOM      7  O   UNL     1       2.142   5.998  20.685  0.00  0.00    +0.000 OA
BRANCH   7   8
ATOM      8  C   UNL     1       1.080   5.060  20.828  0.00  0.00    +0.000 C 
BRANCH   8   9
ATOM      9  C   UNL     1       1.589   3.699  21.274  0.00  0.00    +0.000 C 
BRANCH   9  10
ATOM     10  C   UNL     1       1.168   2.661  20.238  0.00  0.00    +0.000 C 
BRANCH  10  11
ATOM     11  O   UNL     1       1.035   3.289  18.967  0.00  0.00    +0.000 OA
BRANCH  11  15
ATOM     12  C   UNL     1       4.559   3.421  16.743  0.00  0.00    +0.000 A 
ATOM     13  C   UNL     1       4.108   2.245  17.356  0.00  0.00    +0.000 A 
ATOM     14  C   UNL     1       2.927   2.245  18.096  0.00  0.00    +0.000 A 
ATOM     15  C   UNL     1       2.198   3.423  18.260  0.00  0.00    +0.000 A 
ATOM     16  C   UNL     1       2.653   4.602  17.667  0.00  0.00    +0.000 A 
ATOM     17  C   UNL     1       3.827   4.600  16.910  0.00  0.00    +0.000 A 
BRANCH  12  18
ATOM     18  C   UNL     1       5.778   3.396  15.858  0.00  0.00    +0.000 C 
BRANCH  18  20
ATOM     19  C   UNL     1       6.842   4.933  14.101  0.00  0.00    +0.000 C 
ATOM     20  C   UNL     1       6.278   4.807  15.515  0.00  0.00    +0.000 C 
BRANCH  20  21
ATOM     21  C   UNL     1       7.361   5.187  16.499  0.00  0.00    +0.000 C 
ATOM     22  O   UNL     1       7.995   4.397  17.181  0.00  0.00    +0.000 OA
BRANCH  21  23
ATOM     23  O   UNL     1       7.587   6.518  16.538  0.00  0.00    +0.000 OA
ATOM     24  H   UNL     1       7.553   6.948  15.663  0.00  0.00    +0.000 HD
ENDBRANCH  21  23
ENDBRANCH  20  21
ENDBRANCH  18  20
ENDBRANCH  12  18
ENDBRANCH  11  15
ENDBRANCH  10  11
ENDBRANCH   9  10
ENDBRANCH   8   9
ENDBRANCH   7   8
ENDBRANCH   1   7
BRANCH   4  25
ATOM     25  C   UNL     1       0.472  11.370  19.724  0.00  0.00    +0.000 C 
BRANCH  25  26
ATOM     26  C   UNL     1       1.383  12.477  20.244  0.00  0.00    +0.000 C 
ATOM     27  O   UNL     1       1.325  12.856  21.416  0.00  0.00    +0.000 OA
ATOM     28  N   UNL     1       2.235  13.095  19.322  0.00  0.00    +0.000 N 
ATOM     29  C   UNL     1       2.544  12.570  17.997  0.00  0.00    +0.000 C 
BRANCH  28  30
ATOM     30  C   UNL     1       3.070  14.189  19.841  0.00  0.00    +0.000 C 
BRANCH  30  31
ATOM     31  C   UNL     1       3.304  15.354  18.873  0.00  0.00    +0.000 C 
BRANCH  31  32
ATOM     32  C   UNL     1       4.775  15.589  18.641  0.00  0.00    +0.000 A 
ATOM     33  C   UNL     1       5.529  14.701  17.865  0.00  0.00    +0.000 A 
ATOM     34  C   UNL     1       6.900  14.901  17.700  0.00  0.00    +0.000 A 
ATOM     35  C   UNL     1       7.526  15.987  18.310  0.00  0.00    +0.000 A 
ATOM     36  C   UNL     1       6.783  16.878  19.081  0.00  0.00    +0.000 A 
ATOM     37  C   UNL     1       5.412  16.680  19.247  0.00  0.00    +0.000 A 
ENDBRANCH  31  32
ENDBRANCH  30  31
ENDBRANCH  28  30
ENDBRANCH  25  26
ENDBRANCH   4  25
TORSDOF 15
ENDMDL
MODEL 5
REMARK VINA RESULT:      -6.2      1.960      2.856
REMARK  Name = 
REMARK  17 active torsions:
REMARK  status: ('A' for Active; 'I' for Inactive)
REMARK    1  A    between atoms: C_1  and  C_2
REMARK    2  A    between atoms: C_2  and  C_3
REMARK    3  A    between atoms: C_2  and  C_34
REMARK    4  A    between atoms: C_3  and  C_4
REMARK    5  A    between atoms: C_7  and  O_8
REMARK    6  A    between atoms: O_8  and  C_9
REMARK    7  A    between atoms: C_9  and  C_10
REMARK    8  A    between atoms: C_10  and  C_11
REMARK    9  A    between atoms: C_11  and  O_12
REMARK   10  A    between atoms: O_12  and  C_13
REMARK   11  A    between atoms: C_16  and  C_17
REMARK   12  A    between atoms: C_17  and  C_18
REMARK   13  A    between atoms: N_20  and  C_21
REMARK   14  A    between atoms: N_20  and  C_22
REMARK   15  A    between atoms: C_22  and  C_23
REMARK   16  A    between atoms: C_23  and  C_24
REMARK   17  A    between atoms: C_34  and  O_36
REMARK                            x       y       z     vdW  Elec       q    Type
REMARK                         _______ _______ _______ _____ _____    ______ ____
ROOT
ATOM      1  C   UNL     1      -3.607  11.473  18.292  0.00  0.00    +0.000 A 
ATOM      2  C   UNL     1      -2.795  10.456  17.772  0.00  0.00    +0.000 A 
ATOM      3  C   UNL     1      -1.523  10.224  18.290  0.00  0.00    +0.000 A 
ATOM      4  C   UNL     1      -1.029  11.004  19.338  0.00  0.00    +0.000 A 
ATOM      5  C   UNL     1      -1.839  12.024  19.860  0.00  0.00    +0.000 A 
ATOM      6  C   UNL     1      -3.115  12.255  19.338  0.00  0.00    +0.000 A 
ENDROOT
BRANCH   1   7
ATOM      7  O   UNL     1      -4.876  11.771  17.852  0.00  0.00    +0.000 OA
BRANCH   7   8
ATOM      8  C   UNL     1      -5.866  10.820  18.233  0.00  0.00    +0.000 C 
BRANCH   8   9
ATOM      9  C   UNL     1      -7.160  11.495  18.658  0.00  0.00    +0.000 C 
BRANCH   9  10
ATOM     10  C   UNL     1      -7.226  11.497  20.183  0.00  0.00    +0.000 C 
BRANCH  10  11
ATOM     11  O   UNL     1      -7.412  12.831  20.646  0.00  0.00    +0.000 OA
BRANCH  11  15
ATOM     12  C   UNL     1      -3.982  14.303  22.504  0.00  0.00    +0.000 A 
ATOM     13  C   UNL     1      -4.566  13.086  22.875  0.00  0.00    +0.000 A 
ATOM     14  C   UNL     1      -5.717  12.632  22.232  0.00  0.00    +0.000 A 
ATOM     15  C   UNL     1      -6.316  13.400  21.234  0.00  0.00    +0.000 A 
ATOM     16  C   UNL     1      -5.749  14.624  20.873  0.00  0.00    +0.000 A 
ATOM     17  C   UNL     1      -4.585  15.072  21.504  0.00  0.00    +0.000 A 
BRANCH  12  18
ATOM     18  C   UNL     1      -2.682  14.742  23.126  0.00  0.00    +0.000 C 
BRANCH  18  20
ATOM     19  C   UNL     1      -3.670  16.349  24.865  0.00  0.00    +0.000 C 
ATOM     20  C   UNL     1      -2.836  15.094  24.613  0.00  0.00    +0.000 C 
BRANCH  20  21
ATOM     21  C   UNL     1      -1.461  15.307  25.203  0.00  0.00    +0.000 C 
ATOM     22  O   UNL     1      -0.436  15.453  24.554  0.00  0.00    +0.000 OA
BRANCH  21  23
ATOM     23  O   UNL     1      -1.473  15.345  26.553  0.00  0.00    +0.000 OA
ATOM     24  H   UNL     1      -1.604  16.239  26.919  0.00  0.00    +0.000 HD
ENDBRANCH  21  23
ENDBRANCH  20  21
ENDBRANCH  18  20
ENDBRANCH  12  18
ENDBRANCH  11  15
ENDBRANCH  10  11
ENDBRANCH   9  10
ENDBRANCH   8   9
ENDBRANCH   7   8
ENDBRANCH   1   7
BRANCH   4  25
ATOM     25  C   UNL     1       0.333  10.702  19.923  0.00  0.00    +0.000 C 
BRANCH  25  26
ATOM     26  C   UNL     1       1.295   9.981  18.985  0.00  0.00    +0.000 C 
ATOM     27  O   UNL     1       1.712  10.520  17.958  0.00  0.00    +0.000 OA
ATOM     28  N   UNL     1       1.624   8.657  19.296  0.00  0.00    +0.000 N 
ATOM     29  C   UNL     1       1.378   8.022  20.586  0.00  0.00    +0.000 C 
BRANCH  28  30
ATOM     30  C   UNL     1       2.518   7.971  18.350  0.00  0.00    +0.000 C 
BRANCH  30  31
ATOM     31  C   UNL     1       3.050   6.610  18.817  0.00  0.00    +0.000 C 
BRANCH  31  32
ATOM     32  C   UNL     1       3.808   5.911  17.718  0.00  0.00    +0.000 A 
ATOM     33  C   UNL     1       3.687   4.529  17.532  0.00  0.00    +0.000 A 
ATOM     34  C   UNL     1       4.432   3.885  16.543  0.00  0.00    +0.000 A 
ATOM     35  C   UNL     1       5.304   4.616  15.737  0.00  0.00    +0.000 A 
ATOM     36  C   UNL     1       5.427   5.993  15.914  0.00  0.00    +0.000 A 
ATOM     37  C   UNL     1       4.683   6.638  16.900  0.00  0.00    +0.000 A 
ENDBRANCH  31  32
ENDBRANCH  30  31
ENDBRANCH  28  30
ENDBRANCH  25  26
ENDBRANCH   4  25
TORSDOF 15
ENDMDL
MODEL 6
REMARK VINA RESULT:      -6.2      4.924      9.592
REMARK  Name = 
REMARK  17 active torsions:
REMARK  status: ('A' for Active; 'I' for Inactive)
REMARK    1  A    between atoms: C_1  and  C_2
REMARK    2  A    between atoms: C_2  and  C_3
REMARK    3  A    between atoms: C_2  and  C_34
REMARK    4  A    between atoms: C_3  and  C_4
REMARK    5  A    between atoms: C_7  and  O_8
REMARK    6  A    between atoms: O_8  and  C_9
REMARK    7  A    between atoms: C_9  and  C_10
REMARK    8  A    between atoms: C_10  and  C_11
REMARK    9  A    between atoms: C_11  and  O_12
REMARK   10  A    between atoms: O_12  and  C_13
REMARK   11  A    between atoms: C_16  and  C_17
REMARK   12  A    between atoms: C_17  and  C_18
REMARK   13  A    between atoms: N_20  and  C_21
REMARK   14  A    between atoms: N_20  and  C_22
REMARK   15  A    between atoms: C_22  and  C_23
REMARK   16  A    between atoms: C_23  and  C_24
REMARK   17  A    between atoms: C_34  and  O_36
REMARK                            x       y       z     vdW  Elec       q    Type
REMARK                         _______ _______ _______ _____ _____    ______ ____
ROOT
ATOM      1  C   UNL     1       3.990   3.079  18.946  0.00  0.00    +0.000 A 
ATOM      2  C   UNL     1       3.688   2.965  17.583  0.00  0.00    +0.000 A 
ATOM      3  C   UNL     1       4.218   3.862  16.658  0.00  0.00    +0.000 A 
ATOM      4  C   UNL     1       5.060   4.896  17.074  0.00  0.00    +0.000 A 
ATOM      5  C   UNL     1       5.363   5.014  18.438  0.00  0.00    +0.000 A 
ATOM      6  C   UNL     1       4.830   4.112  19.364  0.00  0.00    +0.000 A 
ENDROOT
BRANCH   1   7
ATOM      7  O   UNL     1       3.522   2.237  19.930  0.00  0.00    +0.000 OA
BRANCH   7   8
ATOM      8  C   UNL     1       2.107   2.251  20.087  0.00  0.00    +0.000 C 
BRANCH   8   9
ATOM      9  C   UNL     1       1.674   3.179  21.210  0.00  0.00    +0.000 C 
BRANCH   9  10
ATOM     10  C   UNL     1       1.241   4.509  20.600  0.00  0.00    +0.000 C 
BRANCH  10  11
ATOM     11  O   UNL     1       2.301   5.452  20.720  0.00  0.00    +0.000 OA
BRANCH  11  15
ATOM     12  C   UNL     1       1.351   9.220  19.209  0.00  0.00    +0.000 A 
ATOM     13  C   UNL     1       1.949   8.230  18.420  0.00  0.00    +0.000 A 
ATOM     14  C   UNL     1       2.256   6.984  18.966  0.00  0.00    +0.000 A 
ATOM     15  C   UNL     1       1.999   6.722  20.311  0.00  0.00    +0.000 A 
ATOM     16  C   UNL     1       1.420   7.711  21.108  0.00  0.00    +0.000 A 
ATOM     17  C   UNL     1       1.095   8.954  20.558  0.00  0.00    +0.000 A 
BRANCH  12  18
ATOM     18  C   UNL     1       0.924  10.527  18.593  0.00  0.00    +0.000 C 
BRANCH  18  20
ATOM     19  C   UNL     1      -1.357   9.884  17.610  0.00  0.00    +0.000 C 
ATOM     20  C   UNL     1      -0.598  10.723  18.637  0.00  0.00    +0.000 C 
BRANCH  20  21
ATOM     21  C   UNL     1      -0.904  12.182  18.385  0.00  0.00    +0.000 C 
ATOM     22  O   UNL     1      -1.996  12.705  18.541  0.00  0.00    +0.000 OA
BRANCH  21  23
ATOM     23  O   UNL     1       0.180  12.880  17.982  0.00  0.00    +0.000 OA
ATOM     24  H   UNL     1       0.392  13.641  18.553  0.00  0.00    +0.000 HD
ENDBRANCH  21  23
ENDBRANCH  20  21
ENDBRANCH  18  20
ENDBRANCH  12  18
ENDBRANCH  11  15
ENDBRANCH  10  11
ENDBRANCH   9  10
ENDBRANCH   8   9
ENDBRANCH   7   8
ENDBRANCH   1   7
BRANCH   4  25
ATOM     25  C   UNL     1       5.668   5.828  16.048  0.00  0.00    +0.000 C 
BRANCH  25  26
ATOM     26  C   UNL     1       6.932   6.551  16.499  0.00  0.00    +0.000 C 
ATOM     27  O   UNL     1       8.051   6.085  16.275  0.00  0.00    +0.000 OA
ATOM     28  N   UNL     1       6.770   7.725  17.244  0.00  0.00    +0.000 N 
ATOM     29  C   UNL     1       5.522   8.470  17.355  0.00  0.00    +0.000 C 
BRANCH  28  30
ATOM     30  C   UNL     1       8.006   8.377  17.705  0.00  0.00    +0.000 C 
BRANCH  30  31
ATOM     31  C   UNL     1       8.015   9.908  17.609  0.00  0.00    +0.000 C 
BRANCH  31  32
ATOM     32  C   UNL     1       9.176  10.498  18.370  0.00  0.00    +0.000 A 
ATOM     33  C   UNL     1       9.159  10.559  19.768  0.00  0.00    +0.000 A 
ATOM     34  C   UNL     1      10.216  11.153  20.458  0.00  0.00    +0.000 A 
ATOM     35  C   UNL     1      11.294  11.691  19.757  0.00  0.00    +0.000 A 
ATOM     36  C   UNL     1      11.321  11.630  18.365  0.00  0.00    +0.000 A 
ATOM     37  C   UNL     1      10.266  11.037  17.673  0.00  0.00    +0.000 A 
ENDBRANCH  31  32
ENDBRANCH  30  31
ENDBRANCH  28  30
ENDBRANCH  25  26
ENDBRANCH   4  25
TORSDOF 15
ENDMDL
MODEL 7
REMARK VINA RESULT:      -6.2      3.888     11.065
REMARK  Name = 
REMARK  17 active torsions:
REMARK  status: ('A' for Active; 'I' for Inactive)
REMARK    1  A    between atoms: C_1  and  C_2
REMARK    2  A    between atoms: C_2  and  C_3
REMARK    3  A    between atoms: C_2  and  C_34
REMARK    4  A    between atoms: C_3  and  C_4
REMARK    5  A    between atoms: C_7  and  O_8
REMARK    6  A    between atoms: O_8  and  C_9
REMARK    7  A    between atoms: C_9  and  C_10
REMARK    8  A    between atoms: C_10  and  C_11
REMARK    9  A    between atoms: C_11  and  O_12
REMARK   10  A    between atoms: O_12  and  C_13
REMARK   11  A    between atoms: C_16  and  C_17
REMARK   12  A    between atoms: C_17  and  C_18
REMARK   13  A    between atoms: N_20  and  C_21
REMARK   14  A    between atoms: N_20  and  C_22
REMARK   15  A    between atoms: C_22  and  C_23
REMARK   16  A    between atoms: C_23  and  C_24
REMARK   17  A    between atoms: C_34  and  O_36
REMARK                            x       y       z     vdW  Elec       q    Type
REMARK                         _______ _______ _______ _____ _____    ______ ____
ROOT
ATOM      1  C   UNL     1       0.451   9.628  21.117  0.00  0.00    +0.000 A 
ATOM      2  C   UNL     1       0.148  10.864  20.531  0.00  0.00    +0.000 A 
ATOM      3  C   UNL     1      -0.551  11.838  21.242  0.00  0.00    +0.000 A 
ATOM      4  C   UNL     1      -0.967  11.598  22.553  0.00  0.00    +0.000 A 
ATOM      5  C   UNL     1      -0.666  10.361  23.142  0.00  0.00    +0.000 A 
ATOM      6  C   UNL     1       0.035   9.386  22.427  0.00  0.00    +0.000 A 
ENDROOT
BRANCH   1   7
ATOM      7  O   UNL     1       1.142   8.611  20.498  0.00  0.00    +0.000 OA
BRANCH   7   8
ATOM      8  C   UNL     1       1.317   7.449  21.302  0.00  0.00    +0.000 C 
BRANCH   8   9
ATOM      9  C   UNL     1       1.025   6.177  20.523  0.00  0.00    +0.000 C 
BRANCH   9  10
ATOM     10  C   UNL     1       2.015   5.102  20.963  0.00  0.00    +0.000 C 
BRANCH  10  11
ATOM     11  O   UNL     1       1.889   3.967  20.111  0.00  0.00    +0.000 OA
BRANCH  11  15
ATOM     12  C   UNL     1       4.733   3.859  17.064  0.00  0.00    +0.000 A 
ATOM     13  C   UNL     1       5.026   4.359  18.339  0.00  0.00    +0.000 A 
ATOM     14  C   UNL     1       4.043   4.383  19.328  0.00  0.00    +0.000 A 
ATOM     15  C   UNL     1       2.752   3.938  19.050  0.00  0.00    +0.000 A 
ATOM     16  C   UNL     1       2.449   3.456  17.775  0.00  0.00    +0.000 A 
ATOM     17  C   UNL     1       3.436   3.415  16.788  0.00  0.00    +0.000 A 
BRANCH  12  18
ATOM     18  C   UNL     1       5.820   3.737  16.028  0.00  0.00    +0.000 C 
BRANCH  18  20
ATOM     19  C   UNL     1       5.280   6.183  15.471  0.00  0.00    +0.000 C 
ATOM     20  C   UNL     1       6.357   5.105  15.583  0.00  0.00    +0.000 C 
BRANCH  20  21
ATOM     21  C   UNL     1       7.018   4.946  14.232  0.00  0.00    +0.000 C 
ATOM     22  O   UNL     1       8.032   5.526  13.877  0.00  0.00    +0.000 OA
BRANCH  21  23
ATOM     23  O   UNL     1       6.379   4.059  13.440  0.00  0.00    +0.000 OA
ATOM     24  H   UNL     1       5.700   3.535  13.904  0.00  0.00    +0.000 HD
ENDBRANCH  21  23
ENDBRANCH  20  21
ENDBRANCH  18  20
ENDBRANCH  12  18
ENDBRANCH  11  15
ENDBRANCH  10  11
ENDBRANCH   9  10
ENDBRANCH   8   9
ENDBRANCH   7   8
ENDBRANCH   1   7
BRANCH   4  25
ATOM     25  C   UNL     1      -1.677  12.688  23.327  0.00  0.00    +0.000 C 
BRANCH  25  26
ATOM     26  C   UNL     1      -2.845  13.343  22.598  0.00  0.00    +0.000 C 
ATOM     27  O   UNL     1      -2.683  13.922  21.522  0.00  0.00    +0.000 OA
ATOM     28  N   UNL     1      -4.091  13.327  23.234  0.00  0.00    +0.000 N 
ATOM     29  C   UNL     1      -4.430  12.478  24.371  0.00  0.00    +0.000 C 
BRANCH  28  30
ATOM     30  C   UNL     1      -5.189  14.005  22.528  0.00  0.00    +0.000 C 
BRANCH  30  31
ATOM     31  C   UNL     1      -6.428  13.142  22.258  0.00  0.00    +0.000 C 
BRANCH  31  32
ATOM     32  C   UNL     1      -6.305  12.399  20.953  0.00  0.00    +0.000 A 
ATOM     33  C   UNL     1      -5.524  12.909  19.908  0.00  0.00    +0.000 A 
ATOM     34  C   UNL     1      -5.458  12.237  18.687  0.00  0.00    +0.000 A 
ATOM     35  C   UNL     1      -6.172  11.054  18.501  0.00  0.00    +0.000 A 
ATOM     36  C   UNL     1      -6.948  10.537  19.536  0.00  0.00    +0.000 A 
ATOM     37  C   UNL     1      -7.016  11.207  20.757  0.00  0.00    +0.000 A 
ENDBRANCH  31  32
ENDBRANCH  30  31
ENDBRANCH  28  30
ENDBRANCH  25  26
ENDBRANCH   4  25
TORSDOF 15
ENDMDL
MODEL 8
REMARK VINA RESULT:      -6.2      5.231     11.306
REMARK  Name = 
REMARK  17 active torsions:
REMARK  status: ('A' for Active; 'I' for Inactive)
REMARK    1  A    between atoms: C_1  and  C_2
REMARK    2  A    between atoms: C_2  and  C_3
REMARK    3  A    between atoms: C_2  and  C_34
REMARK    4  A    between atoms: C_3  and  C_4
REMARK    5  A    between atoms: C_7  and  O_8
REMARK    6  A    between atoms: O_8  and  C_9
REMARK    7  A    between atoms: C_9  and  C_10
REMARK    8  A    between atoms: C_10  and  C_11
REMARK    9  A    between atoms: C_11  and  O_12
REMARK   10  A    between atoms: O_12  and  C_13
REMARK   11  A    between atoms: C_16  and  C_17
REMARK   12  A    between atoms: C_17  and  C_18
REMARK   13  A    between atoms: N_20  and  C_21
REMARK   14  A    between atoms: N_20  and  C_22
REMARK   15  A    between atoms: C_22  and  C_23
REMARK   16  A    between atoms: C_23  and  C_24
REMARK   17  A    between atoms: C_34  and  O_36
REMARK                            x       y       z     vdW  Elec       q    Type
REMARK                         _______ _______ _______ _____ _____    ______ ____
ROOT
ATOM      1  C   UNL     1       2.622   7.260  18.515  0.00  0.00    +0.000 A 
ATOM      2  C   UNL     1       2.302   6.879  19.825  0.00  0.00    +0.000 A 
ATOM      3  C   UNL     1       1.539   7.710  20.643  0.00  0.00    +0.000 A 
ATOM      4  C   UNL     1       1.082   8.943  20.173  0.00  0.00    +0.000 A 
ATOM      5  C   UNL     1       1.402   9.328  18.863  0.00  0.00    +0.000 A 
ATOM      6  C   UNL     1       2.167   8.492  18.044  0.00  0.00    +0.000 A 
ENDROOT
BRANCH   1   7
ATOM      7  O   UNL     1       3.361   6.504  17.633  0.00  0.00    +0.000 OA
BRANCH   7   8
ATOM      8  C   UNL     1       3.253   5.098  17.833  0.00  0.00    +0.000 C 
BRANCH   8   9
ATOM      9  C   UNL     1       4.490   4.364  17.342  0.00  0.00    +0.000 C 
BRANCH   9  10
ATOM     10  C   UNL     1       5.539   4.387  18.451  0.00  0.00    +0.000 C 
BRANCH  10  11
ATOM     11  O   UNL     1       6.828   4.577  17.877  0.00  0.00    +0.000 OA
BRANCH  11  15
ATOM     12  C   UNL     1       8.184   8.511  18.150  0.00  0.00    +0.000 A 
ATOM     13  C   UNL     1       7.386   8.070  17.087  0.00  0.00    +0.000 A 
ATOM     14  C   UNL     1       6.959   6.743  17.030  0.00  0.00    +0.000 A 
ATOM     15  C   UNL     1       7.347   5.836  18.015  0.00  0.00    +0.000 A 
ATOM     16  C   UNL     1       8.158   6.265  19.067  0.00  0.00    +0.000 A 
ATOM     17  C   UNL     1       8.572   7.597  19.135  0.00  0.00    +0.000 A 
BRANCH  12  18
ATOM     18  C   UNL     1       8.558   9.966  18.265  0.00  0.00    +0.000 C 
BRANCH  18  20
ATOM     19  C   UNL     1       9.127  10.917  20.579  0.00  0.00    +0.000 C 
ATOM     20  C   UNL     1       9.640  10.207  19.328  0.00  0.00    +0.000 C 
BRANCH  20  21
ATOM     21  C   UNL     1      10.738  11.047  18.715  0.00  0.00    +0.000 C 
ATOM     22  O   UNL     1      11.723  11.453  19.311  0.00  0.00    +0.000 OA
BRANCH  21  23
ATOM     23  O   UNL     1      10.535  11.294  17.403  0.00  0.00    +0.000 OA
ATOM     24  H   UNL     1      10.181  10.531  16.910  0.00  0.00    +0.000 HD
ENDBRANCH  21  23
ENDBRANCH  20  21
ENDBRANCH  18  20
ENDBRANCH  12  18
ENDBRANCH  11  15
ENDBRANCH  10  11
ENDBRANCH   9  10
ENDBRANCH   8   9
ENDBRANCH   7   8
ENDBRANCH   1   7
BRANCH   4  25
ATOM     25  C   UNL     1       0.210   9.808  21.057  0.00  0.00    +0.000 C 
BRANCH  25  26
ATOM     26  C   UNL     1       0.291  11.305  20.781  0.00  0.00    +0.000 C 
ATOM     27  O   UNL     1       1.214  11.989  21.227  0.00  0.00    +0.000 OA
ATOM     28  N   UNL     1      -0.763  11.885  20.066  0.00  0.00    +0.000 N 
ATOM     29  C   UNL     1      -1.759  11.138  19.306  0.00  0.00    +0.000 C 
BRANCH  28  30
ATOM     30  C   UNL     1      -0.681  13.337  19.852  0.00  0.00    +0.000 C 
BRANCH  30  31
ATOM     31  C   UNL     1       0.081  13.775  18.595  0.00  0.00    +0.000 C 
BRANCH  31  32
ATOM     32  C   UNL     1       0.659  15.158  18.757  0.00  0.00    +0.000 A 
ATOM     33  C   UNL     1      -0.166  16.248  19.058  0.00  0.00    +0.000 A 
ATOM     34  C   UNL     1       0.373  17.531  19.156  0.00  0.00    +0.000 A 
ATOM     35  C   UNL     1       1.738  17.734  18.951  0.00  0.00    +0.000 A 
ATOM     36  C   UNL     1       2.566  16.653  18.654  0.00  0.00    +0.000 A 
ATOM     37  C   UNL     1       2.029  15.370  18.557  0.00  0.00    +0.000 A 
ENDBRANCH  31  32
ENDBRANCH  30  31
ENDBRANCH  28  30
ENDBRANCH  25  26
ENDBRANCH   4  25
TORSDOF 15
ENDMDL
MODEL 9
REMARK VINA RESULT:      -6.2      1.119      1.734
REMARK  Name = 
REMARK  17 active torsions:
REMARK  status: ('A' for Active; 'I' for Inactive)
REMARK    1  A    between atoms: C_1  and  C_2
REMARK    2  A    between atoms: C_2  and  C_3
REMARK    3  A    between atoms: C_2  and  C_34
REMARK    4  A    between atoms: C_3  and  C_4
REMARK    5  A    between atoms: C_7  and  O_8
REMARK    6  A    between atoms: O_8  and  C_9
REMARK    7  A    between atoms: C_9  and  C_10
REMARK    8  A    between atoms: C_10  and  C_11
REMARK    9  A    between atoms: C_11  and  O_12
REMARK   10  A    between atoms: O_12  and  C_13
REMARK   11  A    between atoms: C_16  and  C_17
REMARK   12  A    between atoms: C_17  and  C_18
REMARK   13  A    between atoms: N_20  and  C_21
REMARK   14  A    between atoms: N_20  and  C_22
REMARK   15  A    between atoms: C_22  and  C_23
REMARK   16  A    between atoms: C_23  and  C_24
REMARK   17  A    between atoms: C_34  and  O_36
REMARK                            x       y       z     vdW  Elec       q    Type
REMARK                         _______ _______ _______ _____ _____    ______ ____
ROOT
ATOM      1  C   UNL     1      -3.040  11.471  17.641  0.00  0.00    +0.000 A 
ATOM      2  C   UNL     1      -2.263  12.447  18.280  0.00  0.00    +0.000 A 
ATOM      3  C   UNL     1      -1.047  12.115  18.873  0.00  0.00    +0.000 A 
ATOM      4  C   UNL     1      -0.578  10.799  18.844  0.00  0.00    +0.000 A 
ATOM      5  C   UNL     1      -1.354   9.820  18.206  0.00  0.00    +0.000 A 
ATOM      6  C   UNL     1      -2.574  10.156  17.612  0.00  0.00    +0.000 A 
ENDROOT
BRANCH   1   7
ATOM      7  O   UNL     1      -4.247  11.705  17.023  0.00  0.00    +0.000 OA
BRANCH   7   8
ATOM      8  C   UNL     1      -5.228  10.700  17.256  0.00  0.00    +0.000 C 
BRANCH   8   9
ATOM      9  C   UNL     1      -6.049  10.993  18.501  0.00  0.00    +0.000 C 
BRANCH   9  10
ATOM     10  C   UNL     1      -7.020  12.127  18.185  0.00  0.00    +0.000 C 
BRANCH  10  11
ATOM     11  O   UNL     1      -7.321  12.838  19.382  0.00  0.00    +0.000 OA
BRANCH  11  15
ATOM     12  C   UNL     1      -4.146  13.195  22.061  0.00  0.00    +0.000 A 
ATOM     13  C   UNL     1      -5.290  12.444  22.357  0.00  0.00    +0.000 A 
ATOM     14  C   UNL     1      -6.333  12.355  21.435  0.00  0.00    +0.000 A 
ATOM     15  C   UNL     1      -6.260  13.038  20.222  0.00  0.00    +0.000 A 
ATOM     16  C   UNL     1      -5.130  13.804  19.929  0.00  0.00    +0.000 A 
ATOM     17  C   UNL     1      -4.077  13.880  20.844  0.00  0.00    +0.000 A 
BRANCH  12  18
ATOM     18  C   UNL     1      -2.978  13.205  23.012  0.00  0.00    +0.000 C 
BRANCH  18  20
ATOM     19  C   UNL     1      -1.266  11.294  23.050  0.00  0.00    +0.000 C 
ATOM     20  C   UNL     1      -1.713  12.596  22.388  0.00  0.00    +0.000 C 
BRANCH  20  21
ATOM     21  C   UNL     1      -0.589  13.601  22.501  0.00  0.00    +0.000 C 
ATOM     22  O   UNL     1      -0.662  14.669  23.088  0.00  0.00    +0.000 OA
BRANCH  21  23
ATOM     23  O   UNL     1       0.544  13.186  21.895  0.00  0.00    +0.000 OA
ATOM     24  H   UNL     1       0.390  12.711  21.057  0.00  0.00    +0.000 HD
ENDBRANCH  21  23
ENDBRANCH  20  21
ENDBRANCH  18  20
ENDBRANCH  12  18
ENDBRANCH  11  15
ENDBRANCH  10  11
ENDBRANCH   9  10
ENDBRANCH   8   9
ENDBRANCH   7   8
ENDBRANCH   1   7
BRANCH   4  25
ATOM     25  C   UNL     1       0.770  10.469  19.446  0.00  0.00    +0.000 C 
BRANCH  25  26
ATOM     26  C   UNL     1       1.568   9.404  18.701  0.00  0.00    +0.000 C 
ATOM     27  O   UNL     1       1.953   9.586  17.544  0.00  0.00    +0.000 OA
ATOM     28  N   UNL     1       1.780   8.185  19.354  0.00  0.00    +0.000 N 
ATOM     29  C   UNL     1       1.577   7.963  20.781  0.00  0.00    +0.000 C 
BRANCH  28  30
ATOM     30  C   UNL     1       2.514   7.161  18.595  0.00  0.00    +0.000 C 
BRANCH  30  31
ATOM     31  C   UNL     1       3.168   6.060  19.439  0.00  0.00    +0.000 C 
BRANCH  31  32
ATOM     32  C   UNL     1       2.323   4.812  19.463  0.00  0.00    +0.000 A 
ATOM     33  C   UNL     1       1.922   4.241  20.676  0.00  0.00    +0.000 A 
ATOM     34  C   UNL     1       1.183   3.057  20.686  0.00  0.00    +0.000 A 
ATOM     35  C   UNL     1       0.843   2.436  19.485  0.00  0.00    +0.000 A 
ATOM     36  C   UNL     1       1.235   3.000  18.273  0.00  0.00    +0.000 A 
ATOM     37  C   UNL     1       1.973   4.182  18.261  0.00  0.00    +0.000 A 
ENDBRANCH  31  32
ENDBRANCH  30  31
ENDBRANCH  28  30
ENDBRANCH  25  26
ENDBRANCH   4  25
TORSDOF 15
ENDMDL
