MODEL 1
REMARK VINA RESULT:      -7.5      0.000      0.000
REMARK  Name = 
REMARK  9 active torsions:
REMARK  status: ('A' for Active; 'I' for Inactive)
REMARK    1  A    between atoms: C_1  and  O_2
REMARK    2  A    between atoms: O_2  and  C_3
REMARK    3  A    between atoms: C_7  and  C_8
REMARK    4  A    between atoms: N_13  and  C_14
REMARK    5  A    between atoms: C_14  and  C_15
REMARK    6  A    between atoms: C_19  and  O_20
REMARK    7  A    between atoms: O_20  and  C_21
REMARK    8  A    between atoms: C_30  and  O_31
REMARK    9  A    between atoms: O_31  and  C_32
REMARK                            x       y       z     vdW  Elec       q    Type
REMARK                         _______ _______ _______ _____ _____    ______ ____
ROOT
ATOM      1  C   UNL     1      -0.071  11.348  19.647  0.00  0.00    +0.000 C 
ATOM      2  O   UNL     1       0.183  11.924  18.582  0.00  0.00    +0.000 OA
ATOM      3  N   UNL     1       0.169   9.978  19.763  0.00  0.00    +0.000 N 
ATOM      4  C   UNL     1       0.854   9.275  18.664  0.00  0.00    +0.000 C 
ATOM      5  C   UNL     1       2.132   8.547  19.152  0.00  0.00    +0.000 C 
ATOM      6  N   UNL     1       1.978   7.718  20.376  0.00  0.00    +0.000 NA
ATOM      7  C   UNL     1       1.270   8.535  21.401  0.00  0.00    +0.000 C 
ATOM      8  C   UNL     1      -0.080   9.112  20.908  0.00  0.00    +0.000 C 
ENDROOT
BRANCH   1  13
ATOM      9  C   UNL     1      -0.837  13.848  22.516  0.00  0.00    +0.000 A 
ATOM     10  C   UNL     1      -2.228  13.919  22.347  0.00  0.00    +0.000 A 
ATOM     11  C   UNL     1      -2.868  13.120  21.416  0.00  0.00    +0.000 A 
ATOM     12  C   UNL     1      -2.114  12.255  20.630  0.00  0.00    +0.000 A 
ATOM     13  C   UNL     1      -0.704  12.210  20.709  0.00  0.00    +0.000 A 
ATOM     14  C   UNL     1      -0.052  13.050  21.644  0.00  0.00    +0.000 A 
BRANCH   9  16
ATOM     15  C   UNL     1      -1.095  15.231  24.430  0.00  0.00    +0.000 C 
ATOM     16  O   UNL     1      -0.230  14.628  23.467  0.00  0.00    +0.000 OA
ENDBRANCH   9  16
BRANCH  14  17
ATOM     17  O   UNL     1       1.317  13.111  21.565  0.00  0.00    +0.000 OA
ATOM     18  C   UNL     1       1.927  14.177  20.846  0.00  0.00    +0.000 C 
ENDBRANCH  14  17
ENDBRANCH   1  13
BRANCH   6  19
ATOM     19  C   UNL     1       1.254   6.453  20.159  0.00  0.00    +0.000 C 
BRANCH  19  20
ATOM     20  C   UNL     1       2.100   5.206  20.229  0.00  0.00    +0.000 A 
ATOM     21  C   UNL     1       1.658   4.096  20.966  0.00  0.00    +0.000 A 
ATOM     22  C   UNL     1       2.446   2.951  21.072  0.00  0.00    +0.000 A 
ATOM     23  C   UNL     1       3.673   2.890  20.409  0.00  0.00    +0.000 A 
ATOM     24  C   UNL     1       4.109   3.970  19.644  0.00  0.00    +0.000 A 
ATOM     25  C   UNL     1       3.352   5.150  19.602  0.00  0.00    +0.000 A 
BRANCH  24  26
ATOM     26  O   UNL     1       5.330   3.816  19.023  0.00  0.00    +0.000 OA
BRANCH  26  27
ATOM     27  C   UNL     1       5.947   4.903  18.452  0.00  0.00    +0.000 A 
ATOM     28  C   UNL     1       7.067   5.390  19.135  0.00  0.00    +0.000 A 
ATOM     29  C   UNL     1       7.756   6.505  18.650  0.00  0.00    +0.000 A 
ATOM     30  C   UNL     1       7.329   7.133  17.482  0.00  0.00    +0.000 A 
ATOM     31  C   UNL     1       6.238   6.626  16.779  0.00  0.00    +0.000 A 
ATOM     32  C   UNL     1       5.568   5.495  17.247  0.00  0.00    +0.000 A 
ENDBRANCH  26  27
ENDBRANCH  24  26
ENDBRANCH  19  20
ENDBRANCH   6  19
TORSDOF 7
ENDMDL
MODEL 2
REMARK VINA RESULT:      -7.4      0.895      1.096
REMARK  Name = 
REMARK  9 active torsions:
REMARK  status: ('A' for Active; 'I' for Inactive)
REMARK    1  A    between atoms: C_1  and  O_2
REMARK    2  A    between atoms: O_2  and  C_3
REMARK    3  A    between atoms: C_7  and  C_8
REMARK    4  A    between atoms: N_13  and  C_14
REMARK    5  A    between atoms: C_14  and  C_15
REMARK    6  A    between atoms: C_19  and  O_20
REMARK    7  A    between atoms: O_20  and  C_21
REMARK    8  A    between atoms: C_30  and  O_31
REMARK    9  A    between atoms: O_31  and  C_32
REMARK                            x       y       z     vdW  Elec       q    Type
REMARK                         _______ _______ _______ _____ _____    ______ ____
ROOT
ATOM      1  C   UNL     1       0.054  11.402  19.533  0.00  0.00    +0.000 C 
ATOM      2  O   UNL     1       0.251  11.790  18.375  0.00  0.00    +0.000 OA
ATOM      3  N   UNL     1       0.205  10.048  19.840  0.00  0.00    +0.000 N 
ATOM      4  C   UNL     1       0.735   9.135  18.813  0.00  0.00    +0.000 C 
ATOM      5  C   UNL     1       1.996   8.381  19.305  0.00  0.00    +0.000 C 
ATOM      6  N   UNL     1       1.894   7.759  20.651  0.00  0.00    +0.000 NA
ATOM      7  C   UNL     1       1.343   8.775  21.590  0.00  0.00    +0.000 C 
ATOM      8  C   UNL     1      -0.002   9.385  21.121  0.00  0.00    +0.000 C 
ENDROOT
BRANCH   1  13
ATOM      9  C   UNL     1      -0.258  14.258  22.142  0.00  0.00    +0.000 A 
ATOM     10  C   UNL     1      -1.608  14.571  21.930  0.00  0.00    +0.000 A 
ATOM     11  C   UNL     1      -2.378  13.821  21.058  0.00  0.00    +0.000 A 
ATOM     12  C   UNL     1      -1.792  12.761  20.373  0.00  0.00    +0.000 A 
ATOM     13  C   UNL     1      -0.416  12.461  20.495  0.00  0.00    +0.000 A 
ATOM     14  C   UNL     1       0.373  13.249  21.368  0.00  0.00    +0.000 A 
BRANCH   9  16
ATOM     15  C   UNL     1       0.008  16.322  23.288  0.00  0.00    +0.000 C 
ATOM     16  O   UNL     1       0.476  14.997  23.036  0.00  0.00    +0.000 OA
ENDBRANCH   9  16
BRANCH  14  17
ATOM     17  O   UNL     1       1.729  13.047  21.322  0.00  0.00    +0.000 OA
ATOM     18  C   UNL     1       2.531  13.878  20.488  0.00  0.00    +0.000 C 
ENDBRANCH  14  17
ENDBRANCH   1  13
BRANCH   6  19
ATOM     19  C   UNL     1       1.065   6.542  20.691  0.00  0.00    +0.000 C 
BRANCH  19  20
ATOM     20  C   UNL     1       1.798   5.252  20.418  0.00  0.00    +0.000 A 
ATOM     21  C   UNL     1       1.141   4.021  20.577  0.00  0.00    +0.000 A 
ATOM     22  C   UNL     1       1.816   2.820  20.367  0.00  0.00    +0.000 A 
ATOM     23  C   UNL     1       3.151   2.837  19.960  0.00  0.00    +0.000 A 
ATOM     24  C   UNL     1       3.807   4.052  19.763  0.00  0.00    +0.000 A 
ATOM     25  C   UNL     1       3.150   5.257  20.050  0.00  0.00    +0.000 A 
BRANCH  24  26
ATOM     26  O   UNL     1       5.122   3.968  19.357  0.00  0.00    +0.000 OA
BRANCH  26  27
ATOM     27  C   UNL     1       5.464   4.334  18.077  0.00  0.00    +0.000 A 
ATOM     28  C   UNL     1       6.582   5.169  17.967  0.00  0.00    +0.000 A 
ATOM     29  C   UNL     1       7.004   5.616  16.712  0.00  0.00    +0.000 A 
ATOM     30  C   UNL     1       6.311   5.230  15.566  0.00  0.00    +0.000 A 
ATOM     31  C   UNL     1       5.222   4.367  15.671  0.00  0.00    +0.000 A 
ATOM     32  C   UNL     1       4.819   3.897  16.920  0.00  0.00    +0.000 A 
ENDBRANCH  26  27
ENDBRANCH  24  26
ENDBRANCH  19  20
ENDBRANCH   6  19
TORSDOF 7
ENDMDL
MODEL 3
REMARK VINA RESULT:      -7.3      2.753     10.762
REMARK  Name = 
REMARK  9 active torsions:
REMARK  status: ('A' for Active; 'I' for Inactive)
REMARK    1  A    between atoms: C_1  and  O_2
REMARK    2  A    between atoms: O_2  and  C_3
REMARK    3  A    between atoms: C_7  and  C_8
REMARK    4  A    between atoms: N_13  and  C_14
REMARK    5  A    between atoms: C_14  and  C_15
REMARK    6  A    between atoms: C_19  and  O_20
REMARK    7  A    between atoms: O_20  and  C_21
REMARK    8  A    between atoms: C_30  and  O_31
REMARK    9  A    between atoms: O_31  and  C_32
REMARK                            x       y       z     vdW  Elec       q    Type
REMARK                         _______ _______ _______ _____ _____    ______ ____
ROOT
ATOM      1  C   UNL     1       3.864   5.760  19.008  0.00  0.00    +0.000 C 
ATOM      2  O   UNL     1       3.906   5.127  20.071  0.00  0.00    +0.000 OA
ATOM      3  N   UNL     1       2.808   6.642  18.775  0.00  0.00    +0.000 N 
ATOM      4  C   UNL     1       1.845   6.909  19.857  0.00  0.00    +0.000 C 
ATOM      5  C   UNL     1       1.747   8.421  20.184  0.00  0.00    +0.000 C 
ATOM      6  N   UNL     1       1.588   9.326  19.016  0.00  0.00    +0.000 NA
ATOM      7  C   UNL     1       2.607   8.951  17.998  0.00  0.00    +0.000 C 
ATOM      8  C   UNL     1       2.557   7.457  17.593  0.00  0.00    +0.000 C 
ENDROOT
BRANCH   1  13
ATOM      9  C   UNL     1       6.038   4.382  16.103  0.00  0.00    +0.000 A 
ATOM     10  C   UNL     1       7.076   5.322  16.172  0.00  0.00    +0.000 A 
ATOM     11  C   UNL     1       7.098   6.277  17.173  0.00  0.00    +0.000 A 
ATOM     12  C   UNL     1       6.064   6.311  18.104  0.00  0.00    +0.000 A 
ATOM     13  C   UNL     1       4.957   5.436  18.023  0.00  0.00    +0.000 A 
ATOM     14  C   UNL     1       4.926   4.478  16.980  0.00  0.00    +0.000 A 
BRANCH   9  16
ATOM     15  C   UNL     1       6.174   3.904  13.780  0.00  0.00    +0.000 C 
ATOM     16  O   UNL     1       6.056   3.424  15.120  0.00  0.00    +0.000 OA
ENDBRANCH   9  16
BRANCH  14  17
ATOM     17  O   UNL     1       3.759   3.774  16.827  0.00  0.00    +0.000 OA
ATOM     18  C   UNL     1       3.557   2.586  17.586  0.00  0.00    +0.000 C 
ENDBRANCH  14  17
ENDBRANCH   1  13
BRANCH   6  19
ATOM     19  C   UNL     1       0.244   9.298  18.411  0.00  0.00    +0.000 C 
BRANCH  19  20
ATOM     20  C   UNL     1      -0.683  10.406  18.846  0.00  0.00    +0.000 A 
ATOM     21  C   UNL     1      -0.324  11.246  19.913  0.00  0.00    +0.000 A 
ATOM     22  C   UNL     1      -1.187  12.249  20.351  0.00  0.00    +0.000 A 
ATOM     23  C   UNL     1      -2.407  12.447  19.701  0.00  0.00    +0.000 A 
ATOM     24  C   UNL     1      -2.760  11.645  18.617  0.00  0.00    +0.000 A 
ATOM     25  C   UNL     1      -1.927  10.587  18.227  0.00  0.00    +0.000 A 
BRANCH  24  26
ATOM     26  O   UNL     1      -3.980  11.920  18.037  0.00  0.00    +0.000 OA
BRANCH  26  27
ATOM     27  C   UNL     1      -5.138  11.689  18.743  0.00  0.00    +0.000 A 
ATOM     28  C   UNL     1      -5.709  10.424  18.570  0.00  0.00    +0.000 A 
ATOM     29  C   UNL     1      -6.897  10.093  19.226  0.00  0.00    +0.000 A 
ATOM     30  C   UNL     1      -7.516  11.025  20.057  0.00  0.00    +0.000 A 
ATOM     31  C   UNL     1      -6.928  12.271  20.262  0.00  0.00    +0.000 A 
ATOM     32  C   UNL     1      -5.726  12.591  19.631  0.00  0.00    +0.000 A 
ENDBRANCH  26  27
ENDBRANCH  24  26
ENDBRANCH  19  20
ENDBRANCH   6  19
TORSDOF 7
ENDMDL
MODEL 4
REMARK VINA RESULT:      -7.3      2.445     10.636
REMARK  Name = 
REMARK  9 active torsions:
REMARK  status: ('A' for Active; 'I' for Inactive)
REMARK    1  A    between atoms: C_1  and  O_2
REMARK    2  A    between atoms: O_2  and  C_3
REMARK    3  A    between atoms: C_7  and  C_8
REMARK    4  A    between atoms: N_13  and  C_14
REMARK    5  A    between atoms: C_14  and  C_15
REMARK    6  A    between atoms: C_19  and  O_20
REMARK    7  A    between atoms: O_20  and  C_21
REMARK    8  A    between atoms: C_30  and  O_31
REMARK    9  A    between atoms: O_31  and  C_32
REMARK                            x       y       z     vdW  Elec       q    Type
REMARK                         _______ _______ _______ _____ _____    ______ ____
ROOT
ATOM      1  C   UNL     1       2.089   7.249  19.116  0.00  0.00    +0.000 C 
ATOM      2  O   UNL     1       2.348   7.495  17.932  0.00  0.00    +0.000 OA
ATOM      3  N   UNL     1       1.654   8.277  19.954  0.00  0.00    +0.000 N 
ATOM      4  C   UNL     1       1.373   9.602  19.375  0.00  0.00    +0.000 C 
ATOM      5  C   UNL     1      -0.074  10.069  19.674  0.00  0.00    +0.000 C 
ATOM      6  N   UNL     1      -0.518   9.937  21.087  0.00  0.00    +0.000 NA
ATOM      7  C   UNL     1      -0.173   8.566  21.553  0.00  0.00    +0.000 C 
ATOM      8  C   UNL     1       1.323   8.208  21.371  0.00  0.00    +0.000 C 
ENDROOT
BRANCH   1  13
ATOM      9  C   UNL     1       3.648   3.821  20.057  0.00  0.00    +0.000 A 
ATOM     10  C   UNL     1       2.547   3.286  20.741  0.00  0.00    +0.000 A 
ATOM     11  C   UNL     1       1.347   3.974  20.795  0.00  0.00    +0.000 A 
ATOM     12  C   UNL     1       1.248   5.218  20.181  0.00  0.00    +0.000 A 
ATOM     13  C   UNL     1       2.356   5.831  19.552  0.00  0.00    +0.000 A 
ATOM     14  C   UNL     1       3.588   5.134  19.523  0.00  0.00    +0.000 A 
BRANCH   9  16
ATOM     15  C   UNL     1       4.750   1.752  20.442  0.00  0.00    +0.000 C 
ATOM     16  O   UNL     1       4.817   3.104  19.990  0.00  0.00    +0.000 OA
ENDBRANCH   9  16
BRANCH  14  17
ATOM     17  O   UNL     1       4.678   5.832  19.068  0.00  0.00    +0.000 OA
ATOM     18  C   UNL     1       5.312   5.426  17.859  0.00  0.00    +0.000 C 
ENDBRANCH  14  17
ENDBRANCH   1  13
BRANCH   6  19
ATOM     19  C   UNL     1       0.069  10.936  21.998  0.00  0.00    +0.000 C 
BRANCH  19  20
ATOM     20  C   UNL     1      -0.898  11.958  22.543  0.00  0.00    +0.000 A 
ATOM     21  C   UNL     1      -0.548  13.319  22.559  0.00  0.00    +0.000 A 
ATOM     22  C   UNL     1      -1.414  14.270  23.095  0.00  0.00    +0.000 A 
ATOM     23  C   UNL     1      -2.658  13.875  23.589  0.00  0.00    +0.000 A 
ATOM     24  C   UNL     1      -3.034  12.533  23.547  0.00  0.00    +0.000 A 
ATOM     25  C   UNL     1      -2.131  11.568  23.080  0.00  0.00    +0.000 A 
BRANCH  24  26
ATOM     26  O   UNL     1      -4.282  12.241  24.055  0.00  0.00    +0.000 OA
BRANCH  26  27
ATOM     27  C   UNL     1      -5.406  12.624  23.362  0.00  0.00    +0.000 A 
ATOM     28  C   UNL     1      -6.568  12.768  24.129  0.00  0.00    +0.000 A 
ATOM     29  C   UNL     1      -7.771  13.135  23.520  0.00  0.00    +0.000 A 
ATOM     30  C   UNL     1      -7.815  13.360  22.145  0.00  0.00    +0.000 A 
ATOM     31  C   UNL     1      -6.651  13.256  21.386  0.00  0.00    +0.000 A 
ATOM     32  C   UNL     1      -5.444  12.919  21.999  0.00  0.00    +0.000 A 
ENDBRANCH  26  27
ENDBRANCH  24  26
ENDBRANCH  19  20
ENDBRANCH   6  19
TORSDOF 7
ENDMDL
MODEL 5
REMARK VINA RESULT:      -7.2      1.988     10.526
REMARK  Name = 
REMARK  9 active torsions:
REMARK  status: ('A' for Active; 'I' for Inactive)
REMARK    1  A    between atoms: C_1  and  O_2
REMARK    2  A    between atoms: O_2  and  C_3
REMARK    3  A    between atoms: C_7  and  C_8
REMARK    4  A    between atoms: N_13  and  C_14
REMARK    5  A    between atoms: C_14  and  C_15
REMARK    6  A    between atoms: C_19  and  O_20
REMARK    7  A    between atoms: O_20  and  C_21
REMARK    8  A    between atoms: C_30  and  O_31
REMARK    9  A    between atoms: O_31  and  C_32
REMARK                            x       y       z     vdW  Elec       q    Type
REMARK                         _______ _______ _______ _____ _____    ______ ____
ROOT
ATOM      1  C   UNL     1       3.854   5.769  19.027  0.00  0.00    +0.000 C 
ATOM      2  O   UNL     1       3.889   5.151  20.098  0.00  0.00    +0.000 OA
ATOM      3  N   UNL     1       2.791   6.635  18.767  0.00  0.00    +0.000 N 
ATOM      4  C   UNL     1       1.810   6.905  19.832  0.00  0.00    +0.000 C 
ATOM      5  C   UNL     1       1.689   8.420  20.137  0.00  0.00    +0.000 C 
ATOM      6  N   UNL     1       1.535   9.307  18.955  0.00  0.00    +0.000 NA
ATOM      7  C   UNL     1       2.573   8.931  17.955  0.00  0.00    +0.000 C 
ATOM      8  C   UNL     1       2.546   7.430  17.571  0.00  0.00    +0.000 C 
ENDROOT
BRANCH   1  13
ATOM      9  C   UNL     1       6.079   4.393  16.159  0.00  0.00    +0.000 A 
ATOM     10  C   UNL     1       7.116   5.331  16.249  0.00  0.00    +0.000 A 
ATOM     11  C   UNL     1       7.121   6.285  17.252  0.00  0.00    +0.000 A 
ATOM     12  C   UNL     1       6.070   6.319  18.163  0.00  0.00    +0.000 A 
ATOM     13  C   UNL     1       4.964   5.445  18.061  0.00  0.00    +0.000 A 
ATOM     14  C   UNL     1       4.951   4.489  17.017  0.00  0.00    +0.000 A 
BRANCH   9  16
ATOM     15  C   UNL     1       5.990   3.912  13.835  0.00  0.00    +0.000 C 
ATOM     16  O   UNL     1       6.113   3.436  15.175  0.00  0.00    +0.000 OA
ENDBRANCH   9  16
BRANCH  14  17
ATOM     17  O   UNL     1       3.786   3.786  16.842  0.00  0.00    +0.000 OA
ATOM     18  C   UNL     1       3.563   2.605  17.605  0.00  0.00    +0.000 C 
ENDBRANCH  14  17
ENDBRANCH   1  13
BRANCH   6  19
ATOM     19  C   UNL     1       0.200   9.254  18.332  0.00  0.00    +0.000 C 
BRANCH  19  20
ATOM     20  C   UNL     1      -0.762  10.329  18.775  0.00  0.00    +0.000 A 
ATOM     21  C   UNL     1      -1.962  10.531  18.075  0.00  0.00    +0.000 A 
ATOM     22  C   UNL     1      -2.843  11.545  18.447  0.00  0.00    +0.000 A 
ATOM     23  C   UNL     1      -2.548  12.347  19.551  0.00  0.00    +0.000 A 
ATOM     24  C   UNL     1      -1.378  12.136  20.278  0.00  0.00    +0.000 A 
ATOM     25  C   UNL     1      -0.456  11.167  19.855  0.00  0.00    +0.000 A 
BRANCH  24  26
ATOM     26  O   UNL     1      -1.176  12.975  21.353  0.00  0.00    +0.000 OA
BRANCH  26  27
ATOM     27  C   UNL     1      -2.153  13.103  22.311  0.00  0.00    +0.000 A 
ATOM     28  C   UNL     1      -2.714  14.379  22.435  0.00  0.00    +0.000 A 
ATOM     29  C   UNL     1      -3.702  14.623  23.392  0.00  0.00    +0.000 A 
ATOM     30  C   UNL     1      -4.133  13.593  24.226  0.00  0.00    +0.000 A 
ATOM     31  C   UNL     1      -3.605  12.312  24.077  0.00  0.00    +0.000 A 
ATOM     32  C   UNL     1      -2.640  12.061  23.101  0.00  0.00    +0.000 A 
ENDBRANCH  26  27
ENDBRANCH  24  26
ENDBRANCH  19  20
ENDBRANCH   6  19
TORSDOF 7
ENDMDL
MODEL 6
REMARK VINA RESULT:      -7.1      1.860      3.740
REMARK  Name = 
REMARK  9 active torsions:
REMARK  status: ('A' for Active; 'I' for Inactive)
REMARK    1  A    between atoms: C_1  and  O_2
REMARK    2  A    between atoms: O_2  and  C_3
REMARK    3  A    between atoms: C_7  and  C_8
REMARK    4  A    between atoms: N_13  and  C_14
REMARK    5  A    between atoms: C_14  and  C_15
REMARK    6  A    between atoms: C_19  and  O_20
REMARK    7  A    between atoms: O_20  and  C_21
REMARK    8  A    between atoms: C_30  and  O_31
REMARK    9  A    between atoms: O_31  and  C_32
REMARK                            x       y       z     vdW  Elec       q    Type
REMARK                         _______ _______ _______ _____ _____    ______ ____
ROOT
ATOM      1  C   UNL     1       0.312  10.746  21.436  0.00  0.00    +0.000 C 
ATOM      2  O   UNL     1       0.217  10.257  22.569  0.00  0.00    +0.000 OA
ATOM      3  N   UNL     1       1.163  10.155  20.501  0.00  0.00    +0.000 N 
ATOM      4  C   UNL     1       1.820   8.879  20.835  0.00  0.00    +0.000 C 
ATOM      5  C   UNL     1       1.506   7.777  19.791  0.00  0.00    +0.000 C 
ATOM      6  N   UNL     1       1.671   8.169  18.367  0.00  0.00    +0.000 NA
ATOM      7  C   UNL     1       0.973   9.469  18.162  0.00  0.00    +0.000 C 
ATOM      8  C   UNL     1       1.438  10.581  19.135  0.00  0.00    +0.000 C 
ENDROOT
BRANCH   1  13
ATOM      9  C   UNL     1      -0.906  14.410  21.042  0.00  0.00    +0.000 A 
ATOM     10  C   UNL     1      -2.125  14.144  20.404  0.00  0.00    +0.000 A 
ATOM     11  C   UNL     1      -2.552  12.841  20.212  0.00  0.00    +0.000 A 
ATOM     12  C   UNL     1      -1.746  11.791  20.641  0.00  0.00    +0.000 A 
ATOM     13  C   UNL     1      -0.473  12.013  21.215  0.00  0.00    +0.000 A 
ATOM     14  C   UNL     1      -0.030  13.347  21.383  0.00  0.00    +0.000 A 
BRANCH   9  16
ATOM     15  C   UNL     1      -0.902  16.287  22.498  0.00  0.00    +0.000 C 
ATOM     16  O   UNL     1      -0.520  15.711  21.249  0.00  0.00    +0.000 OA
ENDBRANCH   9  16
BRANCH  14  17
ATOM     17  O   UNL     1       1.275  13.516  21.772  0.00  0.00    +0.000 OA
ATOM     18  C   UNL     1       2.269  13.771  20.785  0.00  0.00    +0.000 C 
ENDBRANCH  14  17
ENDBRANCH   1  13
BRANCH   6  19
ATOM     19  C   UNL     1       3.074   8.282  17.932  0.00  0.00    +0.000 C 
BRANCH  19  20
ATOM     20  C   UNL     1       3.704   7.001  17.446  0.00  0.00    +0.000 A 
ATOM     21  C   UNL     1       4.761   7.042  16.522  0.00  0.00    +0.000 A 
ATOM     22  C   UNL     1       5.327   5.866  16.034  0.00  0.00    +0.000 A 
ATOM     23  C   UNL     1       4.865   4.631  16.493  0.00  0.00    +0.000 A 
ATOM     24  C   UNL     1       3.841   4.574  17.438  0.00  0.00    +0.000 A 
ATOM     25  C   UNL     1       3.220   5.755  17.868  0.00  0.00    +0.000 A 
BRANCH  24  26
ATOM     26  O   UNL     1       3.455   3.312  17.834  0.00  0.00    +0.000 OA
BRANCH  26  27
ATOM     27  C   UNL     1       2.699   3.156  18.971  0.00  0.00    +0.000 A 
ATOM     28  C   UNL     1       3.417   2.903  20.144  0.00  0.00    +0.000 A 
ATOM     29  C   UNL     1       2.744   2.708  21.353  0.00  0.00    +0.000 A 
ATOM     30  C   UNL     1       1.352   2.767  21.391  0.00  0.00    +0.000 A 
ATOM     31  C   UNL     1       0.636   3.059  20.231  0.00  0.00    +0.000 A 
ATOM     32  C   UNL     1       1.310   3.282  19.031  0.00  0.00    +0.000 A 
ENDBRANCH  26  27
ENDBRANCH  24  26
ENDBRANCH  19  20
ENDBRANCH   6  19
TORSDOF 7
ENDMDL
MODEL 7
REMARK VINA RESULT:      -7.0      2.841      4.853
REMARK  Name = 
REMARK  9 active torsions:
REMARK  status: ('A' for Active; 'I' for Inactive)
REMARK    1  A    between atoms: C_1  and  O_2
REMARK    2  A    between atoms: O_2  and  C_3
REMARK    3  A    between atoms: C_7  and  C_8
REMARK    4  A    between atoms: N_13  and  C_14
REMARK    5  A    between atoms: C_14  and  C_15
REMARK    6  A    between atoms: C_19  and  O_20
REMARK    7  A    between atoms: O_20  and  C_21
REMARK    8  A    between atoms: C_30  and  O_31
REMARK    9  A    between atoms: O_31  and  C_32
REMARK                            x       y       z     vdW  Elec       q    Type
REMARK                         _______ _______ _______ _____ _____    ______ ____
ROOT
ATOM      1  C   UNL     1      -2.924  14.274  21.692  0.00  0.00    +0.000 C 
ATOM      2  O   UNL     1      -3.900  14.500  20.966  0.00  0.00    +0.000 OA
ATOM      3  N   UNL     1      -2.149  13.135  21.468  0.00  0.00    +0.000 N 
ATOM      4  C   UNL     1      -2.422  12.304  20.283  0.00  0.00    +0.000 C 
ATOM      5  C   UNL     1      -1.166  12.140  19.390  0.00  0.00    +0.000 C 
ATOM      6  N   UNL     1       0.086  11.765  20.097  0.00  0.00    +0.000 NA
ATOM      7  C   UNL     1       0.243  12.668  21.271  0.00  0.00    +0.000 C 
ATOM      8  C   UNL     1      -0.985  12.675  22.215  0.00  0.00    +0.000 C 
ENDROOT
BRANCH   1  13
ATOM      9  C   UNL     1      -1.964  17.272  23.964  0.00  0.00    +0.000 A 
ATOM     10  C   UNL     1      -2.832  16.995  25.030  0.00  0.00    +0.000 A 
ATOM     11  C   UNL     1      -3.602  15.845  25.033  0.00  0.00    +0.000 A 
ATOM     12  C   UNL     1      -3.524  14.970  23.954  0.00  0.00    +0.000 A 
ATOM     13  C   UNL     1      -2.724  15.250  22.822  0.00  0.00    +0.000 A 
ATOM     14  C   UNL     1      -1.960  16.442  22.812  0.00  0.00    +0.000 A 
BRANCH   9  16
ATOM     15  C   UNL     1       0.059  18.285  24.684  0.00  0.00    +0.000 C 
ATOM     16  O   UNL     1      -1.187  18.402  23.999  0.00  0.00    +0.000 OA
ENDBRANCH   9  16
BRANCH  14  17
ATOM     17  O   UNL     1      -1.343  16.766  21.630  0.00  0.00    +0.000 OA
ATOM     18  C   UNL     1       0.020  16.405  21.433  0.00  0.00    +0.000 C 
ENDBRANCH  14  17
ENDBRANCH   1  13
BRANCH   6  19
ATOM     19  C   UNL     1       0.131  10.360  20.539  0.00  0.00    +0.000 C 
BRANCH  19  20
ATOM     20  C   UNL     1       1.014   9.453  19.720  0.00  0.00    +0.000 A 
ATOM     21  C   UNL     1       1.366   9.810  18.407  0.00  0.00    +0.000 A 
ATOM     22  C   UNL     1       2.149   8.964  17.624  0.00  0.00    +0.000 A 
ATOM     23  C   UNL     1       2.621   7.764  18.159  0.00  0.00    +0.000 A 
ATOM     24  C   UNL     1       2.310   7.412  19.472  0.00  0.00    +0.000 A 
ATOM     25  C   UNL     1       1.459   8.227  20.232  0.00  0.00    +0.000 A 
BRANCH  24  26
ATOM     26  O   UNL     1       2.825   6.212  19.912  0.00  0.00    +0.000 OA
BRANCH  26  27
ATOM     27  C   UNL     1       2.169   5.040  19.616  0.00  0.00    +0.000 A 
ATOM     28  C   UNL     1       1.645   4.348  20.714  0.00  0.00    +0.000 A 
ATOM     29  C   UNL     1       0.978   3.135  20.526  0.00  0.00    +0.000 A 
ATOM     30  C   UNL     1       0.831   2.613  19.243  0.00  0.00    +0.000 A 
ATOM     31  C   UNL     1       1.317   3.320  18.145  0.00  0.00    +0.000 A 
ATOM     32  C   UNL     1       1.957   4.545  18.329  0.00  0.00    +0.000 A 
ENDBRANCH  26  27
ENDBRANCH  24  26
ENDBRANCH  19  20
ENDBRANCH   6  19
TORSDOF 7
ENDMDL
MODEL 8
REMARK VINA RESULT:      -7.0      2.389      4.698
REMARK  Name = 
REMARK  9 active torsions:
REMARK  status: ('A' for Active; 'I' for Inactive)
REMARK    1  A    between atoms: C_1  and  O_2
REMARK    2  A    between atoms: O_2  and  C_3
REMARK    3  A    between atoms: C_7  and  C_8
REMARK    4  A    between atoms: N_13  and  C_14
REMARK    5  A    between atoms: C_14  and  C_15
REMARK    6  A    between atoms: C_19  and  O_20
REMARK    7  A    between atoms: O_20  and  C_21
REMARK    8  A    between atoms: C_30  and  O_31
REMARK    9  A    between atoms: O_31  and  C_32
REMARK                            x       y       z     vdW  Elec       q    Type
REMARK                         _______ _______ _______ _____ _____    ______ ____
ROOT
ATOM      1  C   UNL     1      -1.595  14.168  21.106  0.00  0.00    +0.000 C 
ATOM      2  O   UNL     1      -1.313  15.156  20.417  0.00  0.00    +0.000 OA
ATOM      3  N   UNL     1      -1.166  12.903  20.703  0.00  0.00    +0.000 N 
ATOM      4  C   UNL     1      -0.263  12.788  19.545  0.00  0.00    +0.000 C 
ATOM      5  C   UNL     1       1.048  12.042  19.905  0.00  0.00    +0.000 C 
ATOM      6  N   UNL     1       0.883  10.768  20.653  0.00  0.00    +0.000 NA
ATOM      7  C   UNL     1      -0.051  11.014  21.786  0.00  0.00    +0.000 C 
ATOM      8  C   UNL     1      -1.409  11.619  21.348  0.00  0.00    +0.000 C 
ENDROOT
BRANCH   1  13
ATOM      9  C   UNL     1      -4.484  14.476  23.681  0.00  0.00    +0.000 A 
ATOM     10  C   UNL     1      -3.710  14.798  24.805  0.00  0.00    +0.000 A 
ATOM     11  C   UNL     1      -2.345  14.996  24.690  0.00  0.00    +0.000 A 
ATOM     12  C   UNL     1      -1.739  14.850  23.446  0.00  0.00    +0.000 A 
ATOM     13  C   UNL     1      -2.467  14.446  22.303  0.00  0.00    +0.000 A 
ATOM     14  C   UNL     1      -3.858  14.219  22.433  0.00  0.00    +0.000 A 
BRANCH   9  16
ATOM     15  C   UNL     1      -6.288  12.998  24.131  0.00  0.00    +0.000 C 
ATOM     16  O   UNL     1      -5.840  14.316  23.815  0.00  0.00    +0.000 OA
ENDBRANCH   9  16
BRANCH  14  17
ATOM     17  O   UNL     1      -4.492  13.657  21.354  0.00  0.00    +0.000 OA
ATOM     18  C   UNL     1      -5.248  14.488  20.478  0.00  0.00    +0.000 C 
ENDBRANCH  14  17
ENDBRANCH   1  13
BRANCH   6  19
ATOM     19  C   UNL     1       0.388   9.649  19.833  0.00  0.00    +0.000 C 
BRANCH  19  20
ATOM     20  C   UNL     1       1.455   8.773  19.224  0.00  0.00    +0.000 A 
ATOM     21  C   UNL     1       2.041   9.126  17.997  0.00  0.00    +0.000 A 
ATOM     22  C   UNL     1       3.000   8.308  17.404  0.00  0.00    +0.000 A 
ATOM     23  C   UNL     1       3.412   7.141  18.050  0.00  0.00    +0.000 A 
ATOM     24  C   UNL     1       2.866   6.795  19.285  0.00  0.00    +0.000 A 
ATOM     25  C   UNL     1       1.845   7.578  19.844  0.00  0.00    +0.000 A 
BRANCH  24  26
ATOM     26  O   UNL     1       3.337   5.628  19.847  0.00  0.00    +0.000 OA
BRANCH  26  27
ATOM     27  C   UNL     1       2.593   4.476  19.751  0.00  0.00    +0.000 A 
ATOM     28  C   UNL     1       2.055   4.003  20.953  0.00  0.00    +0.000 A 
ATOM     29  C   UNL     1       1.299   2.828  20.971  0.00  0.00    +0.000 A 
ATOM     30  C   UNL     1       1.079   2.125  19.788  0.00  0.00    +0.000 A 
ATOM     31  C   UNL     1       1.580   2.616  18.584  0.00  0.00    +0.000 A 
ATOM     32  C   UNL     1       2.310   3.804  18.562  0.00  0.00    +0.000 A 
ENDBRANCH  26  27
ENDBRANCH  24  26
ENDBRANCH  19  20
ENDBRANCH   6  19
TORSDOF 7
ENDMDL
MODEL 9
REMARK VINA RESULT:      -7.0      2.325     10.168
REMARK  Name = 
REMARK  9 active torsions:
REMARK  status: ('A' for Active; 'I' for Inactive)
REMARK    1  A    between atoms: C_1  and  O_2
REMARK    2  A    between atoms: O_2  and  C_3
REMARK    3  A    between atoms: C_7  and  C_8
REMARK    4  A    between atoms: N_13  and  C_14
REMARK    5  A    between atoms: C_14  and  C_15
REMARK    6  A    between atoms: C_19  and  O_20
REMARK    7  A    between atoms: O_20  and  C_21
REMARK    8  A    between atoms: C_30  and  O_31
REMARK    9  A    between atoms: O_31  and  C_32
REMARK                            x       y       z     vdW  Elec       q    Type
REMARK                         _______ _______ _______ _____ _____    ______ ____
ROOT
ATOM      1  C   UNL     1       2.257   7.358  19.072  0.00  0.00    +0.000 C 
ATOM      2  O   UNL     1       2.671   7.630  17.938  0.00  0.00    +0.000 OA
ATOM      3  N   UNL     1       1.679   8.361  19.852  0.00  0.00    +0.000 N 
ATOM      4  C   UNL     1       1.441   9.686  19.254  0.00  0.00    +0.000 C 
ATOM      5  C   UNL     1      -0.047  10.107  19.354  0.00  0.00    +0.000 C 
ATOM      6  N   UNL     1      -0.678   9.941  20.690  0.00  0.00    +0.000 NA
ATOM      7  C   UNL     1      -0.360   8.573  21.185  0.00  0.00    +0.000 C 
ATOM      8  C   UNL     1       1.157   8.260  21.209  0.00  0.00    +0.000 C 
ENDROOT
BRANCH   1  13
ATOM      9  C   UNL     1       3.752   3.889  19.967  0.00  0.00    +0.000 A 
ATOM     10  C   UNL     1       2.701   3.425  20.771  0.00  0.00    +0.000 A 
ATOM     11  C   UNL     1       1.544   4.169  20.920  0.00  0.00    +0.000 A 
ATOM     12  C   UNL     1       1.439   5.399  20.278  0.00  0.00    +0.000 A 
ATOM     13  C   UNL     1       2.505   5.942  19.525  0.00  0.00    +0.000 A 
ATOM     14  C   UNL     1       3.697   5.189  19.399  0.00  0.00    +0.000 A 
BRANCH   9  16
ATOM     15  C   UNL     1       4.762   1.754  20.215  0.00  0.00    +0.000 C 
ATOM     16  O   UNL     1       4.876   3.118  19.809  0.00  0.00    +0.000 OA
ENDBRANCH   9  16
BRANCH  14  17
ATOM     17  O   UNL     1       4.765   5.823  18.818  0.00  0.00    +0.000 OA
ATOM     18  C   UNL     1       5.183   5.433  17.513  0.00  0.00    +0.000 C 
ENDBRANCH  14  17
ENDBRANCH   1  13
BRANCH   6  19
ATOM     19  C   UNL     1      -0.255  10.942  21.685  0.00  0.00    +0.000 C 
BRANCH  19  20
ATOM     20  C   UNL     1      -1.231  12.067  21.923  0.00  0.00    +0.000 A 
ATOM     21  C   UNL     1      -1.094  12.890  23.053  0.00  0.00    +0.000 A 
ATOM     22  C   UNL     1      -2.010  13.909  23.307  0.00  0.00    +0.000 A 
ATOM     23  C   UNL     1      -3.057  14.140  22.413  0.00  0.00    +0.000 A 
ATOM     24  C   UNL     1      -3.186  13.354  21.269  0.00  0.00    +0.000 A 
ATOM     25  C   UNL     1      -2.310  12.281  21.054  0.00  0.00    +0.000 A 
BRANCH  24  26
ATOM     26  O   UNL     1      -4.247  13.660  20.444  0.00  0.00    +0.000 OA
BRANCH  26  27
ATOM     27  C   UNL     1      -5.057  12.653  19.974  0.00  0.00    +0.000 A 
ATOM     28  C   UNL     1      -6.061  12.227  20.851  0.00  0.00    +0.000 A 
ATOM     29  C   UNL     1      -6.927  11.196  20.480  0.00  0.00    +0.000 A 
ATOM     30  C   UNL     1      -6.793  10.589  19.232  0.00  0.00    +0.000 A 
ATOM     31  C   UNL     1      -5.819  11.039  18.342  0.00  0.00    +0.000 A 
ATOM     32  C   UNL     1      -4.974  12.088  18.701  0.00  0.00    +0.000 A 
ENDBRANCH  26  27
ENDBRANCH  24  26
ENDBRANCH  19  20
ENDBRANCH   6  19
TORSDOF 7
ENDMDL
