MODEL 1
REMARK VINA RESULT:      -7.4      0.000      0.000
REMARK  Name = 
REMARK  8 active torsions:
REMARK  status: ('A' for Active; 'I' for Inactive)
REMARK    1  A    between atoms: C_1  and  O_2
REMARK    2  A    between atoms: O_2  and  C_3
REMARK    3  A    between atoms: C_6  and  C_7
REMARK    4  A    between atoms: C_10  and  S_11
REMARK    5  A    between atoms: S_11  and  C_12
REMARK    6  A    between atoms: C_12  and  C_13
REMARK    7  A    between atoms: C_24  and  O_25
REMARK    8  A    between atoms: O_25  and  C_26
REMARK                            x       y       z     vdW  Elec       q    Type
REMARK                         _______ _______ _______ _____ _____    ______ ____
ROOT
ATOM      1  C   UNL     1       8.149   8.436  18.164  0.00  0.00    +0.000 A 
ATOM      2  C   UNL     1       8.360   7.331  18.977  0.00  0.00    +0.000 A 
ATOM      3  C   UNL     1       7.888   6.079  18.577  0.00  0.00    +0.000 A 
ATOM      4  C   UNL     1       7.211   5.985  17.373  0.00  0.00    +0.000 A 
ATOM      5  N   UNL     1       6.970   7.077  16.621  0.00  0.00    +0.000 NA
ATOM      6  N   UNL     1       7.458   8.296  17.006  0.00  0.00    +0.000 NA
ENDROOT
BRANCH   1  10
ATOM      7  C   UNL     1       9.750  12.374  18.913  0.00  0.00    +0.000 A 
ATOM      8  C   UNL     1      10.107  11.287  19.720  0.00  0.00    +0.000 A 
ATOM      9  C   UNL     1       9.588  10.011  19.470  0.00  0.00    +0.000 A 
ATOM     10  C   UNL     1       8.648   9.793  18.459  0.00  0.00    +0.000 A 
ATOM     11  C   UNL     1       8.214  10.919  17.743  0.00  0.00    +0.000 A 
ATOM     12  C   UNL     1       8.743  12.204  17.955  0.00  0.00    +0.000 A 
BRANCH   7  14
ATOM     13  C   UNL     1      10.104  14.245  20.303  0.00  0.00    +0.000 C 
ATOM     14  O   UNL     1      10.376  13.582  19.063  0.00  0.00    +0.000 OA
ENDBRANCH   7  14
BRANCH  12  15
ATOM     15  O   UNL     1       8.169  13.125  17.120  0.00  0.00    +0.000 OA
ATOM     16  C   UNL     1       7.197  14.023  17.629  0.00  0.00    +0.000 C 
ENDBRANCH  12  15
ENDBRANCH   1  10
BRANCH   4  17
ATOM     17  S   UNL     1       6.700   4.407  16.740  0.00  0.00    +0.000 S 
BRANCH  17  18
ATOM     18  C   UNL     1       5.015   4.811  16.149  0.00  0.00    +0.000 C 
BRANCH  18  19
ATOM     19  C   UNL     1       4.075   5.082  17.313  0.00  0.00    +0.000 C 
ATOM     20  O   UNL     1       3.661   6.223  17.519  0.00  0.00    +0.000 OA
ATOM     21  N   UNL     1       3.795   3.960  18.069  0.00  0.00    +0.000 N 
ATOM     22  C   UNL     1       3.031   4.043  19.199  0.00  0.00    +0.000 A 
ATOM     23  N   UNL     1       2.220   4.995  19.573  0.00  0.00    +0.000 NA
ATOM     24  C   UNL     1       1.736   4.716  20.833  0.00  0.00    +0.000 A 
ATOM     25  C   UNL     1       2.194   3.545  21.399  0.00  0.00    +0.000 A 
ATOM     26  S   UNL     1       3.201   2.729  20.273  0.00  0.00    +0.000 S 
ATOM     27  H   UNL     1       4.363   3.121  17.968  0.00  0.00    +0.000 HD
ENDBRANCH  18  19
ENDBRANCH  17  18
ENDBRANCH   4  17
TORSDOF 6
ENDMDL
MODEL 2
REMARK VINA RESULT:      -7.3      6.784      9.439
REMARK  Name = 
REMARK  8 active torsions:
REMARK  status: ('A' for Active; 'I' for Inactive)
REMARK    1  A    between atoms: C_1  and  O_2
REMARK    2  A    between atoms: O_2  and  C_3
REMARK    3  A    between atoms: C_6  and  C_7
REMARK    4  A    between atoms: C_10  and  S_11
REMARK    5  A    between atoms: S_11  and  C_12
REMARK    6  A    between atoms: C_12  and  C_13
REMARK    7  A    between atoms: C_24  and  O_25
REMARK    8  A    between atoms: O_25  and  C_26
REMARK                            x       y       z     vdW  Elec       q    Type
REMARK                         _______ _______ _______ _____ _____    ______ ____
ROOT
ATOM      1  C   UNL     1       2.210   7.986  18.692  0.00  0.00    +0.000 A 
ATOM      2  C   UNL     1       1.696   8.916  17.801  0.00  0.00    +0.000 A 
ATOM      3  C   UNL     1       0.807   9.893  18.258  0.00  0.00    +0.000 A 
ATOM      4  C   UNL     1       0.461   9.891  19.598  0.00  0.00    +0.000 A 
ATOM      5  N   UNL     1       0.930   8.948  20.440  0.00  0.00    +0.000 NA
ATOM      6  N   UNL     1       1.820   8.011  19.991  0.00  0.00    +0.000 NA
ENDROOT
BRANCH   1  10
ATOM      7  C   UNL     1       5.213   5.032  17.747  0.00  0.00    +0.000 A 
ATOM      8  C   UNL     1       5.038   6.164  16.941  0.00  0.00    +0.000 A 
ATOM      9  C   UNL     1       4.065   7.121  17.255  0.00  0.00    +0.000 A 
ATOM     10  C   UNL     1       3.194   6.946  18.333  0.00  0.00    +0.000 A 
ATOM     11  C   UNL     1       3.308   5.747  19.053  0.00  0.00    +0.000 A 
ATOM     12  C   UNL     1       4.297   4.786  18.776  0.00  0.00    +0.000 A 
BRANCH   7  14
ATOM     13  C   UNL     1       7.555   4.759  17.747  0.00  0.00    +0.000 C 
ATOM     14  O   UNL     1       6.263   4.182  17.527  0.00  0.00    +0.000 OA
ENDBRANCH   7  14
BRANCH  12  15
ATOM     15  O   UNL     1       4.209   3.719  19.629  0.00  0.00    +0.000 OA
ATOM     16  C   UNL     1       3.599   2.517  19.187  0.00  0.00    +0.000 C 
ENDBRANCH  12  15
ENDBRANCH   1  10
BRANCH   4  17
ATOM     17  S   UNL     1      -0.557  11.179  20.275  0.00  0.00    +0.000 S 
BRANCH  17  18
ATOM     18  C   UNL     1      -1.215  11.928  18.740  0.00  0.00    +0.000 C 
BRANCH  18  19
ATOM     19  C   UNL     1      -2.637  11.462  18.466  0.00  0.00    +0.000 C 
ATOM     20  O   UNL     1      -2.840  10.526  17.692  0.00  0.00    +0.000 OA
ATOM     21  N   UNL     1      -3.598  12.197  19.133  0.00  0.00    +0.000 N 
ATOM     22  C   UNL     1      -4.929  11.962  18.936  0.00  0.00    +0.000 A 
ATOM     23  N   UNL     1      -5.509  10.913  18.421  0.00  0.00    +0.000 NA
ATOM     24  C   UNL     1      -6.864  11.145  18.316  0.00  0.00    +0.000 A 
ATOM     25  C   UNL     1      -7.291  12.378  18.757  0.00  0.00    +0.000 A 
ATOM     26  S   UNL     1      -5.955  13.242  19.403  0.00  0.00    +0.000 S 
ATOM     27  H   UNL     1      -3.353  13.091  19.558  0.00  0.00    +0.000 HD
ENDBRANCH  18  19
ENDBRANCH  17  18
ENDBRANCH   4  17
TORSDOF 6
ENDMDL
MODEL 3
REMARK VINA RESULT:      -7.2      4.922      7.723
REMARK  Name = 
REMARK  8 active torsions:
REMARK  status: ('A' for Active; 'I' for Inactive)
REMARK    1  A    between atoms: C_1  and  O_2
REMARK    2  A    between atoms: O_2  and  C_3
REMARK    3  A    between atoms: C_6  and  C_7
REMARK    4  A    between atoms: C_10  and  S_11
REMARK    5  A    between atoms: S_11  and  C_12
REMARK    6  A    between atoms: C_12  and  C_13
REMARK    7  A    between atoms: C_24  and  O_25
REMARK    8  A    between atoms: O_25  and  C_26
REMARK                            x       y       z     vdW  Elec       q    Type
REMARK                         _______ _______ _______ _____ _____    ______ ____
ROOT
ATOM      1  C   UNL     1       1.953   8.049  19.337  0.00  0.00    +0.000 A 
ATOM      2  C   UNL     1       2.614   8.177  18.124  0.00  0.00    +0.000 A 
ATOM      3  C   UNL     1       3.479   7.165  17.699  0.00  0.00    +0.000 A 
ATOM      4  C   UNL     1       3.655   6.063  18.518  0.00  0.00    +0.000 A 
ATOM      5  N   UNL     1       3.044   5.980  19.716  0.00  0.00    +0.000 NA
ATOM      6  N   UNL     1       2.178   6.962  20.114  0.00  0.00    +0.000 NA
ENDROOT
BRANCH   1  10
ATOM      7  C   UNL     1      -0.755  11.021  20.907  0.00  0.00    +0.000 A 
ATOM      8  C   UNL     1      -0.245  10.008  21.728  0.00  0.00    +0.000 A 
ATOM      9  C   UNL     1       0.637   9.049  21.214  0.00  0.00    +0.000 A 
ATOM     10  C   UNL     1       0.979   9.027  19.859  0.00  0.00    +0.000 A 
ATOM     11  C   UNL     1       0.359   9.977  19.033  0.00  0.00    +0.000 A 
ATOM     12  C   UNL     1      -0.504  10.968  19.531  0.00  0.00    +0.000 A 
BRANCH   7  14
ATOM     13  C   UNL     1      -0.839  12.753  22.505  0.00  0.00    +0.000 C 
ATOM     14  O   UNL     1      -1.491  12.043  21.445  0.00  0.00    +0.000 OA
ENDBRANCH   7  14
BRANCH  12  15
ATOM     15  O   UNL     1      -0.962  11.781  18.529  0.00  0.00    +0.000 OA
ATOM     16  C   UNL     1      -0.359  13.049  18.325  0.00  0.00    +0.000 C 
ENDBRANCH  12  15
ENDBRANCH   1  10
BRANCH   4  17
ATOM     17  S   UNL     1       4.635   4.682  17.983  0.00  0.00    +0.000 S 
BRANCH  17  18
ATOM     18  C   UNL     1       6.317   5.388  18.125  0.00  0.00    +0.000 C 
BRANCH  18  19
ATOM     19  C   UNL     1       6.929   5.630  16.754  0.00  0.00    +0.000 C 
ATOM     20  O   UNL     1       7.590   6.647  16.545  0.00  0.00    +0.000 OA
ATOM     21  N   UNL     1       6.638   4.638  15.837  0.00  0.00    +0.000 N 
ATOM     22  C   UNL     1       7.042   4.739  14.536  0.00  0.00    +0.000 A 
ATOM     23  N   UNL     1       7.962   5.509  14.020  0.00  0.00    +0.000 NA
ATOM     24  C   UNL     1       7.966   5.362  12.650  0.00  0.00    +0.000 A 
ATOM     25  C   UNL     1       7.041   4.475  12.145  0.00  0.00    +0.000 A 
ATOM     26  S   UNL     1       6.194   3.740  13.445  0.00  0.00    +0.000 S 
ATOM     27  H   UNL     1       5.897   3.966  16.030  0.00  0.00    +0.000 HD
ENDBRANCH  18  19
ENDBRANCH  17  18
ENDBRANCH   4  17
TORSDOF 6
ENDMDL
MODEL 4
REMARK VINA RESULT:      -7.2      6.273      9.085
REMARK  Name = 
REMARK  8 active torsions:
REMARK  status: ('A' for Active; 'I' for Inactive)
REMARK    1  A    between atoms: C_1  and  O_2
REMARK    2  A    between atoms: O_2  and  C_3
REMARK    3  A    between atoms: C_6  and  C_7
REMARK    4  A    between atoms: C_10  and  S_11
REMARK    5  A    between atoms: S_11  and  C_12
REMARK    6  A    between atoms: C_12  and  C_13
REMARK    7  A    between atoms: C_24  and  O_25
REMARK    8  A    between atoms: O_25  and  C_26
REMARK                            x       y       z     vdW  Elec       q    Type
REMARK                         _______ _______ _______ _____ _____    ______ ____
ROOT
ATOM      1  C   UNL     1       2.338   7.220  19.101  0.00  0.00    +0.000 A 
ATOM      2  C   UNL     1       1.949   6.863  20.384  0.00  0.00    +0.000 A 
ATOM      3  C   UNL     1       1.178   7.747  21.144  0.00  0.00    +0.000 A 
ATOM      4  C   UNL     1       0.834   8.965  20.586  0.00  0.00    +0.000 A 
ATOM      5  N   UNL     1       1.263   9.318  19.358  0.00  0.00    +0.000 NA
ATOM      6  N   UNL     1       1.996   8.437  18.609  0.00  0.00    +0.000 NA
ENDROOT
BRANCH   1  10
ATOM      7  C   UNL     1       4.708   4.645  16.575  0.00  0.00    +0.000 A 
ATOM      8  C   UNL     1       4.905   6.031  16.576  0.00  0.00    +0.000 A 
ATOM      9  C   UNL     1       4.136   6.861  17.400  0.00  0.00    +0.000 A 
ATOM     10  C   UNL     1       3.105   6.348  18.192  0.00  0.00    +0.000 A 
ATOM     11  C   UNL     1       2.846   4.973  18.083  0.00  0.00    +0.000 A 
ATOM     12  C   UNL     1       3.624   4.115  17.286  0.00  0.00    +0.000 A 
BRANCH   7  14
ATOM     13  C   UNL     1       6.605   4.507  15.182  0.00  0.00    +0.000 C 
ATOM     14  O   UNL     1       5.562   3.824  15.887  0.00  0.00    +0.000 OA
ENDBRANCH   7  14
BRANCH  12  15
ATOM     15  O   UNL     1       3.181   2.822  17.364  0.00  0.00    +0.000 OA
ATOM     16  C   UNL     1       3.394   2.078  18.553  0.00  0.00    +0.000 C 
ENDBRANCH  12  15
ENDBRANCH   1  10
BRANCH   4  17
ATOM     17  S   UNL     1      -0.252  10.081  21.441  0.00  0.00    +0.000 S 
BRANCH  17  18
ATOM     18  C   UNL     1      -0.194  11.529  20.322  0.00  0.00    +0.000 C 
BRANCH  18  19
ATOM     19  C   UNL     1      -1.496  11.679  19.550  0.00  0.00    +0.000 C 
ATOM     20  O   UNL     1      -2.479  12.184  20.092  0.00  0.00    +0.000 OA
ATOM     21  N   UNL     1      -1.434  11.182  18.262  0.00  0.00    +0.000 N 
ATOM     22  C   UNL     1      -2.539  11.164  17.459  0.00  0.00    +0.000 A 
ATOM     23  N   UNL     1      -3.652  11.836  17.580  0.00  0.00    +0.000 NA
ATOM     24  C   UNL     1      -4.539  11.432  16.606  0.00  0.00    +0.000 A 
ATOM     25  C   UNL     1      -4.079  10.450  15.754  0.00  0.00    +0.000 A 
ATOM     26  S   UNL     1      -2.447  10.084  16.142  0.00  0.00    +0.000 S 
ATOM     27  H   UNL     1      -0.663  10.576  17.985  0.00  0.00    +0.000 HD
ENDBRANCH  18  19
ENDBRANCH  17  18
ENDBRANCH   4  17
TORSDOF 6
ENDMDL
MODEL 5
REMARK VINA RESULT:      -7.2      4.751      7.737
REMARK  Name = 
REMARK  8 active torsions:
REMARK  status: ('A' for Active; 'I' for Inactive)
REMARK    1  A    between atoms: C_1  and  O_2
REMARK    2  A    between atoms: O_2  and  C_3
REMARK    3  A    between atoms: C_6  and  C_7
REMARK    4  A    between atoms: C_10  and  S_11
REMARK    5  A    between atoms: S_11  and  C_12
REMARK    6  A    between atoms: C_12  and  C_13
REMARK    7  A    between atoms: C_24  and  O_25
REMARK    8  A    between atoms: O_25  and  C_26
REMARK                            x       y       z     vdW  Elec       q    Type
REMARK                         _______ _______ _______ _____ _____    ______ ____
ROOT
ATOM      1  C   UNL     1       2.159   7.674  19.139  0.00  0.00    +0.000 A 
ATOM      2  C   UNL     1       2.178   6.548  19.948  0.00  0.00    +0.000 A 
ATOM      3  C   UNL     1       3.102   5.530  19.694  0.00  0.00    +0.000 A 
ATOM      4  C   UNL     1       3.969   5.682  18.626  0.00  0.00    +0.000 A 
ATOM      5  N   UNL     1       3.902   6.759  17.819  0.00  0.00    +0.000 NA
ATOM      6  N   UNL     1       3.012   7.763  18.089  0.00  0.00    +0.000 NA
ENDROOT
BRANCH   1  10
ATOM      7  C   UNL     1      -0.597  10.950  19.694  0.00  0.00    +0.000 A 
ATOM      8  C   UNL     1       0.026  10.736  18.458  0.00  0.00    +0.000 A 
ATOM      9  C   UNL     1       0.916   9.669  18.283  0.00  0.00    +0.000 A 
ATOM     10  C   UNL     1       1.266   8.831  19.345  0.00  0.00    +0.000 A 
ATOM     11  C   UNL     1       0.723   9.139  20.602  0.00  0.00    +0.000 A 
ATOM     12  C   UNL     1      -0.197  10.185  20.796  0.00  0.00    +0.000 A 
BRANCH   7  14
ATOM     13  C   UNL     1      -1.125  13.172  20.280  0.00  0.00    +0.000 C 
ATOM     14  O   UNL     1      -1.580  11.895  19.819  0.00  0.00    +0.000 OA
ENDBRANCH   7  14
BRANCH  12  15
ATOM     15  O   UNL     1      -0.590  10.268  22.104  0.00  0.00    +0.000 OA
ATOM     16  C   UNL     1       0.084   9.501  23.089  0.00  0.00    +0.000 C 
ENDBRANCH  12  15
ENDBRANCH   1  10
BRANCH   4  17
ATOM     17  S   UNL     1       5.253   4.493  18.324  0.00  0.00    +0.000 S 
BRANCH  17  18
ATOM     18  C   UNL     1       6.713   5.593  18.225  0.00  0.00    +0.000 C 
BRANCH  18  19
ATOM     19  C   UNL     1       7.170   5.771  16.786  0.00  0.00    +0.000 C 
ATOM     20  O   UNL     1       7.770   6.793  16.451  0.00  0.00    +0.000 OA
ATOM     21  N   UNL     1       6.819   4.720  15.961  0.00  0.00    +0.000 N 
ATOM     22  C   UNL     1       7.082   4.756  14.621  0.00  0.00    +0.000 A 
ATOM     23  N   UNL     1       7.916   5.520  13.969  0.00  0.00    +0.000 NA
ATOM     24  C   UNL     1       7.783   5.293  12.616  0.00  0.00    +0.000 A 
ATOM     25  C   UNL     1       6.840   4.352  12.262  0.00  0.00    +0.000 A 
ATOM     26  S   UNL     1       6.159   3.671  13.683  0.00  0.00    +0.000 S 
ATOM     27  H   UNL     1       6.126   4.039  16.268  0.00  0.00    +0.000 HD
ENDBRANCH  18  19
ENDBRANCH  17  18
ENDBRANCH   4  17
TORSDOF 6
ENDMDL
MODEL 6
REMARK VINA RESULT:      -7.2      4.360      6.980
REMARK  Name = 
REMARK  8 active torsions:
REMARK  status: ('A' for Active; 'I' for Inactive)
REMARK    1  A    between atoms: C_1  and  O_2
REMARK    2  A    between atoms: O_2  and  C_3
REMARK    3  A    between atoms: C_6  and  C_7
REMARK    4  A    between atoms: C_10  and  S_11
REMARK    5  A    between atoms: S_11  and  C_12
REMARK    6  A    between atoms: C_12  and  C_13
REMARK    7  A    between atoms: C_24  and  O_25
REMARK    8  A    between atoms: O_25  and  C_26
REMARK                            x       y       z     vdW  Elec       q    Type
REMARK                         _______ _______ _______ _____ _____    ______ ____
ROOT
ATOM      1  C   UNL     1       1.762   6.915  19.427  0.00  0.00    +0.000 A 
ATOM      2  C   UNL     1       1.927   6.299  18.195  0.00  0.00    +0.000 A 
ATOM      3  C   UNL     1       2.074   4.911  18.130  0.00  0.00    +0.000 A 
ATOM      4  C   UNL     1       2.058   4.193  19.313  0.00  0.00    +0.000 A 
ATOM      5  N   UNL     1       1.948   4.812  20.505  0.00  0.00    +0.000 NA
ATOM      6  N   UNL     1       1.779   6.169  20.560  0.00  0.00    +0.000 NA
ENDROOT
BRANCH   1  10
ATOM      7  C   UNL     1       0.954  11.127  19.907  0.00  0.00    +0.000 A 
ATOM      8  C   UNL     1       1.453  10.624  18.700  0.00  0.00    +0.000 A 
ATOM      9  C   UNL     1       1.709   9.256  18.549  0.00  0.00    +0.000 A 
ATOM     10  C   UNL     1       1.546   8.363  19.611  0.00  0.00    +0.000 A 
ATOM     11  C   UNL     1       1.162   8.908  20.845  0.00  0.00    +0.000 A 
ATOM     12  C   UNL     1       0.868  10.274  21.013  0.00  0.00    +0.000 A 
BRANCH   7  14
ATOM     13  C   UNL     1       1.494  13.380  19.468  0.00  0.00    +0.000 C 
ATOM     14  O   UNL     1       0.559  12.435  20.001  0.00  0.00    +0.000 OA
ENDBRANCH   7  14
BRANCH  12  15
ATOM     15  O   UNL     1       0.501  10.550  22.303  0.00  0.00    +0.000 OA
ATOM     16  C   UNL     1       0.019   9.507  23.134  0.00  0.00    +0.000 C 
ENDBRANCH  12  15
ENDBRANCH   1  10
BRANCH   4  17
ATOM     17  S   UNL     1       2.106   2.417  19.298  0.00  0.00    +0.000 S 
BRANCH  17  18
ATOM     18  C   UNL     1       3.619   2.131  18.308  0.00  0.00    +0.000 C 
BRANCH  18  19
ATOM     19  C   UNL     1       4.763   3.012  18.786  0.00  0.00    +0.000 C 
ATOM     20  O   UNL     1       5.123   2.970  19.962  0.00  0.00    +0.000 OA
ATOM     21  N   UNL     1       5.283   3.825  17.797  0.00  0.00    +0.000 N 
ATOM     22  C   UNL     1       6.262   4.736  18.075  0.00  0.00    +0.000 A 
ATOM     23  N   UNL     1       7.059   4.794  19.107  0.00  0.00    +0.000 NA
ATOM     24  C   UNL     1       7.822   5.940  19.033  0.00  0.00    +0.000 A 
ATOM     25  C   UNL     1       7.586   6.740  17.936  0.00  0.00    +0.000 A 
ATOM     26  S   UNL     1       6.427   5.981  16.922  0.00  0.00    +0.000 S 
ATOM     27  H   UNL     1       4.772   3.961  16.926  0.00  0.00    +0.000 HD
ENDBRANCH  18  19
ENDBRANCH  17  18
ENDBRANCH   4  17
TORSDOF 6
ENDMDL
MODEL 7
REMARK VINA RESULT:      -7.1      6.191      9.114
REMARK  Name = 
REMARK  8 active torsions:
REMARK  status: ('A' for Active; 'I' for Inactive)
REMARK    1  A    between atoms: C_1  and  O_2
REMARK    2  A    between atoms: O_2  and  C_3
REMARK    3  A    between atoms: C_6  and  C_7
REMARK    4  A    between atoms: C_10  and  S_11
REMARK    5  A    between atoms: S_11  and  C_12
REMARK    6  A    between atoms: C_12  and  C_13
REMARK    7  A    between atoms: C_24  and  O_25
REMARK    8  A    between atoms: O_25  and  C_26
REMARK                            x       y       z     vdW  Elec       q    Type
REMARK                         _______ _______ _______ _____ _____    ______ ____
ROOT
ATOM      1  C   UNL     1       2.437   7.565  18.733  0.00  0.00    +0.000 A 
ATOM      2  C   UNL     1       1.973   8.753  18.188  0.00  0.00    +0.000 A 
ATOM      3  C   UNL     1       1.213   9.624  18.973  0.00  0.00    +0.000 A 
ATOM      4  C   UNL     1       0.941   9.261  20.281  0.00  0.00    +0.000 A 
ATOM      5  N   UNL     1       1.357   8.079  20.779  0.00  0.00    +0.000 NA
ATOM      6  N   UNL     1       2.122   7.244  20.012  0.00  0.00    +0.000 NA
ENDROOT
BRANCH   1  10
ATOM      7  C   UNL     1       5.065   4.764  16.762  0.00  0.00    +0.000 A 
ATOM      8  C   UNL     1       5.069   6.121  16.415  0.00  0.00    +0.000 A 
ATOM      9  C   UNL     1       4.217   7.026  17.061  0.00  0.00    +0.000 A 
ATOM     10  C   UNL     1       3.291   6.598  18.015  0.00  0.00    +0.000 A 
ATOM     11  C   UNL     1       3.221   5.218  18.259  0.00  0.00    +0.000 A 
ATOM     12  C   UNL     1       4.086   4.295  17.646  0.00  0.00    +0.000 A 
BRANCH   7  14
ATOM     13  C   UNL     1       6.051   3.883  14.810  0.00  0.00    +0.000 C 
ATOM     14  O   UNL     1       6.003   3.914  16.241  0.00  0.00    +0.000 OA
ENDBRANCH   7  14
BRANCH  12  15
ATOM     15  O   UNL     1       3.828   3.016  18.062  0.00  0.00    +0.000 OA
ATOM     16  C   UNL     1       2.781   2.278  17.452  0.00  0.00    +0.000 C 
ENDBRANCH  12  15
ENDBRANCH   1  10
BRANCH   4  17
ATOM     17  S   UNL     1       0.095  10.375  21.375  0.00  0.00    +0.000 S 
BRANCH  17  18
ATOM     18  C   UNL     1      -0.082  11.840  20.292  0.00  0.00    +0.000 C 
BRANCH  18  19
ATOM     19  C   UNL     1      -1.458  11.884  19.647  0.00  0.00    +0.000 C 
ATOM     20  O   UNL     1      -2.444  12.189  20.318  0.00  0.00    +0.000 OA
ATOM     21  N   UNL     1      -1.454  11.532  18.310  0.00  0.00    +0.000 N 
ATOM     22  C   UNL     1      -2.617  11.441  17.600  0.00  0.00    +0.000 A 
ATOM     23  N   UNL     1      -3.792  11.935  17.884  0.00  0.00    +0.000 NA
ATOM     24  C   UNL     1      -4.706  11.511  16.943  0.00  0.00    +0.000 A 
ATOM     25  C   UNL     1      -4.204  10.694  15.954  0.00  0.00    +0.000 A 
ATOM     26  S   UNL     1      -2.508  10.522  16.168  0.00  0.00    +0.000 S 
ATOM     27  H   UNL     1      -0.640  11.070  17.907  0.00  0.00    +0.000 HD
ENDBRANCH  18  19
ENDBRANCH  17  18
ENDBRANCH   4  17
TORSDOF 6
ENDMDL
MODEL 8
REMARK VINA RESULT:      -7.1      4.143      6.712
REMARK  Name = 
REMARK  8 active torsions:
REMARK  status: ('A' for Active; 'I' for Inactive)
REMARK    1  A    between atoms: C_1  and  O_2
REMARK    2  A    between atoms: O_2  and  C_3
REMARK    3  A    between atoms: C_6  and  C_7
REMARK    4  A    between atoms: C_10  and  S_11
REMARK    5  A    between atoms: S_11  and  C_12
REMARK    6  A    between atoms: C_12  and  C_13
REMARK    7  A    between atoms: C_24  and  O_25
REMARK    8  A    between atoms: O_25  and  C_26
REMARK                            x       y       z     vdW  Elec       q    Type
REMARK                         _______ _______ _______ _____ _____    ______ ____
ROOT
ATOM      1  C   UNL     1       1.750   6.696  19.419  0.00  0.00    +0.000 A 
ATOM      2  C   UNL     1       1.564   5.991  20.599  0.00  0.00    +0.000 A 
ATOM      3  C   UNL     1       1.670   4.598  20.597  0.00  0.00    +0.000 A 
ATOM      4  C   UNL     1       1.953   3.963  19.400  0.00  0.00    +0.000 A 
ATOM      5  N   UNL     1       2.081   4.659  18.253  0.00  0.00    +0.000 NA
ATOM      6  N   UNL     1       2.001   6.025  18.268  0.00  0.00    +0.000 NA
ENDROOT
BRANCH   1  10
ATOM      7  C   UNL     1       1.470  10.988  19.052  0.00  0.00    +0.000 A 
ATOM      8  C   UNL     1       1.943  10.205  17.992  0.00  0.00    +0.000 A 
ATOM      9  C   UNL     1       2.028   8.812  18.116  0.00  0.00    +0.000 A 
ATOM     10  C   UNL     1       1.715   8.167  19.315  0.00  0.00    +0.000 A 
ATOM     11  C   UNL     1       1.360   8.983  20.400  0.00  0.00    +0.000 A 
ATOM     12  C   UNL     1       1.238  10.380  20.292  0.00  0.00    +0.000 A 
BRANCH   7  14
ATOM     13  C   UNL     1       2.278  13.019  18.169  0.00  0.00    +0.000 C 
ATOM     14  O   UNL     1       1.243  12.326  18.876  0.00  0.00    +0.000 OA
ENDBRANCH   7  14
BRANCH  12  15
ATOM     15  O   UNL     1       0.864  10.942  21.482  0.00  0.00    +0.000 OA
ATOM     16  C   UNL     1      -0.512  11.140  21.763  0.00  0.00    +0.000 C 
ENDBRANCH  12  15
ENDBRANCH   1  10
BRANCH   4  17
ATOM     17  S   UNL     1       2.233   2.210  19.346  0.00  0.00    +0.000 S 
BRANCH  17  18
ATOM     18  C   UNL     1       3.670   2.133  18.215  0.00  0.00    +0.000 C 
BRANCH  18  19
ATOM     19  C   UNL     1       4.804   3.017  18.707  0.00  0.00    +0.000 C 
ATOM     20  O   UNL     1       5.175   2.950  19.879  0.00  0.00    +0.000 OA
ATOM     21  N   UNL     1       5.306   3.864  17.737  0.00  0.00    +0.000 N 
ATOM     22  C   UNL     1       6.274   4.782  18.032  0.00  0.00    +0.000 A 
ATOM     23  N   UNL     1       7.078   4.823  19.059  0.00  0.00    +0.000 NA
ATOM     24  C   UNL     1       7.823   5.982  19.011  0.00  0.00    +0.000 A 
ATOM     25  C   UNL     1       7.567   6.807  17.937  0.00  0.00    +0.000 A 
ATOM     26  S   UNL     1       6.411   6.060  16.912  0.00  0.00    +0.000 S 
ATOM     27  H   UNL     1       4.785   4.017  16.874  0.00  0.00    +0.000 HD
ENDBRANCH  18  19
ENDBRANCH  17  18
ENDBRANCH   4  17
TORSDOF 6
ENDMDL
MODEL 9
REMARK VINA RESULT:      -7.0      5.166      7.975
REMARK  Name = 
REMARK  8 active torsions:
REMARK  status: ('A' for Active; 'I' for Inactive)
REMARK    1  A    between atoms: C_1  and  O_2
REMARK    2  A    between atoms: O_2  and  C_3
REMARK    3  A    between atoms: C_6  and  C_7
REMARK    4  A    between atoms: C_10  and  S_11
REMARK    5  A    between atoms: S_11  and  C_12
REMARK    6  A    between atoms: C_12  and  C_13
REMARK    7  A    between atoms: C_24  and  O_25
REMARK    8  A    between atoms: O_25  and  C_26
REMARK                            x       y       z     vdW  Elec       q    Type
REMARK                         _______ _______ _______ _____ _____    ______ ____
ROOT
ATOM      1  C   UNL     1       1.819   8.560  18.962  0.00  0.00    +0.000 A 
ATOM      2  C   UNL     1       2.562   8.576  17.791  0.00  0.00    +0.000 A 
ATOM      3  C   UNL     1       3.439   7.525  17.513  0.00  0.00    +0.000 A 
ATOM      4  C   UNL     1       3.543   6.496  18.434  0.00  0.00    +0.000 A 
ATOM      5  N   UNL     1       2.853   6.522  19.591  0.00  0.00    +0.000 NA
ATOM      6  N   UNL     1       1.976   7.542  19.844  0.00  0.00    +0.000 NA
ENDROOT
BRANCH   1  10
ATOM      7  C   UNL     1      -0.958  11.695  20.008  0.00  0.00    +0.000 A 
ATOM      8  C   UNL     1      -0.140  11.106  20.979  0.00  0.00    +0.000 A 
ATOM      9  C   UNL     1       0.763  10.092  20.634  0.00  0.00    +0.000 A 
ATOM     10  C   UNL     1       0.826   9.587  19.332  0.00  0.00    +0.000 A 
ATOM     11  C   UNL     1      -0.088  10.109  18.404  0.00  0.00    +0.000 A 
ATOM     12  C   UNL     1      -0.981  11.148  18.720  0.00  0.00    +0.000 A 
BRANCH   7  14
ATOM     13  C   UNL     1      -2.612  12.597  21.425  0.00  0.00    +0.000 C 
ATOM     14  O   UNL     1      -1.723  12.787  20.318  0.00  0.00    +0.000 OA
ENDBRANCH   7  14
BRANCH  12  15
ATOM     15  O   UNL     1      -1.752  11.489  17.641  0.00  0.00    +0.000 OA
ATOM     16  C   UNL     1      -3.163  11.375  17.723  0.00  0.00    +0.000 C 
ENDBRANCH  12  15
ENDBRANCH   1  10
BRANCH   4  17
ATOM     17  S   UNL     1       4.536   5.065  18.087  0.00  0.00    +0.000 S 
BRANCH  17  18
ATOM     18  C   UNL     1       6.215   5.788  18.194  0.00  0.00    +0.000 C 
BRANCH  18  19
ATOM     19  C   UNL     1       6.858   5.887  16.820  0.00  0.00    +0.000 C 
ATOM     20  O   UNL     1       7.572   6.851  16.542  0.00  0.00    +0.000 OA
ATOM     21  N   UNL     1       6.532   4.839  15.980  0.00  0.00    +0.000 N 
ATOM     22  C   UNL     1       6.961   4.815  14.683  0.00  0.00    +0.000 A 
ATOM     23  N   UNL     1       7.925   5.495  14.124  0.00  0.00    +0.000 NA
ATOM     24  C   UNL     1       7.942   5.237  12.771  0.00  0.00    +0.000 A 
ATOM     25  C   UNL     1       6.981   4.358  12.321  0.00  0.00    +0.000 A 
ATOM     26  S   UNL     1       6.079   3.772  13.660  0.00  0.00    +0.000 S 
ATOM     27  H   UNL     1       5.756   4.222  16.212  0.00  0.00    +0.000 HD
ENDBRANCH  18  19
ENDBRANCH  17  18
ENDBRANCH   4  17
TORSDOF 6
ENDMDL
