MODEL 1
REMARK VINA RESULT:      -7.2      0.000      0.000
REMARK  Name = 
REMARK  10 active torsions:
REMARK  status: ('A' for Active; 'I' for Inactive)
REMARK    1  A    between atoms: C_1  and  C_2
REMARK    2  A    between atoms: C_2  and  O_3
REMARK    3  A    between atoms: O_3  and  C_4
REMARK    4  A    between atoms: C_8  and  C_9
REMARK    5  A    between atoms: C_9  and  N_10
REMARK    6  A    between atoms: N_10  and  C_11
REMARK    7  A    between atoms: C_11  and  C_12
REMARK    8  A    between atoms: C_12  and  C_13
REMARK    9  A    between atoms: C_24  and  O_25
REMARK   10  A    between atoms: O_25  and  C_26
REMARK                            x       y       z     vdW  Elec       q    Type
REMARK                         _______ _______ _______ _____ _____    ______ ____
ROOT
ATOM      1  N   UNL     1       1.624  10.101  18.037  0.00  0.00    +0.000 NA
ATOM      2  H   UNL     1       2.486  10.531  18.448  0.00  0.00    +0.000 HD
ENDROOT
BRANCH   1   3
ATOM      3  C   UNL     1       0.622   9.933  19.099  0.00  0.00    +0.000 C 
BRANCH   3   8
ATOM      4  C   UNL     1      -3.329  11.392  18.017  0.00  0.00    +0.000 A 
ATOM      5  C   UNL     1      -2.646  11.861  19.185  0.00  0.00    +0.000 A 
ATOM      6 BR   UNL     1      -3.286  13.152  20.464  0.00  0.00    +0.000 Br
ATOM      7  C   UNL     1      -1.378  11.372  19.494  0.00  0.00    +0.000 A 
ATOM      8  C   UNL     1      -0.747  10.422  18.694  0.00  0.00    +0.000 A 
ATOM      9  C   UNL     1      -1.414   9.927  17.570  0.00  0.00    +0.000 A 
ATOM     10  C   UNL     1      -2.689  10.395  17.216  0.00  0.00    +0.000 A 
BRANCH  10  11
ATOM     11  O   UNL     1      -3.231   9.841  16.096  0.00  0.00    +0.000 OA
ATOM     12  C   UNL     1      -3.145  10.276  14.792  0.00  0.00    +0.000 C 
ENDBRANCH  10  11
BRANCH   4  13
ATOM     13  O   UNL     1      -4.553  11.851  17.624  0.00  0.00    +0.000 OA
BRANCH  13  15
ATOM     14  C   UNL     1      -6.883  12.353  17.512  0.00  0.00    +0.000 C 
ATOM     15  C   UNL     1      -5.801  11.425  18.032  0.00  0.00    +0.000 C 
ENDBRANCH  13  15
ENDBRANCH   4  13
ENDBRANCH   3   8
ENDBRANCH   1   3
BRANCH   1  16
ATOM     16  C   UNL     1       1.969   8.779  17.497  0.00  0.00    +0.000 C 
BRANCH  16  17
ATOM     17  C   UNL     1       2.378   7.802  18.607  0.00  0.00    +0.000 C 
BRANCH  17  18
ATOM     18  C   UNL     1       3.193   6.669  18.031  0.00  0.00    +0.000 A 
ATOM     19  N   UNL     1       4.280   6.884  17.267  0.00  0.00    +0.000 NA
ATOM     20  N   UNL     1       4.785   5.702  16.956  0.00  0.00    +0.000 NA
ATOM     21  C   UNL     1       4.008   4.765  17.533  0.00  0.00    +0.000 A 
ATOM     22  N   UNL     1       2.984   5.340  18.214  0.00  0.00    +0.000 N 
ATOM     23  C   UNL     1       1.848   4.709  18.914  0.00  0.00    +0.000 C 
ATOM     24  C   UNL     1       1.379   3.455  18.171  0.00  0.00    +0.000 C 
ATOM     25  C   UNL     1       2.240   2.217  18.457  0.00  0.00    +0.000 C 
ATOM     26  C   UNL     1       3.746   2.459  18.554  0.00  0.00    +0.000 C 
ATOM     27  C   UNL     1       4.342   3.296  17.429  0.00  0.00    +0.000 C 
ENDBRANCH  17  18
ENDBRANCH  16  17
ENDBRANCH   1  16
TORSDOF 8
ENDMDL
MODEL 2
REMARK VINA RESULT:      -7.0      6.392      9.756
REMARK  Name = 
REMARK  10 active torsions:
REMARK  status: ('A' for Active; 'I' for Inactive)
REMARK    1  A    between atoms: C_1  and  C_2
REMARK    2  A    between atoms: C_2  and  O_3
REMARK    3  A    between atoms: O_3  and  C_4
REMARK    4  A    between atoms: C_8  and  C_9
REMARK    5  A    between atoms: C_9  and  N_10
REMARK    6  A    between atoms: N_10  and  C_11
REMARK    7  A    between atoms: C_11  and  C_12
REMARK    8  A    between atoms: C_12  and  C_13
REMARK    9  A    between atoms: C_24  and  O_25
REMARK   10  A    between atoms: O_25  and  C_26
REMARK                            x       y       z     vdW  Elec       q    Type
REMARK                         _______ _______ _______ _____ _____    ______ ____
ROOT
ATOM      1  N   UNL     1       7.312   7.647  17.012  0.00  0.00    +0.000 NA
ATOM      2  H   UNL     1       6.340   8.035  17.017  0.00  0.00    +0.000 HD
ENDROOT
BRANCH   1   3
ATOM      3  C   UNL     1       7.261   6.226  17.388  0.00  0.00    +0.000 C 
BRANCH   3   8
ATOM      4  C   UNL     1       3.266   5.052  18.642  0.00  0.00    +0.000 A 
ATOM      5  C   UNL     1       3.550   6.374  18.170  0.00  0.00    +0.000 A 
ATOM      6 BR   UNL     1       2.309   7.839  18.005  0.00  0.00    +0.000 Br
ATOM      7  C   UNL     1       4.843   6.708  17.772  0.00  0.00    +0.000 A 
ATOM      8  C   UNL     1       5.886   5.787  17.827  0.00  0.00    +0.000 A 
ATOM      9  C   UNL     1       5.634   4.503  18.318  0.00  0.00    +0.000 A 
ATOM     10  C   UNL     1       4.347   4.119  18.724  0.00  0.00    +0.000 A 
BRANCH  10  11
ATOM     11  O   UNL     1       4.228   2.840  19.178  0.00  0.00    +0.000 OA
ATOM     12  C   UNL     1       3.685   1.747  18.539  0.00  0.00    +0.000 C 
ENDBRANCH  10  11
BRANCH   4  13
ATOM     13  O   UNL     1       2.020   4.634  19.011  0.00  0.00    +0.000 OA
BRANCH  13  15
ATOM     14  C   UNL     1       1.191   3.347  20.841  0.00  0.00    +0.000 C 
ATOM     15  C   UNL     1       1.415   4.725  20.248  0.00  0.00    +0.000 C 
ENDBRANCH  13  15
ENDBRANCH   4  13
ENDBRANCH   3   8
ENDBRANCH   1   3
BRANCH   1  16
ATOM     16  C   UNL     1       8.114   8.371  18.007  0.00  0.00    +0.000 C 
BRANCH  16  17
ATOM     17  C   UNL     1       8.519   9.763  17.505  0.00  0.00    +0.000 C 
BRANCH  17  18
ATOM     18  C   UNL     1       8.987  10.617  18.659  0.00  0.00    +0.000 A 
ATOM     19  N   UNL     1       9.329  10.089  19.848  0.00  0.00    +0.000 NA
ATOM     20  N   UNL     1       9.727  11.085  20.623  0.00  0.00    +0.000 NA
ATOM     21  C   UNL     1       9.633  12.221  19.905  0.00  0.00    +0.000 A 
ATOM     22  N   UNL     1       9.158  11.964  18.659  0.00  0.00    +0.000 N 
ATOM     23  C   UNL     1       8.809  12.902  17.573  0.00  0.00    +0.000 C 
ATOM     24  C   UNL     1       8.201  14.188  18.140  0.00  0.00    +0.000 C 
ATOM     25  C   UNL     1       9.248  15.183  18.660  0.00  0.00    +0.000 C 
ATOM     26  C   UNL     1      10.435  14.573  19.406  0.00  0.00    +0.000 C 
ATOM     27  C   UNL     1      10.072  13.548  20.473  0.00  0.00    +0.000 C 
ENDBRANCH  17  18
ENDBRANCH  16  17
ENDBRANCH   1  16
TORSDOF 8
ENDMDL
MODEL 3
REMARK VINA RESULT:      -6.8      8.193     10.479
REMARK  Name = 
REMARK  10 active torsions:
REMARK  status: ('A' for Active; 'I' for Inactive)
REMARK    1  A    between atoms: C_1  and  C_2
REMARK    2  A    between atoms: C_2  and  O_3
REMARK    3  A    between atoms: O_3  and  C_4
REMARK    4  A    between atoms: C_8  and  C_9
REMARK    5  A    between atoms: C_9  and  N_10
REMARK    6  A    between atoms: N_10  and  C_11
REMARK    7  A    between atoms: C_11  and  C_12
REMARK    8  A    between atoms: C_12  and  C_13
REMARK    9  A    between atoms: C_24  and  O_25
REMARK   10  A    between atoms: O_25  and  C_26
REMARK                            x       y       z     vdW  Elec       q    Type
REMARK                         _______ _______ _______ _____ _____    ______ ____
ROOT
ATOM      1  N   UNL     1       8.585   8.836  18.613  0.00  0.00    +0.000 NA
ATOM      2  H   UNL     1       8.085   9.092  19.497  0.00  0.00    +0.000 HD
ENDROOT
BRANCH   1   3
ATOM      3  C   UNL     1       8.757  10.045  17.794  0.00  0.00    +0.000 C 
BRANCH   3   8
ATOM      4  C   UNL     1      10.962  13.214  19.794  0.00  0.00    +0.000 A 
ATOM      5  C   UNL     1      11.141  12.934  18.401  0.00  0.00    +0.000 A 
ATOM      6 BR   UNL     1      12.331  13.832  17.180  0.00  0.00    +0.000 Br
ATOM      7  C   UNL     1      10.411  11.913  17.797  0.00  0.00    +0.000 A 
ATOM      8  C   UNL     1       9.503  11.139  18.516  0.00  0.00    +0.000 A 
ATOM      9  C   UNL     1       9.342  11.376  19.884  0.00  0.00    +0.000 A 
ATOM     10  C   UNL     1      10.051  12.398  20.534  0.00  0.00    +0.000 A 
BRANCH  10  11
ATOM     11  O   UNL     1       9.803  12.533  21.866  0.00  0.00    +0.000 OA
ATOM     12  C   UNL     1       8.642  12.265  22.557  0.00  0.00    +0.000 C 
ENDBRANCH  10  11
BRANCH   4  13
ATOM     13  O   UNL     1      11.608  14.222  20.449  0.00  0.00    +0.000 OA
BRANCH  13  15
ATOM     14  C   UNL     1      12.244  16.464  19.936  0.00  0.00    +0.000 C 
ATOM     15  C   UNL     1      11.227  15.542  20.582  0.00  0.00    +0.000 C 
ENDBRANCH  13  15
ENDBRANCH   4  13
ENDBRANCH   3   8
ENDBRANCH   1   3
BRANCH   1  16
ATOM     16  C   UNL     1       7.763   7.872  17.869  0.00  0.00    +0.000 C 
BRANCH  16  17
ATOM     17  C   UNL     1       7.796   6.481  18.513  0.00  0.00    +0.000 C 
BRANCH  17  18
ATOM     18  C   UNL     1       6.961   5.514  17.709  0.00  0.00    +0.000 A 
ATOM     19  N   UNL     1       7.469   4.814  16.678  0.00  0.00    +0.000 NA
ATOM     20  N   UNL     1       6.503   4.037  16.213  0.00  0.00    +0.000 NA
ATOM     21  C   UNL     1       5.407   4.260  16.964  0.00  0.00    +0.000 A 
ATOM     22  N   UNL     1       5.657   5.197  17.914  0.00  0.00    +0.000 N 
ATOM     23  C   UNL     1       4.737   5.816  18.889  0.00  0.00    +0.000 C 
ATOM     24  C   UNL     1       3.346   6.007  18.280  0.00  0.00    +0.000 C 
ATOM     25  C   UNL     1       2.493   4.731  18.288  0.00  0.00    +0.000 C 
ATOM     26  C   UNL     1       3.232   3.432  17.968  0.00  0.00    +0.000 C 
ATOM     27  C   UNL     1       4.132   3.484  16.739  0.00  0.00    +0.000 C 
ENDBRANCH  17  18
ENDBRANCH  16  17
ENDBRANCH   1  16
TORSDOF 8
ENDMDL
MODEL 4
REMARK VINA RESULT:      -6.8      7.605     10.875
REMARK  Name = 
REMARK  10 active torsions:
REMARK  status: ('A' for Active; 'I' for Inactive)
REMARK    1  A    between atoms: C_1  and  C_2
REMARK    2  A    between atoms: C_2  and  O_3
REMARK    3  A    between atoms: O_3  and  C_4
REMARK    4  A    between atoms: C_8  and  C_9
REMARK    5  A    between atoms: C_9  and  N_10
REMARK    6  A    between atoms: N_10  and  C_11
REMARK    7  A    between atoms: C_11  and  C_12
REMARK    8  A    between atoms: C_12  and  C_13
REMARK    9  A    between atoms: C_24  and  O_25
REMARK   10  A    between atoms: O_25  and  C_26
REMARK                            x       y       z     vdW  Elec       q    Type
REMARK                         _______ _______ _______ _____ _____    ______ ____
ROOT
ATOM      1  N   UNL     1       7.908   8.479  17.815  0.00  0.00    +0.000 NA
ATOM      2  H   UNL     1       6.907   8.753  17.951  0.00  0.00    +0.000 HD
ENDROOT
BRANCH   1   3
ATOM      3  C   UNL     1       8.117   7.138  18.380  0.00  0.00    +0.000 C 
BRANCH   3   8
ATOM      4  C   UNL     1       4.902   4.392  17.370  0.00  0.00    +0.000 A 
ATOM      5  C   UNL     1       5.937   4.716  16.436  0.00  0.00    +0.000 A 
ATOM      6 BR   UNL     1       6.121   4.061  14.633  0.00  0.00    +0.000 Br
ATOM      7  C   UNL     1       6.953   5.597  16.801  0.00  0.00    +0.000 A 
ATOM      8  C   UNL     1       6.991   6.187  18.062  0.00  0.00    +0.000 A 
ATOM      9  C   UNL     1       5.969   5.909  18.974  0.00  0.00    +0.000 A 
ATOM     10  C   UNL     1       4.929   5.023  18.653  0.00  0.00    +0.000 A 
BRANCH  10  11
ATOM     11  O   UNL     1       3.997   4.829  19.627  0.00  0.00    +0.000 OA
ATOM     12  C   UNL     1       2.824   5.517  19.846  0.00  0.00    +0.000 C 
ENDBRANCH  10  11
BRANCH   4  13
ATOM     13  O   UNL     1       3.896   3.508  17.104  0.00  0.00    +0.000 OA
BRANCH  13  15
ATOM     14  C   UNL     1       2.186   2.170  18.095  0.00  0.00    +0.000 C 
ATOM     15  C   UNL     1       3.646   2.288  17.699  0.00  0.00    +0.000 C 
ENDBRANCH  13  15
ENDBRANCH   4  13
ENDBRANCH   3   8
ENDBRANCH   1   3
BRANCH   1  16
ATOM     16  C   UNL     1       8.761   9.435  18.535  0.00  0.00    +0.000 C 
BRANCH  16  17
ATOM     17  C   UNL     1       8.574  10.866  18.015  0.00  0.00    +0.000 C 
BRANCH  17  18
ATOM     18  C   UNL     1       9.815  11.683  18.279  0.00  0.00    +0.000 A 
ATOM     19  N   UNL     1      10.944  11.524  17.564  0.00  0.00    +0.000 NA
ATOM     20  N   UNL     1      11.824  12.405  18.012  0.00  0.00    +0.000 NA
ATOM     21  C   UNL     1      11.230  13.106  18.997  0.00  0.00    +0.000 A 
ATOM     22  N   UNL     1       9.961  12.669  19.201  0.00  0.00    +0.000 N 
ATOM     23  C   UNL     1       8.980  13.075  20.228  0.00  0.00    +0.000 C 
ATOM     24  C   UNL     1       9.677  13.382  21.555  0.00  0.00    +0.000 C 
ATOM     25  C   UNL     1      10.308  14.780  21.608  0.00  0.00    +0.000 C 
ATOM     26  C   UNL     1      10.992  15.252  20.324  0.00  0.00    +0.000 C 
ATOM     27  C   UNL     1      11.941  14.244  19.688  0.00  0.00    +0.000 C 
ENDBRANCH  17  18
ENDBRANCH  16  17
ENDBRANCH   1  16
TORSDOF 8
ENDMDL
MODEL 5
REMARK VINA RESULT:      -6.8      4.661      8.921
REMARK  Name = 
REMARK  10 active torsions:
REMARK  status: ('A' for Active; 'I' for Inactive)
REMARK    1  A    between atoms: C_1  and  C_2
REMARK    2  A    between atoms: C_2  and  O_3
REMARK    3  A    between atoms: O_3  and  C_4
REMARK    4  A    between atoms: C_8  and  C_9
REMARK    5  A    between atoms: C_9  and  N_10
REMARK    6  A    between atoms: N_10  and  C_11
REMARK    7  A    between atoms: C_11  and  C_12
REMARK    8  A    between atoms: C_12  and  C_13
REMARK    9  A    between atoms: C_24  and  O_25
REMARK   10  A    between atoms: O_25  and  C_26
REMARK                            x       y       z     vdW  Elec       q    Type
REMARK                         _______ _______ _______ _____ _____    ______ ____
ROOT
ATOM      1  N   UNL     1       1.865   8.388  17.519  0.00  0.00    +0.000 NA
ATOM      2  H   UNL     1       1.112   7.829  17.985  0.00  0.00    +0.000 HD
ENDROOT
BRANCH   1   3
ATOM      3  C   UNL     1       3.175   7.858  17.927  0.00  0.00    +0.000 C 
BRANCH   3   8
ATOM      4  C   UNL     1       3.213   3.513  18.101  0.00  0.00    +0.000 A 
ATOM      5  C   UNL     1       2.306   4.291  18.890  0.00  0.00    +0.000 A 
ATOM      6 BR   UNL     1       0.991   3.632  20.135  0.00  0.00    +0.000 Br
ATOM      7  C   UNL     1       2.322   5.682  18.801  0.00  0.00    +0.000 A 
ATOM      8  C   UNL     1       3.211   6.350  17.962  0.00  0.00    +0.000 A 
ATOM      9  C   UNL     1       4.126   5.607  17.211  0.00  0.00    +0.000 A 
ATOM     10  C   UNL     1       4.143   4.205  17.263  0.00  0.00    +0.000 A 
BRANCH  10  11
ATOM     11  O   UNL     1       5.077   3.596  16.481  0.00  0.00    +0.000 OA
ATOM     12  C   UNL     1       5.916   4.159  15.545  0.00  0.00    +0.000 C 
ENDBRANCH  10  11
BRANCH   4  13
ATOM     13  O   UNL     1       3.232   2.148  18.100  0.00  0.00    +0.000 OA
BRANCH  13  15
ATOM     14  C   UNL     1       4.483   1.984  20.126  0.00  0.00    +0.000 C 
ATOM     15  C   UNL     1       4.018   1.300  18.854  0.00  0.00    +0.000 C 
ENDBRANCH  13  15
ENDBRANCH   4  13
ENDBRANCH   3   8
ENDBRANCH   1   3
BRANCH   1  16
ATOM     16  C   UNL     1       1.761   9.784  17.963  0.00  0.00    +0.000 C 
BRANCH  16  17
ATOM     17  C   UNL     1       0.310  10.281  17.935  0.00  0.00    +0.000 C 
BRANCH  17  18
ATOM     18  C   UNL     1       0.021  11.118  19.157  0.00  0.00    +0.000 A 
ATOM     19  N   UNL     1      -0.160  12.450  19.087  0.00  0.00    +0.000 NA
ATOM     20  N   UNL     1      -0.429  12.878  20.310  0.00  0.00    +0.000 NA
ATOM     21  C   UNL     1      -0.417  11.806  21.126  0.00  0.00    +0.000 A 
ATOM     22  N   UNL     1      -0.125  10.676  20.432  0.00  0.00    +0.000 N 
ATOM     23  C   UNL     1       0.085   9.299  20.923  0.00  0.00    +0.000 C 
ATOM     24  C   UNL     1       0.786   9.306  22.283  0.00  0.00    +0.000 C 
ATOM     25  C   UNL     1      -0.161   9.579  23.460  0.00  0.00    +0.000 C 
ATOM     26  C   UNL     1      -1.242  10.632  23.216  0.00  0.00    +0.000 C 
ATOM     27  C   UNL     1      -0.751  11.933  22.593  0.00  0.00    +0.000 C 
ENDBRANCH  17  18
ENDBRANCH  16  17
ENDBRANCH   1  16
TORSDOF 8
ENDMDL
MODEL 6
REMARK VINA RESULT:      -6.8      4.465      9.385
REMARK  Name = 
REMARK  10 active torsions:
REMARK  status: ('A' for Active; 'I' for Inactive)
REMARK    1  A    between atoms: C_1  and  C_2
REMARK    2  A    between atoms: C_2  and  O_3
REMARK    3  A    between atoms: O_3  and  C_4
REMARK    4  A    between atoms: C_8  and  C_9
REMARK    5  A    between atoms: C_9  and  N_10
REMARK    6  A    between atoms: N_10  and  C_11
REMARK    7  A    between atoms: C_11  and  C_12
REMARK    8  A    between atoms: C_12  and  C_13
REMARK    9  A    between atoms: C_24  and  O_25
REMARK   10  A    between atoms: O_25  and  C_26
REMARK                            x       y       z     vdW  Elec       q    Type
REMARK                         _______ _______ _______ _____ _____    ______ ____
ROOT
ATOM      1  N   UNL     1       1.868   8.563  17.964  0.00  0.00    +0.000 NA
ATOM      2  H   UNL     1       1.584   7.795  17.311  0.00  0.00    +0.000 HD
ENDROOT
BRANCH   1   3
ATOM      3  C   UNL     1       2.083   7.996  19.303  0.00  0.00    +0.000 C 
BRANCH   3   8
ATOM      4  C   UNL     1       3.705   3.962  19.269  0.00  0.00    +0.000 A 
ATOM      5  C   UNL     1       2.694   4.360  20.201  0.00  0.00    +0.000 A 
ATOM      6 BR   UNL     1       1.885   3.272  21.571  0.00  0.00    +0.000 Br
ATOM      7  C   UNL     1       2.197   5.662  20.176  0.00  0.00    +0.000 A 
ATOM      8  C   UNL     1       2.664   6.604  19.263  0.00  0.00    +0.000 A 
ATOM      9  C   UNL     1       3.674   6.243  18.369  0.00  0.00    +0.000 A 
ATOM     10  C   UNL     1       4.201   4.942  18.353  0.00  0.00    +0.000 A 
BRANCH  10  11
ATOM     11  O   UNL     1       5.177   4.711  17.431  0.00  0.00    +0.000 OA
ATOM     12  C   UNL     1       5.050   4.247  16.141  0.00  0.00    +0.000 C 
ENDBRANCH  10  11
BRANCH   4  13
ATOM     13  O   UNL     1       4.214   2.697  19.202  0.00  0.00    +0.000 OA
BRANCH  13  15
ATOM     14  C   UNL     1       2.482   1.968  17.732  0.00  0.00    +0.000 C 
ATOM     15  C   UNL     1       3.671   1.584  18.592  0.00  0.00    +0.000 C 
ENDBRANCH  13  15
ENDBRANCH   4  13
ENDBRANCH   3   8
ENDBRANCH   1   3
BRANCH   1  16
ATOM     16  C   UNL     1       0.779   9.547  18.036  0.00  0.00    +0.000 C 
BRANCH  16  17
ATOM     17  C   UNL     1       0.474   9.951  19.484  0.00  0.00    +0.000 C 
BRANCH  17  18
ATOM     18  C   UNL     1      -0.680  10.923  19.522  0.00  0.00    +0.000 A 
ATOM     19  N   UNL     1      -1.326  11.313  18.408  0.00  0.00    +0.000 NA
ATOM     20  N   UNL     1      -2.299  12.129  18.779  0.00  0.00    +0.000 NA
ATOM     21  C   UNL     1      -2.251  12.233  20.121  0.00  0.00    +0.000 A 
ATOM     22  N   UNL     1      -1.231  11.491  20.625  0.00  0.00    +0.000 N 
ATOM     23  C   UNL     1      -0.748  11.378  22.016  0.00  0.00    +0.000 C 
ATOM     24  C   UNL     1      -0.865  12.720  22.744  0.00  0.00    +0.000 C 
ATOM     25  C   UNL     1      -2.279  13.016  23.261  0.00  0.00    +0.000 C 
ATOM     26  C   UNL     1      -3.426  12.612  22.335  0.00  0.00    +0.000 C 
ATOM     27  C   UNL     1      -3.270  13.045  20.883  0.00  0.00    +0.000 C 
ENDBRANCH  17  18
ENDBRANCH  16  17
ENDBRANCH   1  16
TORSDOF 8
ENDMDL
MODEL 7
REMARK VINA RESULT:      -6.7      4.530      9.543
REMARK  Name = 
REMARK  10 active torsions:
REMARK  status: ('A' for Active; 'I' for Inactive)
REMARK    1  A    between atoms: C_1  and  C_2
REMARK    2  A    between atoms: C_2  and  O_3
REMARK    3  A    between atoms: O_3  and  C_4
REMARK    4  A    between atoms: C_8  and  C_9
REMARK    5  A    between atoms: C_9  and  N_10
REMARK    6  A    between atoms: N_10  and  C_11
REMARK    7  A    between atoms: C_11  and  C_12
REMARK    8  A    between atoms: C_12  and  C_13
REMARK    9  A    between atoms: C_24  and  O_25
REMARK   10  A    between atoms: O_25  and  C_26
REMARK                            x       y       z     vdW  Elec       q    Type
REMARK                         _______ _______ _______ _____ _____    ______ ____
ROOT
ATOM      1  N   UNL     1       1.834   9.003  18.816  0.00  0.00    +0.000 NA
ATOM      2  H   UNL     1       2.648   9.414  19.332  0.00  0.00    +0.000 HD
ENDROOT
BRANCH   1   3
ATOM      3  C   UNL     1       2.339   8.163  17.719  0.00  0.00    +0.000 C 
BRANCH   3   8
ATOM      4  C   UNL     1       4.277   4.503  19.044  0.00  0.00    +0.000 A 
ATOM      5  C   UNL     1       4.720   5.212  17.882  0.00  0.00    +0.000 A 
ATOM      6 BR   UNL     1       6.172   4.730  16.710  0.00  0.00    +0.000 Br
ATOM      7  C   UNL     1       4.075   6.385  17.493  0.00  0.00    +0.000 A 
ATOM      8  C   UNL     1       2.992   6.894  18.207  0.00  0.00    +0.000 A 
ATOM      9  C   UNL     1       2.525   6.196  19.324  0.00  0.00    +0.000 A 
ATOM     10  C   UNL     1       3.147   5.014  19.756  0.00  0.00    +0.000 A 
BRANCH  10  11
ATOM     11  O   UNL     1       2.603   4.430  20.860  0.00  0.00    +0.000 OA
ATOM     12  C   UNL     1       1.353   3.871  21.011  0.00  0.00    +0.000 C 
ENDBRANCH  10  11
BRANCH   4  13
ATOM     13  O   UNL     1       4.880   3.372  19.513  0.00  0.00    +0.000 OA
BRANCH  13  15
ATOM     14  C   UNL     1       3.667   1.619  18.442  0.00  0.00    +0.000 C 
ATOM     15  C   UNL     1       4.327   2.123  19.711  0.00  0.00    +0.000 C 
ENDBRANCH  13  15
ENDBRANCH   4  13
ENDBRANCH   3   8
ENDBRANCH   1   3
BRANCH   1  16
ATOM     16  C   UNL     1       1.035  10.096  18.246  0.00  0.00    +0.000 C 
BRANCH  16  17
ATOM     17  C   UNL     1      -0.401  10.089  18.785  0.00  0.00    +0.000 C 
BRANCH  17  18
ATOM     18  C   UNL     1      -0.428  10.601  20.205  0.00  0.00    +0.000 A 
ATOM     19  N   UNL     1       0.332  10.061  21.175  0.00  0.00    +0.000 NA
ATOM     20  N   UNL     1       0.109  10.751  22.282  0.00  0.00    +0.000 NA
ATOM     21  C   UNL     1      -0.784  11.716  21.986  0.00  0.00    +0.000 A 
ATOM     22  N   UNL     1      -1.154  11.644  20.681  0.00  0.00    +0.000 N 
ATOM     23  C   UNL     1      -2.166  12.429  19.947  0.00  0.00    +0.000 C 
ATOM     24  C   UNL     1      -3.366  12.745  20.843  0.00  0.00    +0.000 C 
ATOM     25  C   UNL     1      -3.131  13.934  21.785  0.00  0.00    +0.000 C 
ATOM     26  C   UNL     1      -1.738  14.025  22.409  0.00  0.00    +0.000 C 
ATOM     27  C   UNL     1      -1.215  12.730  23.017  0.00  0.00    +0.000 C 
ENDBRANCH  17  18
ENDBRANCH  16  17
ENDBRANCH   1  16
TORSDOF 8
ENDMDL
MODEL 8
REMARK VINA RESULT:      -6.7      3.985      5.913
REMARK  Name = 
REMARK  10 active torsions:
REMARK  status: ('A' for Active; 'I' for Inactive)
REMARK    1  A    between atoms: C_1  and  C_2
REMARK    2  A    between atoms: C_2  and  O_3
REMARK    3  A    between atoms: O_3  and  C_4
REMARK    4  A    between atoms: C_8  and  C_9
REMARK    5  A    between atoms: C_9  and  N_10
REMARK    6  A    between atoms: N_10  and  C_11
REMARK    7  A    between atoms: C_11  and  C_12
REMARK    8  A    between atoms: C_12  and  C_13
REMARK    9  A    between atoms: C_24  and  O_25
REMARK   10  A    between atoms: O_25  and  C_26
REMARK                            x       y       z     vdW  Elec       q    Type
REMARK                         _______ _______ _______ _____ _____    ______ ____
ROOT
ATOM      1  N   UNL     1       1.664   3.428  19.641  0.00  0.00    +0.000 NA
ATOM      2  H   UNL     1       1.715   4.013  18.773  0.00  0.00    +0.000 HD
ENDROOT
BRANCH   1   3
ATOM      3  C   UNL     1       1.916   4.285  20.809  0.00  0.00    +0.000 C 
BRANCH   3   8
ATOM      4  C   UNL     1       1.707   8.508  19.798  0.00  0.00    +0.000 A 
ATOM      5  C   UNL     1       2.285   7.548  18.907  0.00  0.00    +0.000 A 
ATOM      6 BR   UNL     1       3.061   7.888  17.176  0.00  0.00    +0.000 Br
ATOM      7  C   UNL     1       2.328   6.202  19.267  0.00  0.00    +0.000 A 
ATOM      8  C   UNL     1       1.825   5.756  20.486  0.00  0.00    +0.000 A 
ATOM      9  C   UNL     1       1.290   6.685  21.382  0.00  0.00    +0.000 A 
ATOM     10  C   UNL     1       1.220   8.049  21.061  0.00  0.00    +0.000 A 
BRANCH  10  11
ATOM     11  O   UNL     1       0.671   8.853  22.014  0.00  0.00    +0.000 OA
ATOM     12  C   UNL     1      -0.613   9.344  22.090  0.00  0.00    +0.000 C 
ENDBRANCH  10  11
BRANCH   4  13
ATOM     13  O   UNL     1       1.591   9.836  19.502  0.00  0.00    +0.000 OA
BRANCH  13  15
ATOM     14  C   UNL     1       0.289  11.817  19.232  0.00  0.00    +0.000 C 
ATOM     15  C   UNL     1       0.670  10.455  18.682  0.00  0.00    +0.000 C 
ENDBRANCH  13  15
ENDBRANCH   4  13
ENDBRANCH   3   8
ENDBRANCH   1   3
BRANCH   1  16
ATOM     16  C   UNL     1       2.708   2.396  19.577  0.00  0.00    +0.000 C 
BRANCH  16  17
ATOM     17  C   UNL     1       4.109   2.993  19.766  0.00  0.00    +0.000 C 
BRANCH  17  18
ATOM     18  C   UNL     1       4.580   3.634  18.483  0.00  0.00    +0.000 A 
ATOM     19  N   UNL     1       4.114   3.254  17.279  0.00  0.00    +0.000 NA
ATOM     20  N   UNL     1       4.690   4.024  16.371  0.00  0.00    +0.000 NA
ATOM     21  C   UNL     1       5.504   4.879  17.021  0.00  0.00    +0.000 A 
ATOM     22  N   UNL     1       5.468   4.653  18.359  0.00  0.00    +0.000 N 
ATOM     23  C   UNL     1       6.257   5.278  19.440  0.00  0.00    +0.000 C 
ATOM     24  C   UNL     1       7.683   5.577  18.970  0.00  0.00    +0.000 C 
ATOM     25  C   UNL     1       7.798   6.865  18.143  0.00  0.00    +0.000 C 
ATOM     26  C   UNL     1       6.659   7.131  17.159  0.00  0.00    +0.000 C 
ATOM     27  C   UNL     1       6.272   5.947  16.281  0.00  0.00    +0.000 C 
ENDBRANCH  17  18
ENDBRANCH  16  17
ENDBRANCH   1  16
TORSDOF 8
ENDMDL
MODEL 9
REMARK VINA RESULT:      -6.7      3.754      4.240
REMARK  Name = 
REMARK  10 active torsions:
REMARK  status: ('A' for Active; 'I' for Inactive)
REMARK    1  A    between atoms: C_1  and  C_2
REMARK    2  A    between atoms: C_2  and  O_3
REMARK    3  A    between atoms: O_3  and  C_4
REMARK    4  A    between atoms: C_8  and  C_9
REMARK    5  A    between atoms: C_9  and  N_10
REMARK    6  A    between atoms: N_10  and  C_11
REMARK    7  A    between atoms: C_11  and  C_12
REMARK    8  A    between atoms: C_12  and  C_13
REMARK    9  A    between atoms: C_24  and  O_25
REMARK   10  A    between atoms: O_25  and  C_26
REMARK                            x       y       z     vdW  Elec       q    Type
REMARK                         _______ _______ _______ _____ _____    ______ ____
ROOT
ATOM      1  N   UNL     1       2.762   8.570  17.239  0.00  0.00    +0.000 NA
ATOM      2  H   UNL     1       3.112   9.557  17.248  0.00  0.00    +0.000 HD
ENDROOT
BRANCH   1   3
ATOM      3  C   UNL     1       1.459   8.520  17.918  0.00  0.00    +0.000 C 
BRANCH   3   8
ATOM      4  C   UNL     1       0.864  11.712  20.810  0.00  0.00    +0.000 A 
ATOM      5  C   UNL     1       0.577  10.346  21.126  0.00  0.00    +0.000 A 
ATOM      6 BR   UNL     1      -0.105   9.658  22.792  0.00  0.00    +0.000 Br
ATOM      7  C   UNL     1       0.786   9.351  20.172  0.00  0.00    +0.000 A 
ATOM      8  C   UNL     1       1.267   9.649  18.900  0.00  0.00    +0.000 A 
ATOM      9  C   UNL     1       1.519  10.982  18.563  0.00  0.00    +0.000 A 
ATOM     10  C   UNL     1       1.329  12.016  19.492  0.00  0.00    +0.000 A 
BRANCH  10  11
ATOM     11  O   UNL     1       1.616  13.271  19.046  0.00  0.00    +0.000 OA
ATOM     12  C   UNL     1       2.764  14.008  19.230  0.00  0.00    +0.000 C 
ENDBRANCH  10  11
BRANCH   4  13
ATOM     13  O   UNL     1       0.725  12.737  21.700  0.00  0.00    +0.000 OA
BRANCH  13  15
ATOM     14  C   UNL     1      -0.091  14.835  22.492  0.00  0.00    +0.000 C 
ATOM     15  C   UNL     1      -0.421  13.423  22.048  0.00  0.00    +0.000 C 
ENDBRANCH  13  15
ENDBRANCH   4  13
ENDBRANCH   3   8
ENDBRANCH   1   3
BRANCH   1  16
ATOM     16  C   UNL     1       3.712   7.725  17.975  0.00  0.00    +0.000 C 
BRANCH  16  17
ATOM     17  C   UNL     1       4.130   6.496  17.158  0.00  0.00    +0.000 C 
BRANCH  17  18
ATOM     18  C   UNL     1       4.318   5.305  18.066  0.00  0.00    +0.000 A 
ATOM     19  N   UNL     1       5.536   4.883  18.452  0.00  0.00    +0.000 NA
ATOM     20  N   UNL     1       5.358   3.854  19.266  0.00  0.00    +0.000 NA
ATOM     21  C   UNL     1       4.031   3.652  19.381  0.00  0.00    +0.000 A 
ATOM     22  N   UNL     1       3.341   4.546  18.627  0.00  0.00    +0.000 N 
ATOM     23  C   UNL     1       1.889   4.642  18.375  0.00  0.00    +0.000 C 
ATOM     24  C   UNL     1       1.258   3.250  18.295  0.00  0.00    +0.000 C 
ATOM     25  C   UNL     1       0.976   2.625  19.668  0.00  0.00    +0.000 C 
ATOM     26  C   UNL     1       2.044   2.856  20.738  0.00  0.00    +0.000 C 
ATOM     27  C   UNL     1       3.476   2.586  20.293  0.00  0.00    +0.000 C 
ENDBRANCH  17  18
ENDBRANCH  16  17
ENDBRANCH   1  16
TORSDOF 8
ENDMDL
