MODEL 1
REMARK VINA RESULT:      -7.3      0.000      0.000
REMARK  Name = 
REMARK  10 active torsions:
REMARK  status: ('A' for Active; 'I' for Inactive)
REMARK    1  A    between atoms: C_1  and  C_2
REMARK    2  A    between atoms: C_2  and  C_3
REMARK    3  A    between atoms: C_2  and  N_6
REMARK    4  A    between atoms: C_10  and  C_11
REMARK    5  A    between atoms: N_13  and  C_14
REMARK    6  A    between atoms: C_14  and  C_15
REMARK    7  A    between atoms: C_15  and  N_16
REMARK    8  A    between atoms: N_16  and  C_17
REMARK    9  A    between atoms: N_16  and  C_18
REMARK   10  A    between atoms: C_20  and  C_21
REMARK                            x       y       z     vdW  Elec       q    Type
REMARK                         _______ _______ _______ _____ _____    ______ ____
ROOT
ATOM      1  N   UNL     1       2.584   4.389  20.052  0.00  0.00    +0.000 N 
ATOM      2  N   UNL     1       1.507   4.901  20.696  0.00  0.00    +0.000 NA
ATOM      3  C   UNL     1       1.410   6.141  20.208  0.00  0.00    +0.000 A 
ATOM      4  C   UNL     1       2.403   6.435  19.250  0.00  0.00    +0.000 A 
ATOM      5  C   UNL     1       2.775   7.511  18.429  0.00  0.00    +0.000 A 
ATOM      6  C   UNL     1       3.857   7.318  17.563  0.00  0.00    +0.000 A 
ATOM      7  C   UNL     1       4.555   6.106  17.561  0.00  0.00    +0.000 A 
ATOM      8  N   UNL     1       4.240   5.078  18.393  0.00  0.00    +0.000 NA
ATOM      9  C   UNL     1       3.167   5.285  19.179  0.00  0.00    +0.000 A 
ENDROOT
BRANCH   5  10
ATOM     10  C   UNL     1       1.989   8.764  18.475  0.00  0.00    +0.000 C 
ATOM     11  O   UNL     1       1.780   9.398  17.447  0.00  0.00    +0.000 OA
ATOM     12  N   UNL     1       1.491   9.145  19.701  0.00  0.00    +0.000 N 
ATOM     13  H   UNL     1       1.650   8.609  20.543  0.00  0.00    +0.000 HD
BRANCH  12  14
ATOM     14  C   UNL     1       0.667  10.333  19.819  0.00  0.00    +0.000 C 
BRANCH  14  15
ATOM     15  C   UNL     1      -0.421  10.196  20.896  0.00  0.00    +0.000 C 
BRANCH  15  16
ATOM     16  N   UNL     1      -0.009  10.644  22.247  0.00  0.00    +0.000 NA
ATOM     17  C   UNL     1      -0.986  11.579  22.819  0.00  0.00    +0.000 C 
ATOM     18  C   UNL     1       0.120   9.481  23.133  0.00  0.00    +0.000 C 
ENDBRANCH  15  16
ENDBRANCH  14  15
ENDBRANCH  12  14
ENDBRANCH   5  10
BRANCH   7  19
ATOM     19  C   UNL     1       5.671   5.884  16.560  0.00  0.00    +0.000 C 
ATOM     20  C   UNL     1       7.093   6.287  16.877  0.00  0.00    +0.000 C 
ATOM     21  C   UNL     1       6.724   4.836  16.833  0.00  0.00    +0.000 C 
ENDBRANCH   7  19
BRANCH   1  23
ATOM     22  C   UNL     1       2.617   2.520  21.701  0.00  0.00    +0.000 C 
ATOM     23  C   UNL     1       3.024   3.015  20.303  0.00  0.00    +0.000 C 
BRANCH  23  24
ATOM     24  C   UNL     1       2.505   2.057  19.247  0.00  0.00    +0.000 C 
ATOM     25  C   UNL     1       2.307   2.467  17.805  0.00  0.00    +0.000 C 
ATOM     26  C   UNL     1       3.439   1.553  18.167  0.00  0.00    +0.000 C 
ENDBRANCH  23  24
ENDBRANCH   1  23
TORSDOF 7
ENDMDL
MODEL 2
REMARK VINA RESULT:      -7.2      1.301      1.878
REMARK  Name = 
REMARK  10 active torsions:
REMARK  status: ('A' for Active; 'I' for Inactive)
REMARK    1  A    between atoms: C_1  and  C_2
REMARK    2  A    between atoms: C_2  and  C_3
REMARK    3  A    between atoms: C_2  and  N_6
REMARK    4  A    between atoms: C_10  and  C_11
REMARK    5  A    between atoms: N_13  and  C_14
REMARK    6  A    between atoms: C_14  and  C_15
REMARK    7  A    between atoms: C_15  and  N_16
REMARK    8  A    between atoms: N_16  and  C_17
REMARK    9  A    between atoms: N_16  and  C_18
REMARK   10  A    between atoms: C_20  and  C_21
REMARK                            x       y       z     vdW  Elec       q    Type
REMARK                         _______ _______ _______ _____ _____    ______ ____
ROOT
ATOM      1  N   UNL     1       2.610   4.458  19.981  0.00  0.00    +0.000 N 
ATOM      2  N   UNL     1       1.536   4.992  20.613  0.00  0.00    +0.000 NA
ATOM      3  C   UNL     1       1.455   6.225  20.107  0.00  0.00    +0.000 A 
ATOM      4  C   UNL     1       2.455   6.494  19.149  0.00  0.00    +0.000 A 
ATOM      5  C   UNL     1       2.843   7.554  18.314  0.00  0.00    +0.000 A 
ATOM      6  C   UNL     1       3.926   7.336  17.455  0.00  0.00    +0.000 A 
ATOM      7  C   UNL     1       4.610   6.115  17.473  0.00  0.00    +0.000 A 
ATOM      8  N   UNL     1       4.280   5.104  18.319  0.00  0.00    +0.000 NA
ATOM      9  C   UNL     1       3.207   5.335  19.097  0.00  0.00    +0.000 A 
ENDROOT
BRANCH   5  10
ATOM     10  C   UNL     1       2.072   8.815  18.338  0.00  0.00    +0.000 C 
ATOM     11  O   UNL     1       1.958   9.488  17.320  0.00  0.00    +0.000 OA
ATOM     12  N   UNL     1       1.476   9.162  19.530  0.00  0.00    +0.000 N 
ATOM     13  H   UNL     1       1.557   8.594  20.363  0.00  0.00    +0.000 HD
BRANCH  12  14
ATOM     14  C   UNL     1       0.660  10.358  19.621  0.00  0.00    +0.000 C 
BRANCH  14  15
ATOM     15  C   UNL     1      -0.831  10.079  19.371  0.00  0.00    +0.000 C 
BRANCH  15  16
ATOM     16  N   UNL     1      -1.332  10.549  18.058  0.00  0.00    +0.000 NA
ATOM     17  C   UNL     1      -2.617   9.922  17.722  0.00  0.00    +0.000 C 
ATOM     18  C   UNL     1      -1.502  12.006  18.088  0.00  0.00    +0.000 C 
ENDBRANCH  15  16
ENDBRANCH  14  15
ENDBRANCH  12  14
ENDBRANCH   5  10
BRANCH   7  19
ATOM     19  C   UNL     1       5.728   5.866  16.481  0.00  0.00    +0.000 C 
ATOM     20  C   UNL     1       7.176   6.029  16.881  0.00  0.00    +0.000 C 
ATOM     21  C   UNL     1       6.620   4.658  16.645  0.00  0.00    +0.000 C 
ENDBRANCH   7  19
BRANCH   1  23
ATOM     22  C   UNL     1       2.626   2.617  21.662  0.00  0.00    +0.000 C 
ATOM     23  C   UNL     1       3.033   3.083  20.254  0.00  0.00    +0.000 C 
BRANCH  23  24
ATOM     24  C   UNL     1       2.496   2.113  19.217  0.00  0.00    +0.000 C 
ATOM     25  C   UNL     1       2.303   2.499  17.768  0.00  0.00    +0.000 C 
ATOM     26  C   UNL     1       3.420   1.573  18.146  0.00  0.00    +0.000 C 
ENDBRANCH  23  24
ENDBRANCH   1  23
TORSDOF 7
ENDMDL
MODEL 3
REMARK VINA RESULT:      -7.1      1.862      4.385
REMARK  Name = 
REMARK  10 active torsions:
REMARK  status: ('A' for Active; 'I' for Inactive)
REMARK    1  A    between atoms: C_1  and  C_2
REMARK    2  A    between atoms: C_2  and  C_3
REMARK    3  A    between atoms: C_2  and  N_6
REMARK    4  A    between atoms: C_10  and  C_11
REMARK    5  A    between atoms: N_13  and  C_14
REMARK    6  A    between atoms: C_14  and  C_15
REMARK    7  A    between atoms: C_15  and  N_16
REMARK    8  A    between atoms: N_16  and  C_17
REMARK    9  A    between atoms: N_16  and  C_18
REMARK   10  A    between atoms: C_20  and  C_21
REMARK                            x       y       z     vdW  Elec       q    Type
REMARK                         _______ _______ _______ _____ _____    ______ ____
ROOT
ATOM      1  N   UNL     1       5.269   5.750  17.467  0.00  0.00    +0.000 N 
ATOM      2  N   UNL     1       5.397   6.820  16.645  0.00  0.00    +0.000 NA
ATOM      3  C   UNL     1       4.366   7.600  16.982  0.00  0.00    +0.000 A 
ATOM      4  C   UNL     1       3.578   7.054  18.017  0.00  0.00    +0.000 A 
ATOM      5  C   UNL     1       2.439   7.406  18.758  0.00  0.00    +0.000 A 
ATOM      6  C   UNL     1       2.028   6.527  19.766  0.00  0.00    +0.000 A 
ATOM      7  C   UNL     1       2.714   5.328  19.984  0.00  0.00    +0.000 A 
ATOM      8  N   UNL     1       3.783   4.950  19.233  0.00  0.00    +0.000 NA
ATOM      9  C   UNL     1       4.175   5.841  18.305  0.00  0.00    +0.000 A 
ENDROOT
BRANCH   5  10
ATOM     10  C   UNL     1       1.764   8.693  18.483  0.00  0.00    +0.000 C 
ATOM     11  O   UNL     1       1.693   9.118  17.334  0.00  0.00    +0.000 OA
ATOM     12  N   UNL     1       1.204   9.349  19.555  0.00  0.00    +0.000 N 
ATOM     13  H   UNL     1       1.249   8.986  20.498  0.00  0.00    +0.000 HD
BRANCH  12  14
ATOM     14  C   UNL     1       0.480  10.591  19.358  0.00  0.00    +0.000 C 
BRANCH  14  15
ATOM     15  C   UNL     1      -1.032  10.374  19.179  0.00  0.00    +0.000 C 
BRANCH  15  16
ATOM     16  N   UNL     1      -1.811  11.617  18.970  0.00  0.00    +0.000 NA
ATOM     17  C   UNL     1      -2.152  12.253  20.249  0.00  0.00    +0.000 C 
ATOM     18  C   UNL     1      -1.030  12.557  18.158  0.00  0.00    +0.000 C 
ENDBRANCH  15  16
ENDBRANCH  14  15
ENDBRANCH  12  14
ENDBRANCH   5  10
BRANCH   7  19
ATOM     19  C   UNL     1       2.306   4.426  21.131  0.00  0.00    +0.000 C 
ATOM     20  C   UNL     1       1.242   3.369  20.952  0.00  0.00    +0.000 C 
ATOM     21  C   UNL     1       2.676   2.962  21.101  0.00  0.00    +0.000 C 
ENDBRANCH   7  19
BRANCH   1  23
ATOM     22  C   UNL     1       6.437   4.114  15.993  0.00  0.00    +0.000 C 
ATOM     23  C   UNL     1       6.234   4.649  17.420  0.00  0.00    +0.000 C 
BRANCH  23  24
ATOM     24  C   UNL     1       7.572   5.049  18.014  0.00  0.00    +0.000 C 
ATOM     25  C   UNL     1       7.861   6.454  18.493  0.00  0.00    +0.000 C 
ATOM     26  C   UNL     1       7.676   5.352  19.494  0.00  0.00    +0.000 C 
ENDBRANCH  23  24
ENDBRANCH   1  23
TORSDOF 7
ENDMDL
MODEL 4
REMARK VINA RESULT:      -7.1      1.521      4.055
REMARK  Name = 
REMARK  10 active torsions:
REMARK  status: ('A' for Active; 'I' for Inactive)
REMARK    1  A    between atoms: C_1  and  C_2
REMARK    2  A    between atoms: C_2  and  C_3
REMARK    3  A    between atoms: C_2  and  N_6
REMARK    4  A    between atoms: C_10  and  C_11
REMARK    5  A    between atoms: N_13  and  C_14
REMARK    6  A    between atoms: C_14  and  C_15
REMARK    7  A    between atoms: C_15  and  N_16
REMARK    8  A    between atoms: N_16  and  C_17
REMARK    9  A    between atoms: N_16  and  C_18
REMARK   10  A    between atoms: C_20  and  C_21
REMARK                            x       y       z     vdW  Elec       q    Type
REMARK                         _______ _______ _______ _____ _____    ______ ____
ROOT
ATOM      1  N   UNL     1       5.899   5.915  16.755  0.00  0.00    +0.000 N 
ATOM      2  N   UNL     1       5.908   7.245  16.497  0.00  0.00    +0.000 NA
ATOM      3  C   UNL     1       4.799   7.688  17.095  0.00  0.00    +0.000 A 
ATOM      4  C   UNL     1       4.077   6.665  17.744  0.00  0.00    +0.000 A 
ATOM      5  C   UNL     1       2.907   6.536  18.509  0.00  0.00    +0.000 A 
ATOM      6  C   UNL     1       2.596   5.265  19.004  0.00  0.00    +0.000 A 
ATOM      7  C   UNL     1       3.410   4.168  18.701  0.00  0.00    +0.000 A 
ATOM      8  N   UNL     1       4.513   4.271  17.913  0.00  0.00    +0.000 NA
ATOM      9  C   UNL     1       4.804   5.515  17.493  0.00  0.00    +0.000 A 
ENDROOT
BRANCH   5  10
ATOM     10  C   UNL     1       2.094   7.738  18.798  0.00  0.00    +0.000 C 
ATOM     11  O   UNL     1       1.713   8.459  17.883  0.00  0.00    +0.000 OA
ATOM     12  N   UNL     1       1.770   7.972  20.115  0.00  0.00    +0.000 N 
ATOM     13  H   UNL     1       2.071   7.364  20.866  0.00  0.00    +0.000 HD
BRANCH  12  14
ATOM     14  C   UNL     1       0.933   9.101  20.474  0.00  0.00    +0.000 C 
BRANCH  14  15
ATOM     15  C   UNL     1       0.836   9.308  21.994  0.00  0.00    +0.000 C 
BRANCH  15  16
ATOM     16  N   UNL     1       0.351  10.648  22.402  0.00  0.00    +0.000 NA
ATOM     17  C   UNL     1       0.209  11.539  21.244  0.00  0.00    +0.000 C 
ATOM     18  C   UNL     1      -0.948  10.519  23.072  0.00  0.00    +0.000 C 
ENDBRANCH  15  16
ENDBRANCH  14  15
ENDBRANCH  12  14
ENDBRANCH   5  10
BRANCH   7  19
ATOM     19  C   UNL     1       3.105   2.815  19.312  0.00  0.00    +0.000 C 
ATOM     20  C   UNL     1       1.943   1.983  18.821  0.00  0.00    +0.000 C 
ATOM     21  C   UNL     1       3.345   1.559  18.508  0.00  0.00    +0.000 C 
ENDBRANCH   7  19
BRANCH   1  23
ATOM     22  C   UNL     1       7.724   4.352  17.422  0.00  0.00    +0.000 C 
ATOM     23  C   UNL     1       6.979   5.051  16.272  0.00  0.00    +0.000 C 
BRANCH  23  24
ATOM     24  C   UNL     1       6.473   4.017  15.284  0.00  0.00    +0.000 C 
ATOM     25  C   UNL     1       5.349   4.303  14.313  0.00  0.00    +0.000 C 
ATOM     26  C   UNL     1       6.756   4.188  13.807  0.00  0.00    +0.000 C 
ENDBRANCH  23  24
ENDBRANCH   1  23
TORSDOF 7
ENDMDL
MODEL 5
REMARK VINA RESULT:      -7.1      1.477      4.138
REMARK  Name = 
REMARK  10 active torsions:
REMARK  status: ('A' for Active; 'I' for Inactive)
REMARK    1  A    between atoms: C_1  and  C_2
REMARK    2  A    between atoms: C_2  and  C_3
REMARK    3  A    between atoms: C_2  and  N_6
REMARK    4  A    between atoms: C_10  and  C_11
REMARK    5  A    between atoms: N_13  and  C_14
REMARK    6  A    between atoms: C_14  and  C_15
REMARK    7  A    between atoms: C_15  and  N_16
REMARK    8  A    between atoms: N_16  and  C_17
REMARK    9  A    between atoms: N_16  and  C_18
REMARK   10  A    between atoms: C_20  and  C_21
REMARK                            x       y       z     vdW  Elec       q    Type
REMARK                         _______ _______ _______ _____ _____    ______ ____
ROOT
ATOM      1  N   UNL     1       5.144   5.654  17.300  0.00  0.00    +0.000 N 
ATOM      2  N   UNL     1       5.258   6.711  16.460  0.00  0.00    +0.000 NA
ATOM      3  C   UNL     1       4.270   7.524  16.843  0.00  0.00    +0.000 A 
ATOM      4  C   UNL     1       3.524   7.013  17.925  0.00  0.00    +0.000 A 
ATOM      5  C   UNL     1       2.438   7.406  18.723  0.00  0.00    +0.000 A 
ATOM      6  C   UNL     1       2.056   6.550  19.762  0.00  0.00    +0.000 A 
ATOM      7  C   UNL     1       2.718   5.333  19.956  0.00  0.00    +0.000 A 
ATOM      8  N   UNL     1       3.734   4.916  19.153  0.00  0.00    +0.000 NA
ATOM      9  C   UNL     1       4.100   5.785  18.194  0.00  0.00    +0.000 A 
ENDROOT
BRANCH   5  10
ATOM     10  C   UNL     1       1.786   8.709  18.468  0.00  0.00    +0.000 C 
ATOM     11  O   UNL     1       1.768   9.178  17.336  0.00  0.00    +0.000 OA
ATOM     12  N   UNL     1       1.187   9.330  19.541  0.00  0.00    +0.000 N 
ATOM     13  H   UNL     1       1.188   8.930  20.470  0.00  0.00    +0.000 HD
BRANCH  12  14
ATOM     14  C   UNL     1       0.483  10.585  19.362  0.00  0.00    +0.000 C 
BRANCH  14  15
ATOM     15  C   UNL     1      -0.851  10.632  20.126  0.00  0.00    +0.000 C 
BRANCH  15  16
ATOM     16  N   UNL     1      -0.807  11.399  21.393  0.00  0.00    +0.000 NA
ATOM     17  C   UNL     1      -0.444  10.539  22.525  0.00  0.00    +0.000 C 
ATOM     18  C   UNL     1       0.175  12.483  21.278  0.00  0.00    +0.000 C 
ENDBRANCH  15  16
ENDBRANCH  14  15
ENDBRANCH  12  14
ENDBRANCH   5  10
BRANCH   7  19
ATOM     19  C   UNL     1       2.347   4.455  21.134  0.00  0.00    +0.000 C 
ATOM     20  C   UNL     1       1.274   3.399  21.012  0.00  0.00    +0.000 C 
ATOM     21  C   UNL     1       2.711   2.989  21.120  0.00  0.00    +0.000 C 
ENDBRANCH   7  19
BRANCH   1  23
ATOM     22  C   UNL     1       6.201   3.984  15.780  0.00  0.00    +0.000 C 
ATOM     23  C   UNL     1       6.073   4.524  17.214  0.00  0.00    +0.000 C 
BRANCH  23  24
ATOM     24  C   UNL     1       7.445   4.882  17.753  0.00  0.00    +0.000 C 
ATOM     25  C   UNL     1       7.791   6.274  18.233  0.00  0.00    +0.000 C 
ATOM     26  C   UNL     1       7.621   5.168  19.230  0.00  0.00    +0.000 C 
ENDBRANCH  23  24
ENDBRANCH   1  23
TORSDOF 7
ENDMDL
MODEL 6
REMARK VINA RESULT:      -7.1      1.583      4.300
REMARK  Name = 
REMARK  10 active torsions:
REMARK  status: ('A' for Active; 'I' for Inactive)
REMARK    1  A    between atoms: C_1  and  C_2
REMARK    2  A    between atoms: C_2  and  C_3
REMARK    3  A    between atoms: C_2  and  N_6
REMARK    4  A    between atoms: C_10  and  C_11
REMARK    5  A    between atoms: N_13  and  C_14
REMARK    6  A    between atoms: C_14  and  C_15
REMARK    7  A    between atoms: C_15  and  N_16
REMARK    8  A    between atoms: N_16  and  C_17
REMARK    9  A    between atoms: N_16  and  C_18
REMARK   10  A    between atoms: C_20  and  C_21
REMARK                            x       y       z     vdW  Elec       q    Type
REMARK                         _______ _______ _______ _____ _____    ______ ____
ROOT
ATOM      1  N   UNL     1       4.703   5.579  16.979  0.00  0.00    +0.000 N 
ATOM      2  N   UNL     1       4.841   6.902  16.719  0.00  0.00    +0.000 NA
ATOM      3  C   UNL     1       3.995   7.480  17.576  0.00  0.00    +0.000 A 
ATOM      4  C   UNL     1       3.319   6.550  18.394  0.00  0.00    +0.000 A 
ATOM      5  C   UNL     1       2.375   6.567  19.433  0.00  0.00    +0.000 A 
ATOM      6  C   UNL     1       2.016   5.338  19.999  0.00  0.00    +0.000 A 
ATOM      7  C   UNL     1       2.558   4.146  19.506  0.00  0.00    +0.000 A 
ATOM      8  N   UNL     1       3.429   4.115  18.462  0.00  0.00    +0.000 NA
ATOM      9  C   UNL     1       3.783   5.317  17.974  0.00  0.00    +0.000 A 
ENDROOT
BRANCH   5  10
ATOM     10  C   UNL     1       1.846   7.863  19.911  0.00  0.00    +0.000 C 
ATOM     11  O   UNL     1       1.560   8.745  19.110  0.00  0.00    +0.000 OA
ATOM     12  N   UNL     1       1.666   8.003  21.269  0.00  0.00    +0.000 N 
ATOM     13  H   UNL     1       1.886   7.265  21.925  0.00  0.00    +0.000 HD
BRANCH  12  14
ATOM     14  C   UNL     1       1.103   9.225  21.812  0.00  0.00    +0.000 C 
BRANCH  14  15
ATOM     15  C   UNL     1      -0.321   9.498  21.304  0.00  0.00    +0.000 C 
BRANCH  15  16
ATOM     16  N   UNL     1      -0.577  10.906  20.919  0.00  0.00    +0.000 NA
ATOM     17  C   UNL     1       0.662  11.694  20.925  0.00  0.00    +0.000 C 
ATOM     18  C   UNL     1      -1.168  10.950  19.576  0.00  0.00    +0.000 C 
ENDBRANCH  15  16
ENDBRANCH  14  15
ENDBRANCH  12  14
ENDBRANCH   5  10
BRANCH   7  19
ATOM     19  C   UNL     1       2.222   2.833  20.182  0.00  0.00    +0.000 C 
ATOM     20  C   UNL     1       2.756   2.505  21.557  0.00  0.00    +0.000 C 
ATOM     21  C   UNL     1       1.302   2.821  21.380  0.00  0.00    +0.000 C 
ENDBRANCH   7  19
BRANCH   1  23
ATOM     22  C   UNL     1       5.128   4.551  14.748  0.00  0.00    +0.000 C 
ATOM     23  C   UNL     1       5.487   4.585  16.243  0.00  0.00    +0.000 C 
BRANCH  23  24
ATOM     24  C   UNL     1       6.979   4.811  16.408  0.00  0.00    +0.000 C 
ATOM     25  C   UNL     1       7.544   5.815  17.388  0.00  0.00    +0.000 C 
ATOM     26  C   UNL     1       7.673   4.348  17.672  0.00  0.00    +0.000 C 
ENDBRANCH  23  24
ENDBRANCH   1  23
TORSDOF 7
ENDMDL
MODEL 7
REMARK VINA RESULT:      -7.1      1.532      4.109
REMARK  Name = 
REMARK  10 active torsions:
REMARK  status: ('A' for Active; 'I' for Inactive)
REMARK    1  A    between atoms: C_1  and  C_2
REMARK    2  A    between atoms: C_2  and  C_3
REMARK    3  A    between atoms: C_2  and  N_6
REMARK    4  A    between atoms: C_10  and  C_11
REMARK    5  A    between atoms: N_13  and  C_14
REMARK    6  A    between atoms: C_14  and  C_15
REMARK    7  A    between atoms: C_15  and  N_16
REMARK    8  A    between atoms: N_16  and  C_17
REMARK    9  A    between atoms: N_16  and  C_18
REMARK   10  A    between atoms: C_20  and  C_21
REMARK                            x       y       z     vdW  Elec       q    Type
REMARK                         _______ _______ _______ _____ _____    ______ ____
ROOT
ATOM      1  N   UNL     1       4.565   5.839  17.535  0.00  0.00    +0.000 N 
ATOM      2  N   UNL     1       4.601   7.016  16.863  0.00  0.00    +0.000 NA
ATOM      3  C   UNL     1       3.681   7.760  17.483  0.00  0.00    +0.000 A 
ATOM      4  C   UNL     1       3.056   7.084  18.552  0.00  0.00    +0.000 A 
ATOM      5  C   UNL     1       2.078   7.347  19.524  0.00  0.00    +0.000 A 
ATOM      6  C   UNL     1       1.803   6.338  20.454  0.00  0.00    +0.000 A 
ATOM      7  C   UNL     1       2.460   5.105  20.375  0.00  0.00    +0.000 A 
ATOM      8  N   UNL     1       3.366   4.819  19.403  0.00  0.00    +0.000 NA
ATOM      9  C   UNL     1       3.636   5.829  18.555  0.00  0.00    +0.000 A 
ENDROOT
BRANCH   5  10
ATOM     10  C   UNL     1       1.427   8.675  19.556  0.00  0.00    +0.000 C 
ATOM     11  O   UNL     1       1.132   9.242  18.510  0.00  0.00    +0.000 OA
ATOM     12  N   UNL     1       1.147   9.206  20.795  0.00  0.00    +0.000 N 
ATOM     13  H   UNL     1       1.375   8.726  21.656  0.00  0.00    +0.000 HD
BRANCH  12  14
ATOM     14  C   UNL     1       0.463  10.479  20.910  0.00  0.00    +0.000 C 
BRANCH  14  15
ATOM     15  C   UNL     1      -0.514  10.524  22.096  0.00  0.00    +0.000 C 
BRANCH  15  16
ATOM     16  N   UNL     1      -1.395  11.715  22.123  0.00  0.00    +0.000 NA
ATOM     17  C   UNL     1      -2.230  11.734  23.330  0.00  0.00    +0.000 C 
ATOM     18  C   UNL     1      -0.576  12.933  22.086  0.00  0.00    +0.000 C 
ENDBRANCH  15  16
ENDBRANCH  14  15
ENDBRANCH  12  14
ENDBRANCH   5  10
BRANCH   7  19
ATOM     19  C   UNL     1       2.211   4.053  21.436  0.00  0.00    +0.000 C 
ATOM     20  C   UNL     1       1.276   2.893  21.181  0.00  0.00    +0.000 C 
ATOM     21  C   UNL     1       2.754   2.655  21.248  0.00  0.00    +0.000 C 
ENDBRANCH   7  19
BRANCH   1  23
ATOM     22  C   UNL     1       5.068   4.105  15.816  0.00  0.00    +0.000 C 
ATOM     23  C   UNL     1       5.455   4.737  17.163  0.00  0.00    +0.000 C 
BRANCH  23  24
ATOM     24  C   UNL     1       6.908   5.175  17.128  0.00  0.00    +0.000 C 
ATOM     25  C   UNL     1       7.526   6.027  18.214  0.00  0.00    +0.000 C 
ATOM     26  C   UNL     1       7.896   4.577  18.107  0.00  0.00    +0.000 C 
ENDBRANCH  23  24
ENDBRANCH   1  23
TORSDOF 7
ENDMDL
MODEL 8
REMARK VINA RESULT:      -7.1      1.244      1.792
REMARK  Name = 
REMARK  10 active torsions:
REMARK  status: ('A' for Active; 'I' for Inactive)
REMARK    1  A    between atoms: C_1  and  C_2
REMARK    2  A    between atoms: C_2  and  C_3
REMARK    3  A    between atoms: C_2  and  N_6
REMARK    4  A    between atoms: C_10  and  C_11
REMARK    5  A    between atoms: N_13  and  C_14
REMARK    6  A    between atoms: C_14  and  C_15
REMARK    7  A    between atoms: C_15  and  N_16
REMARK    8  A    between atoms: N_16  and  C_17
REMARK    9  A    between atoms: N_16  and  C_18
REMARK   10  A    between atoms: C_20  and  C_21
REMARK                            x       y       z     vdW  Elec       q    Type
REMARK                         _______ _______ _______ _____ _____    ______ ____
ROOT
ATOM      1  N   UNL     1       2.594   4.448  19.976  0.00  0.00    +0.000 N 
ATOM      2  N   UNL     1       1.479   4.936  20.572  0.00  0.00    +0.000 NA
ATOM      3  C   UNL     1       1.374   6.172  20.077  0.00  0.00    +0.000 A 
ATOM      4  C   UNL     1       2.401   6.489  19.163  0.00  0.00    +0.000 A 
ATOM      5  C   UNL     1       2.783   7.572  18.356  0.00  0.00    +0.000 A 
ATOM      6  C   UNL     1       3.906   7.403  17.538  0.00  0.00    +0.000 A 
ATOM      7  C   UNL     1       4.631   6.207  17.569  0.00  0.00    +0.000 A 
ATOM      8  N   UNL     1       4.304   5.173  18.389  0.00  0.00    +0.000 NA
ATOM      9  C   UNL     1       3.194   5.357  19.127  0.00  0.00    +0.000 A 
ENDROOT
BRANCH   5  10
ATOM     10  C   UNL     1       1.968   8.806  18.365  0.00  0.00    +0.000 C 
ATOM     11  O   UNL     1       1.887   9.499  17.357  0.00  0.00    +0.000 OA
ATOM     12  N   UNL     1       1.294   9.103  19.529  0.00  0.00    +0.000 N 
ATOM     13  H   UNL     1       1.349   8.518  20.352  0.00  0.00    +0.000 HD
BRANCH  12  14
ATOM     14  C   UNL     1       0.433  10.268  19.600  0.00  0.00    +0.000 C 
BRANCH  14  15
ATOM     15  C   UNL     1       1.128  11.482  20.235  0.00  0.00    +0.000 C 
BRANCH  15  16
ATOM     16  N   UNL     1       1.100  12.710  19.407  0.00  0.00    +0.000 NA
ATOM     17  C   UNL     1       2.283  12.798  18.542  0.00  0.00    +0.000 C 
ATOM     18  C   UNL     1      -0.107  12.713  18.572  0.00  0.00    +0.000 C 
ENDBRANCH  15  16
ENDBRANCH  14  15
ENDBRANCH  12  14
ENDBRANCH   5  10
BRANCH   7  19
ATOM     19  C   UNL     1       5.795   6.010  16.619  0.00  0.00    +0.000 C 
ATOM     20  C   UNL     1       7.207   6.349  17.036  0.00  0.00    +0.000 C 
ATOM     21  C   UNL     1       6.801   4.915  16.884  0.00  0.00    +0.000 C 
ENDBRANCH   7  19
BRANCH   1  23
ATOM     22  C   UNL     1       2.658   2.608  21.657  0.00  0.00    +0.000 C 
ATOM     23  C   UNL     1       3.054   3.085  20.250  0.00  0.00    +0.000 C 
BRANCH  23  24
ATOM     24  C   UNL     1       2.546   2.101  19.212  0.00  0.00    +0.000 C 
ATOM     25  C   UNL     1       2.359   2.478  17.759  0.00  0.00    +0.000 C 
ATOM     26  C   UNL     1       3.490   1.575  18.151  0.00  0.00    +0.000 C 
ENDBRANCH  23  24
ENDBRANCH   1  23
TORSDOF 7
ENDMDL
MODEL 9
REMARK VINA RESULT:      -7.0      2.093      4.466
REMARK  Name = 
REMARK  10 active torsions:
REMARK  status: ('A' for Active; 'I' for Inactive)
REMARK    1  A    between atoms: C_1  and  C_2
REMARK    2  A    between atoms: C_2  and  C_3
REMARK    3  A    between atoms: C_2  and  N_6
REMARK    4  A    between atoms: C_10  and  C_11
REMARK    5  A    between atoms: N_13  and  C_14
REMARK    6  A    between atoms: C_14  and  C_15
REMARK    7  A    between atoms: C_15  and  N_16
REMARK    8  A    between atoms: N_16  and  C_17
REMARK    9  A    between atoms: N_16  and  C_18
REMARK   10  A    between atoms: C_20  and  C_21
REMARK                            x       y       z     vdW  Elec       q    Type
REMARK                         _______ _______ _______ _____ _____    ______ ____
ROOT
ATOM      1  N   UNL     1       4.509   5.922  17.580  0.00  0.00    +0.000 N 
ATOM      2  N   UNL     1       4.497   7.122  16.951  0.00  0.00    +0.000 NA
ATOM      3  C   UNL     1       3.575   7.819  17.620  0.00  0.00    +0.000 A 
ATOM      4  C   UNL     1       2.996   7.089  18.680  0.00  0.00    +0.000 A 
ATOM      5  C   UNL     1       2.037   7.292  19.685  0.00  0.00    +0.000 A 
ATOM      6  C   UNL     1       1.813   6.243  20.584  0.00  0.00    +0.000 A 
ATOM      7  C   UNL     1       2.499   5.032  20.444  0.00  0.00    +0.000 A 
ATOM      8  N   UNL     1       3.387   4.805  19.440  0.00  0.00    +0.000 NA
ATOM      9  C   UNL     1       3.608   5.851  18.623  0.00  0.00    +0.000 A 
ENDROOT
BRANCH   5  10
ATOM     10  C   UNL     1       1.353   8.600  19.782  0.00  0.00    +0.000 C 
ATOM     11  O   UNL     1       1.219   9.146  20.871  0.00  0.00    +0.000 OA
ATOM     12  N   UNL     1       0.920   9.168  18.605  0.00  0.00    +0.000 N 
ATOM     13  H   UNL     1       1.050   8.723  17.707  0.00  0.00    +0.000 HD
BRANCH  12  14
ATOM     14  C   UNL     1       0.287  10.473  18.611  0.00  0.00    +0.000 C 
BRANCH  14  15
ATOM     15  C   UNL     1      -1.134  10.446  18.026  0.00  0.00    +0.000 C 
BRANCH  15  16
ATOM     16  N   UNL     1      -2.129  11.234  18.790  0.00  0.00    +0.000 NA
ATOM     17  C   UNL     1      -1.550  12.491  19.282  0.00  0.00    +0.000 C 
ATOM     18  C   UNL     1      -3.280  11.538  17.933  0.00  0.00    +0.000 C 
ENDBRANCH  15  16
ENDBRANCH  14  15
ENDBRANCH  12  14
ENDBRANCH   5  10
BRANCH   7  19
ATOM     19  C   UNL     1       2.306   3.936  21.473  0.00  0.00    +0.000 C 
ATOM     20  C   UNL     1       1.304   2.827  21.252  0.00  0.00    +0.000 C 
ATOM     21  C   UNL     1       2.771   2.532  21.168  0.00  0.00    +0.000 C 
ENDBRANCH   7  19
BRANCH   1  23
ATOM     22  C   UNL     1       5.038   4.295  15.767  0.00  0.00    +0.000 C 
ATOM     23  C   UNL     1       5.417   4.858  17.146  0.00  0.00    +0.000 C 
BRANCH  23  24
ATOM     24  C   UNL     1       6.862   5.322  17.133  0.00  0.00    +0.000 C 
ATOM     25  C   UNL     1       7.464   6.134  18.258  0.00  0.00    +0.000 C 
ATOM     26  C   UNL     1       7.860   4.698  18.086  0.00  0.00    +0.000 C 
ENDBRANCH  23  24
ENDBRANCH   1  23
TORSDOF 7
ENDMDL
