MODEL 1
REMARK VINA RESULT:      -6.9      0.000      0.000
REMARK  Name = 
REMARK  2 active torsions:
REMARK  status: ('A' for Active; 'I' for Inactive)
REMARK    1  A    between atoms: C_1  and  N_2
REMARK    2  A    between atoms: N_2  and  C_8
REMARK                            x       y       z     vdW  Elec       q    Type
REMARK                         _______ _______ _______ _____ _____    ______ ____
ROOT
ATOM      1  C   UNL     1       4.267   5.248  18.622  0.00  0.00    +0.000 A 
ATOM      2  C   UNL     1       5.586   5.403  19.087  0.00  0.00    +0.000 A 
ATOM      3  C   UNL     1       6.686   5.221  18.247  0.00  0.00    +0.000 A 
ATOM      4  C   UNL     1       6.491   4.892  16.912  0.00  0.00    +0.000 A 
ATOM      5  C   UNL     1       5.200   4.719  16.421  0.00  0.00    +0.000 A 
ATOM      6  C   UNL     1       4.101   4.909  17.263  0.00  0.00    +0.000 A 
ATOM      7  O   UNL     1       4.934   4.370  15.118  0.00  0.00    +0.000 OA
ATOM      8  C   UNL     1       6.111   3.910  14.442  0.00  0.00    +0.000 C 
ATOM      9  C   UNL     1       7.300   4.803  14.753  0.00  0.00    +0.000 C 
ATOM     10  O   UNL     1       7.620   4.748  16.148  0.00  0.00    +0.000 OA
ENDROOT
BRANCH   1  12
ATOM     11  C   UNL     1       2.578   6.729  19.576  0.00  0.00    +0.000 C 
ATOM     12  N   UNL     1       3.152   5.388  19.489  0.00  0.00    +0.000 N 
ATOM     13  C   UNL     1       2.564   4.350  20.175  0.00  0.00    +0.000 C 
ATOM     14  N   UNL     1       1.345   4.316  20.644  0.00  0.00    +0.000 NA
ATOM     15  C   UNL     1       1.255   3.039  21.401  0.00  0.00    +0.000 C 
ATOM     16  C   UNL     1       2.616   2.352  21.292  0.00  0.00    +0.000 C 
ATOM     17  N   UNL     1       3.355   3.276  20.475  0.00  0.00    +0.000 N 
ATOM     18  H   UNL     1       4.279   3.538  20.793  0.00  0.00    +0.000 HD
ENDBRANCH   1  12
TORSDOF 1
ENDMDL
MODEL 2
REMARK VINA RESULT:      -6.9      3.049      5.929
REMARK  Name = 
REMARK  2 active torsions:
REMARK  status: ('A' for Active; 'I' for Inactive)
REMARK    1  A    between atoms: C_1  and  N_2
REMARK    2  A    between atoms: N_2  and  C_8
REMARK                            x       y       z     vdW  Elec       q    Type
REMARK                         _______ _______ _______ _____ _____    ______ ____
ROOT
ATOM      1  C   UNL     1       4.863   5.795  17.835  0.00  0.00    +0.000 A 
ATOM      2  C   UNL     1       3.699   6.581  17.927  0.00  0.00    +0.000 A 
ATOM      3  C   UNL     1       2.635   6.224  18.756  0.00  0.00    +0.000 A 
ATOM      4  C   UNL     1       2.716   5.071  19.528  0.00  0.00    +0.000 A 
ATOM      5  C   UNL     1       3.848   4.264  19.454  0.00  0.00    +0.000 A 
ATOM      6  C   UNL     1       4.913   4.629  18.627  0.00  0.00    +0.000 A 
ATOM      7  O   UNL     1       3.985   3.099  20.170  0.00  0.00    +0.000 OA
ATOM      8  C   UNL     1       2.738   2.671  20.732  0.00  0.00    +0.000 C 
ATOM      9  C   UNL     1       1.987   3.843  21.341  0.00  0.00    +0.000 C 
ATOM     10  O   UNL     1       1.639   4.797  20.330  0.00  0.00    +0.000 OA
ENDROOT
BRANCH   1  12
ATOM     11  C   UNL     1       6.743   7.277  17.361  0.00  0.00    +0.000 C 
ATOM     12  N   UNL     1       5.923   6.137  16.956  0.00  0.00    +0.000 N 
ATOM     13  C   UNL     1       6.247   5.435  15.817  0.00  0.00    +0.000 C 
ATOM     14  N   UNL     1       7.402   5.432  15.206  0.00  0.00    +0.000 NA
ATOM     15  C   UNL     1       7.188   4.624  13.976  0.00  0.00    +0.000 C 
ATOM     16  C   UNL     1       5.729   4.170  13.982  0.00  0.00    +0.000 C 
ATOM     17  N   UNL     1       5.243   4.735  15.211  0.00  0.00    +0.000 N 
ATOM     18  H   UNL     1       4.369   5.245  15.172  0.00  0.00    +0.000 HD
ENDBRANCH   1  12
TORSDOF 1
ENDMDL
MODEL 3
REMARK VINA RESULT:      -6.8      1.284      1.534
REMARK  Name = 
REMARK  2 active torsions:
REMARK  status: ('A' for Active; 'I' for Inactive)
REMARK    1  A    between atoms: C_1  and  N_2
REMARK    2  A    between atoms: N_2  and  C_8
REMARK                            x       y       z     vdW  Elec       q    Type
REMARK                         _______ _______ _______ _____ _____    ______ ____
ROOT
ATOM      1  C   UNL     1       5.003   5.192  17.575  0.00  0.00    +0.000 A 
ATOM      2  C   UNL     1       6.256   5.810  17.738  0.00  0.00    +0.000 A 
ATOM      3  C   UNL     1       7.198   5.842  16.709  0.00  0.00    +0.000 A 
ATOM      4  C   UNL     1       6.901   5.266  15.480  0.00  0.00    +0.000 A 
ATOM      5  C   UNL     1       5.674   4.636  15.287  0.00  0.00    +0.000 A 
ATOM      6  C   UNL     1       4.732   4.611  16.318  0.00  0.00    +0.000 A 
ATOM      7  O   UNL     1       5.324   4.025  14.107  0.00  0.00    +0.000 OA
ATOM      8  C   UNL     1       6.455   3.844  13.246  0.00  0.00    +0.000 C 
ATOM      9  C   UNL     1       7.320   5.093  13.217  0.00  0.00    +0.000 C 
ATOM     10  O   UNL     1       7.869   5.354  14.514  0.00  0.00    +0.000 OA
ENDROOT
BRANCH   1  12
ATOM     11  C   UNL     1       3.263   6.320  18.861  0.00  0.00    +0.000 C 
ATOM     12  N   UNL     1       4.066   5.120  18.639  0.00  0.00    +0.000 N 
ATOM     13  C   UNL     1       3.837   3.996  19.400  0.00  0.00    +0.000 C 
ATOM     14  N   UNL     1       2.759   3.727  20.088  0.00  0.00    +0.000 NA
ATOM     15  C   UNL     1       3.070   2.470  20.820  0.00  0.00    +0.000 C 
ATOM     16  C   UNL     1       4.494   2.068  20.442  0.00  0.00    +0.000 C 
ATOM     17  N   UNL     1       4.867   3.107  19.522  0.00  0.00    +0.000 N 
ATOM     18  H   UNL     1       5.764   3.554  19.667  0.00  0.00    +0.000 HD
ENDBRANCH   1  12
TORSDOF 1
ENDMDL
MODEL 4
REMARK VINA RESULT:      -6.7      2.937      5.888
REMARK  Name = 
REMARK  2 active torsions:
REMARK  status: ('A' for Active; 'I' for Inactive)
REMARK    1  A    between atoms: C_1  and  N_2
REMARK    2  A    between atoms: N_2  and  C_8
REMARK                            x       y       z     vdW  Elec       q    Type
REMARK                         _______ _______ _______ _____ _____    ______ ____
ROOT
ATOM      1  C   UNL     1       4.988   5.020  18.630  0.00  0.00    +0.000 A 
ATOM      2  C   UNL     1       4.187   6.082  19.090  0.00  0.00    +0.000 A 
ATOM      3  C   UNL     1       2.980   5.856  19.753  0.00  0.00    +0.000 A 
ATOM      4  C   UNL     1       2.550   4.556  19.986  0.00  0.00    +0.000 A 
ATOM      5  C   UNL     1       3.312   3.482  19.534  0.00  0.00    +0.000 A 
ATOM      6  C   UNL     1       4.523   3.712  18.876  0.00  0.00    +0.000 A 
ATOM      7  O   UNL     1       2.936   2.171  19.708  0.00  0.00    +0.000 OA
ATOM      8  C   UNL     1       1.564   2.061  20.107  0.00  0.00    +0.000 C 
ATOM      9  C   UNL     1       1.226   3.088  21.176  0.00  0.00    +0.000 C 
ATOM     10  O   UNL     1       1.364   4.416  20.658  0.00  0.00    +0.000 OA
ENDROOT
BRANCH   1  12
ATOM     11  C   UNL     1       7.310   5.766  18.704  0.00  0.00    +0.000 C 
ATOM     12  N   UNL     1       6.192   5.254  17.915  0.00  0.00    +0.000 N 
ATOM     13  C   UNL     1       6.373   4.969  16.581  0.00  0.00    +0.000 C 
ATOM     14  N   UNL     1       7.513   4.773  15.973  0.00  0.00    +0.000 NA
ATOM     15  C   UNL     1       7.165   4.631  14.534  0.00  0.00    +0.000 C 
ATOM     16  C   UNL     1       5.649   4.780  14.418  0.00  0.00    +0.000 C 
ATOM     17  N   UNL     1       5.260   4.973  15.788  0.00  0.00    +0.000 N 
ATOM     18  H   UNL     1       4.632   5.743  15.986  0.00  0.00    +0.000 HD
ENDBRANCH   1  12
TORSDOF 1
ENDMDL
MODEL 5
REMARK VINA RESULT:      -6.6      3.326      5.682
REMARK  Name = 
REMARK  2 active torsions:
REMARK  status: ('A' for Active; 'I' for Inactive)
REMARK    1  A    between atoms: C_1  and  N_2
REMARK    2  A    between atoms: N_2  and  C_8
REMARK                            x       y       z     vdW  Elec       q    Type
REMARK                         _______ _______ _______ _____ _____    ______ ____
ROOT
ATOM      1  C   UNL     1       4.474   4.995  17.288  0.00  0.00    +0.000 A 
ATOM      2  C   UNL     1       4.539   3.622  16.985  0.00  0.00    +0.000 A 
ATOM      3  C   UNL     1       3.672   2.699  17.571  0.00  0.00    +0.000 A 
ATOM      4  C   UNL     1       2.704   3.132  18.470  0.00  0.00    +0.000 A 
ATOM      5  C   UNL     1       2.619   4.481  18.801  0.00  0.00    +0.000 A 
ATOM      6  C   UNL     1       3.485   5.403  18.207  0.00  0.00    +0.000 A 
ATOM      7  O   UNL     1       1.703   4.975  19.698  0.00  0.00    +0.000 OA
ATOM      8  C   UNL     1       1.088   3.929  20.460  0.00  0.00    +0.000 C 
ATOM      9  C   UNL     1       0.710   2.758  19.568  0.00  0.00    +0.000 C 
ATOM     10  O   UNL     1       1.879   2.168  18.989  0.00  0.00    +0.000 OA
ENDROOT
BRANCH   1  12
ATOM     11  C   UNL     1       5.130   6.309  15.340  0.00  0.00    +0.000 C 
ATOM     12  N   UNL     1       5.387   5.924  16.726  0.00  0.00    +0.000 N 
ATOM     13  C   UNL     1       6.425   6.510  17.414  0.00  0.00    +0.000 C 
ATOM     14  N   UNL     1       7.028   7.630  17.112  0.00  0.00    +0.000 NA
ATOM     15  C   UNL     1       8.144   7.745  18.088  0.00  0.00    +0.000 C 
ATOM     16  C   UNL     1       8.083   6.515  18.992  0.00  0.00    +0.000 C 
ATOM     17  N   UNL     1       6.938   5.817  18.474  0.00  0.00    +0.000 N 
ATOM     18  H   UNL     1       7.045   4.827  18.288  0.00  0.00    +0.000 HD
ENDBRANCH   1  12
TORSDOF 1
ENDMDL
MODEL 6
REMARK VINA RESULT:      -6.6      3.233      5.863
REMARK  Name = 
REMARK  2 active torsions:
REMARK  status: ('A' for Active; 'I' for Inactive)
REMARK    1  A    between atoms: C_1  and  N_2
REMARK    2  A    between atoms: N_2  and  C_8
REMARK                            x       y       z     vdW  Elec       q    Type
REMARK                         _______ _______ _______ _____ _____    ______ ____
ROOT
ATOM      1  C   UNL     1       5.068   4.708  17.374  0.00  0.00    +0.000 A 
ATOM      2  C   UNL     1       5.565   4.178  18.580  0.00  0.00    +0.000 A 
ATOM      3  C   UNL     1       4.755   3.443  19.447  0.00  0.00    +0.000 A 
ATOM      4  C   UNL     1       3.425   3.207  19.120  0.00  0.00    +0.000 A 
ATOM      5  C   UNL     1       2.897   3.726  17.941  0.00  0.00    +0.000 A 
ATOM      6  C   UNL     1       3.713   4.456  17.073  0.00  0.00    +0.000 A 
ATOM      7  O   UNL     1       1.587   3.552  17.567  0.00  0.00    +0.000 OA
ATOM      8  C   UNL     1       0.785   3.067  18.651  0.00  0.00    +0.000 C 
ATOM      9  C   UNL     1       1.504   1.960  19.405  0.00  0.00    +0.000 C 
ATOM     10  O   UNL     1       2.700   2.462  20.013  0.00  0.00    +0.000 OA
ENDROOT
BRANCH   1  12
ATOM     11  C   UNL     1       6.226   6.825  17.013  0.00  0.00    +0.000 C 
ATOM     12  N   UNL     1       5.881   5.494  16.518  0.00  0.00    +0.000 N 
ATOM     13  C   UNL     1       6.397   5.060  15.318  0.00  0.00    +0.000 C 
ATOM     14  N   UNL     1       7.440   5.543  14.697  0.00  0.00    +0.000 NA
ATOM     15  C   UNL     1       7.493   4.812  13.403  0.00  0.00    +0.000 C 
ATOM     16  C   UNL     1       6.316   3.839  13.384  0.00  0.00    +0.000 C 
ATOM     17  N   UNL     1       5.706   4.079  14.663  0.00  0.00    +0.000 N 
ATOM     18  H   UNL     1       4.704   4.220  14.678  0.00  0.00    +0.000 HD
ENDBRANCH   1  12
TORSDOF 1
ENDMDL
MODEL 7
REMARK VINA RESULT:      -6.6      3.277      5.998
REMARK  Name = 
REMARK  2 active torsions:
REMARK  status: ('A' for Active; 'I' for Inactive)
REMARK    1  A    between atoms: C_1  and  N_2
REMARK    2  A    between atoms: N_2  and  C_8
REMARK                            x       y       z     vdW  Elec       q    Type
REMARK                         _______ _______ _______ _____ _____    ______ ____
ROOT
ATOM      1  C   UNL     1       5.314   5.293  17.810  0.00  0.00    +0.000 A 
ATOM      2  C   UNL     1       5.481   4.030  18.406  0.00  0.00    +0.000 A 
ATOM      3  C   UNL     1       4.589   3.547  19.364  0.00  0.00    +0.000 A 
ATOM      4  C   UNL     1       3.494   4.314  19.741  0.00  0.00    +0.000 A 
ATOM      5  C   UNL     1       3.304   5.574  19.179  0.00  0.00    +0.000 A 
ATOM      6  C   UNL     1       4.196   6.051  18.215  0.00  0.00    +0.000 A 
ATOM      7  O   UNL     1       2.257   6.396  19.522  0.00  0.00    +0.000 OA
ATOM      8  C   UNL     1       1.598   5.949  20.713  0.00  0.00    +0.000 C 
ATOM      9  C   UNL     1       1.393   4.443  20.687  0.00  0.00    +0.000 C 
ATOM     10  O   UNL     1       2.654   3.764  20.674  0.00  0.00    +0.000 OA
ENDROOT
BRANCH   1  12
ATOM     11  C   UNL     1       7.028   6.956  17.309  0.00  0.00    +0.000 C 
ATOM     12  N   UNL     1       6.248   5.800  16.870  0.00  0.00    +0.000 N 
ATOM     13  C   UNL     1       6.496   5.240  15.637  0.00  0.00    +0.000 C 
ATOM     14  N   UNL     1       7.576   5.386  14.917  0.00  0.00    +0.000 NA
ATOM     15  C   UNL     1       7.286   4.688  13.637  0.00  0.00    +0.000 C 
ATOM     16  C   UNL     1       5.871   4.123  13.740  0.00  0.00    +0.000 C 
ATOM     17  N   UNL     1       5.482   4.526  15.064  0.00  0.00    +0.000 N 
ATOM     18  H   UNL     1       4.576   4.967  15.166  0.00  0.00    +0.000 HD
ENDBRANCH   1  12
TORSDOF 1
ENDMDL
MODEL 8
REMARK VINA RESULT:      -6.5      1.443      2.243
REMARK  Name = 
REMARK  2 active torsions:
REMARK  status: ('A' for Active; 'I' for Inactive)
REMARK    1  A    between atoms: C_1  and  N_2
REMARK    2  A    between atoms: N_2  and  C_8
REMARK                            x       y       z     vdW  Elec       q    Type
REMARK                         _______ _______ _______ _____ _____    ______ ____
ROOT
ATOM      1  C   UNL     1       4.889   4.167  17.803  0.00  0.00    +0.000 A 
ATOM      2  C   UNL     1       6.193   4.571  18.146  0.00  0.00    +0.000 A 
ATOM      3  C   UNL     1       7.174   4.784  17.176  0.00  0.00    +0.000 A 
ATOM      4  C   UNL     1       6.868   4.609  15.832  0.00  0.00    +0.000 A 
ATOM      5  C   UNL     1       5.591   4.197  15.458  0.00  0.00    +0.000 A 
ATOM      6  C   UNL     1       4.611   3.992  16.432  0.00  0.00    +0.000 A 
ATOM      7  O   UNL     1       5.227   3.982  14.151  0.00  0.00    +0.000 OA
ATOM      8  C   UNL     1       6.367   3.922  13.284  0.00  0.00    +0.000 C 
ATOM      9  C   UNL     1       7.358   5.026  13.616  0.00  0.00    +0.000 C 
ATOM     10  O   UNL     1       7.879   4.853  14.939  0.00  0.00    +0.000 OA
ENDROOT
BRANCH   1  12
ATOM     11  C   UNL     1       3.709   2.501  19.140  0.00  0.00    +0.000 C 
ATOM     12  N   UNL     1       3.908   3.907  18.795  0.00  0.00    +0.000 N 
ATOM     13  C   UNL     1       3.207   4.879  19.470  0.00  0.00    +0.000 C 
ATOM     14  N   UNL     1       2.617   4.753  20.630  0.00  0.00    +0.000 NA
ATOM     15  C   UNL     1       1.906   6.041  20.846  0.00  0.00    +0.000 C 
ATOM     16  C   UNL     1       2.182   6.920  19.627  0.00  0.00    +0.000 C 
ATOM     17  N   UNL     1       3.033   6.076  18.833  0.00  0.00    +0.000 N 
ATOM     18  H   UNL     1       2.800   5.976  17.853  0.00  0.00    +0.000 HD
ENDBRANCH   1  12
TORSDOF 1
ENDMDL
MODEL 9
REMARK VINA RESULT:      -6.4      1.034      2.368
REMARK  Name = 
REMARK  2 active torsions:
REMARK  status: ('A' for Active; 'I' for Inactive)
REMARK    1  A    between atoms: C_1  and  N_2
REMARK    2  A    between atoms: N_2  and  C_8
REMARK                            x       y       z     vdW  Elec       q    Type
REMARK                         _______ _______ _______ _____ _____    ______ ____
ROOT
ATOM      1  C   UNL     1       4.231   4.902  18.512  0.00  0.00    +0.000 A 
ATOM      2  C   UNL     1       5.535   5.079  19.012  0.00  0.00    +0.000 A 
ATOM      3  C   UNL     1       6.655   4.999  18.184  0.00  0.00    +0.000 A 
ATOM      4  C   UNL     1       6.497   4.752  16.826  0.00  0.00    +0.000 A 
ATOM      5  C   UNL     1       5.222   4.560  16.299  0.00  0.00    +0.000 A 
ATOM      6  C   UNL     1       4.103   4.648  17.131  0.00  0.00    +0.000 A 
ATOM      7  O   UNL     1       4.993   4.289  14.972  0.00  0.00    +0.000 OA
ATOM      8  C   UNL     1       6.199   3.923  14.289  0.00  0.00    +0.000 C 
ATOM      9  C   UNL     1       7.345   4.841  14.681  0.00  0.00    +0.000 C 
ATOM     10  O   UNL     1       7.643   4.705  16.076  0.00  0.00    +0.000 OA
ENDROOT
BRANCH   1  12
ATOM     11  C   UNL     1       2.614   3.642  19.835  0.00  0.00    +0.000 C 
ATOM     12  N   UNL     1       3.098   4.938  19.365  0.00  0.00    +0.000 N 
ATOM     13  C   UNL     1       2.493   6.092  19.808  0.00  0.00    +0.000 C 
ATOM     14  N   UNL     1       1.743   6.221  20.871  0.00  0.00    +0.000 NA
ATOM     15  C   UNL     1       1.245   7.621  20.826  0.00  0.00    +0.000 C 
ATOM     16  C   UNL     1       1.827   8.269  19.571  0.00  0.00    +0.000 C 
ATOM     17  N   UNL     1       2.616   7.201  19.019  0.00  0.00    +0.000 N 
ATOM     18  H   UNL     1       2.500   7.003  18.033  0.00  0.00    +0.000 HD
ENDBRANCH   1  12
TORSDOF 1
ENDMDL
