MODEL 1
REMARK VINA RESULT:      -7.1      0.000      0.000
REMARK  Name = 
REMARK  7 active torsions:
REMARK  status: ('A' for Active; 'I' for Inactive)
REMARK    1  A    between atoms: C_1  and  C_2
REMARK    2  A    between atoms: N_4  and  C_5
REMARK    3  A    between atoms: C_6  and  C_7
REMARK    4  A    between atoms: C_16  and  O_17
REMARK    5  A    between atoms: O_17  and  C_18
REMARK    6  A    between atoms: C_18  and  C_19
REMARK    7  A    between atoms: C_21  and  N_22
REMARK                            x       y       z     vdW  Elec       q    Type
REMARK                         _______ _______ _______ _____ _____    ______ ____
ROOT
ATOM      1  C   UNL     1       3.317   5.103  18.669  0.00  0.00    +0.000 A 
ATOM      2  C   UNL     1       3.770   5.927  17.613  0.00  0.00    +0.000 A 
ATOM      3  C   UNL     1       4.615   5.437  16.460  0.00  0.00    +0.000 C 
ATOM      4  C   UNL     1       3.404   7.290  17.558  0.00  0.00    +0.000 A 
ATOM      5  C   UNL     1       2.556   7.786  18.546  0.00  0.00    +0.000 A 
ATOM      6  C   UNL     1       2.021   6.999  19.573  0.00  0.00    +0.000 A 
ATOM      7  N   UNL     1       1.204   7.772  20.405  0.00  0.00    +0.000 NA
ATOM      8  C   UNL     1       1.257   8.979  19.895  0.00  0.00    +0.000 A 
ATOM      9  N   UNL     1       2.033   9.006  18.779  0.00  0.00    +0.000 N 
ATOM     10  C   UNL     1       2.070  10.290  18.119  0.00  0.00    +0.000 C 
ATOM     11  C   UNL     1       1.499  11.217  19.198  0.00  0.00    +0.000 C 
ATOM     12  C   UNL     1       0.636  10.313  20.127  0.00  0.00    +0.000 C 
ATOM     13  C   UNL     1       2.393   5.647  19.593  0.00  0.00    +0.000 A 
ENDROOT
BRANCH   1  17
ATOM     14  C   UNL     1       3.690   1.365  18.441  0.00  0.00    +0.000 C 
ATOM     15  C   UNL     1       3.074   2.710  18.161  0.00  0.00    +0.000 C 
ATOM     16  O   UNL     1       2.087   2.830  17.443  0.00  0.00    +0.000 OA
ATOM     17  N   UNL     1       3.752   3.751  18.788  0.00  0.00    +0.000 N 
ATOM     18  H   UNL     1       4.753   3.587  18.855  0.00  0.00    +0.000 HD
ENDBRANCH   1  17
BRANCH  13  19
ATOM     19  N   UNL     1       1.811   4.847  20.636  0.00  0.00    +0.000 N 
ATOM     20  O   UNL     1       2.535   4.562  21.602  0.00  0.00    +0.000 OA
ATOM     21  O   UNL     1       0.680   4.383  20.438  0.00  0.00    +0.000 OA
ENDBRANCH  13  19
BRANCH  12  22
ATOM     22  O   UNL     1       0.798  10.682  21.495  0.00  0.00    +0.000 OA
BRANCH  22  23
ATOM     23  C   UNL     1      -0.366  10.676  22.197  0.00  0.00    +0.000 C 
ATOM     24  C   UNL     1      -0.344   9.641  23.280  0.00  0.00    +0.000 C 
ATOM     25  O   UNL     1      -1.298  11.450  22.019  0.00  0.00    +0.000 OA
ENDBRANCH  22  23
ENDBRANCH  12  22
TORSDOF 4
ENDMDL
MODEL 2
REMARK VINA RESULT:      -6.7      1.915      6.600
REMARK  Name = 
REMARK  7 active torsions:
REMARK  status: ('A' for Active; 'I' for Inactive)
REMARK    1  A    between atoms: C_1  and  C_2
REMARK    2  A    between atoms: N_4  and  C_5
REMARK    3  A    between atoms: C_6  and  C_7
REMARK    4  A    between atoms: C_16  and  O_17
REMARK    5  A    between atoms: O_17  and  C_18
REMARK    6  A    between atoms: C_18  and  C_19
REMARK    7  A    between atoms: C_21  and  N_22
REMARK                            x       y       z     vdW  Elec       q    Type
REMARK                         _______ _______ _______ _____ _____    ______ ____
ROOT
ATOM      1  C   UNL     1       0.918   9.914  19.708  0.00  0.00    +0.000 A 
ATOM      2  C   UNL     1       1.656  10.031  18.507  0.00  0.00    +0.000 A 
ATOM      3  C   UNL     1       1.749  11.298  17.690  0.00  0.00    +0.000 C 
ATOM      4  C   UNL     1       2.408   8.940  18.018  0.00  0.00    +0.000 A 
ATOM      5  C   UNL     1       2.433   7.766  18.769  0.00  0.00    +0.000 A 
ATOM      6  C   UNL     1       1.779   7.621  19.999  0.00  0.00    +0.000 A 
ATOM      7  N   UNL     1       1.991   6.338  20.515  0.00  0.00    +0.000 NA
ATOM      8  C   UNL     1       2.739   5.738  19.619  0.00  0.00    +0.000 A 
ATOM      9  N   UNL     1       3.033   6.573  18.588  0.00  0.00    +0.000 N 
ATOM     10  C   UNL     1       3.921   6.002  17.604  0.00  0.00    +0.000 C 
ATOM     11  C   UNL     1       3.863   4.511  17.951  0.00  0.00    +0.000 C 
ATOM     12  C   UNL     1       3.442   4.436  19.449  0.00  0.00    +0.000 C 
ATOM     13  C   UNL     1       1.052   8.726  20.464  0.00  0.00    +0.000 A 
ENDROOT
BRANCH   1  17
ATOM     14  C   UNL     1      -0.478  13.002  21.346  0.00  0.00    +0.000 C 
ATOM     15  C   UNL     1       0.581  12.005  20.957  0.00  0.00    +0.000 C 
ATOM     16  O   UNL     1       1.747  12.132  21.314  0.00  0.00    +0.000 OA
ATOM     17  N   UNL     1       0.082  10.976  20.165  0.00  0.00    +0.000 N 
ATOM     18  H   UNL     1      -0.667  11.278  19.550  0.00  0.00    +0.000 HD
ENDBRANCH   1  17
BRANCH  13  19
ATOM     19  N   UNL     1       0.413   8.569  21.742  0.00  0.00    +0.000 N 
ATOM     20  O   UNL     1      -0.733   8.094  21.747  0.00  0.00    +0.000 OA
ATOM     21  O   UNL     1       0.987   9.043  22.732  0.00  0.00    +0.000 OA
ENDBRANCH  13  19
BRANCH  12  22
ATOM     22  O   UNL     1       2.524   3.367  19.670  0.00  0.00    +0.000 OA
BRANCH  22  23
ATOM     23  C   UNL     1       2.657   2.785  20.892  0.00  0.00    +0.000 C 
ATOM     24  C   UNL     1       1.355   2.768  21.632  0.00  0.00    +0.000 C 
ATOM     25  O   UNL     1       3.687   2.283  21.322  0.00  0.00    +0.000 OA
ENDBRANCH  22  23
ENDBRANCH  12  22
TORSDOF 4
ENDMDL
MODEL 3
REMARK VINA RESULT:      -6.7      2.002      6.540
REMARK  Name = 
REMARK  7 active torsions:
REMARK  status: ('A' for Active; 'I' for Inactive)
REMARK    1  A    between atoms: C_1  and  C_2
REMARK    2  A    between atoms: N_4  and  C_5
REMARK    3  A    between atoms: C_6  and  C_7
REMARK    4  A    between atoms: C_16  and  O_17
REMARK    5  A    between atoms: O_17  and  C_18
REMARK    6  A    between atoms: C_18  and  C_19
REMARK    7  A    between atoms: C_21  and  N_22
REMARK                            x       y       z     vdW  Elec       q    Type
REMARK                         _______ _______ _______ _____ _____    ______ ____
ROOT
ATOM      1  C   UNL     1       0.908  10.136  19.794  0.00  0.00    +0.000 A 
ATOM      2  C   UNL     1       1.618  10.254  18.575  0.00  0.00    +0.000 A 
ATOM      3  C   UNL     1       1.722  11.533  17.778  0.00  0.00    +0.000 C 
ATOM      4  C   UNL     1       2.328   9.153  18.049  0.00  0.00    +0.000 A 
ATOM      5  C   UNL     1       2.342   7.967  18.779  0.00  0.00    +0.000 A 
ATOM      6  C   UNL     1       1.717   7.816  20.023  0.00  0.00    +0.000 A 
ATOM      7  N   UNL     1       1.910   6.519  20.512  0.00  0.00    +0.000 NA
ATOM      8  C   UNL     1       2.618   5.917  19.587  0.00  0.00    +0.000 A 
ATOM      9  N   UNL     1       2.906   6.762  18.562  0.00  0.00    +0.000 N 
ATOM     10  C   UNL     1       3.754   6.185  17.545  0.00  0.00    +0.000 C 
ATOM     11  C   UNL     1       3.666   4.690  17.869  0.00  0.00    +0.000 C 
ATOM     12  C   UNL     1       3.282   4.600  19.376  0.00  0.00    +0.000 C 
ATOM     13  C   UNL     1       1.032   8.932  20.526  0.00  0.00    +0.000 A 
ENDROOT
BRANCH   1  17
ATOM     14  C   UNL     1      -1.834  12.620  20.482  0.00  0.00    +0.000 C 
ATOM     15  C   UNL     1      -1.189  11.417  19.847  0.00  0.00    +0.000 C 
ATOM     16  O   UNL     1      -1.789  10.717  19.038  0.00  0.00    +0.000 OA
ATOM     17  N   UNL     1       0.113  11.210  20.290  0.00  0.00    +0.000 N 
ATOM     18  H   UNL     1       0.248  11.481  21.260  0.00  0.00    +0.000 HD
ENDBRANCH   1  17
BRANCH  13  19
ATOM     19  N   UNL     1       0.422   8.768  21.817  0.00  0.00    +0.000 N 
ATOM     20  O   UNL     1      -0.695   8.230  21.852  0.00  0.00    +0.000 OA
ATOM     21  O   UNL     1       0.984   9.297  22.786  0.00  0.00    +0.000 OA
ENDBRANCH  13  19
BRANCH  12  22
ATOM     22  O   UNL     1       2.343   3.552  19.604  0.00  0.00    +0.000 OA
BRANCH  22  23
ATOM     23  C   UNL     1       2.603   2.828  20.725  0.00  0.00    +0.000 C 
ATOM     24  C   UNL     1       1.387   2.712  21.593  0.00  0.00    +0.000 C 
ATOM     25  O   UNL     1       3.670   2.286  20.980  0.00  0.00    +0.000 OA
ENDBRANCH  22  23
ENDBRANCH  12  22
TORSDOF 4
ENDMDL
MODEL 4
REMARK VINA RESULT:      -6.6      3.892      7.280
REMARK  Name = 
REMARK  7 active torsions:
REMARK  status: ('A' for Active; 'I' for Inactive)
REMARK    1  A    between atoms: C_1  and  C_2
REMARK    2  A    between atoms: N_4  and  C_5
REMARK    3  A    between atoms: C_6  and  C_7
REMARK    4  A    between atoms: C_16  and  O_17
REMARK    5  A    between atoms: O_17  and  C_18
REMARK    6  A    between atoms: C_18  and  C_19
REMARK    7  A    between atoms: C_21  and  N_22
REMARK                            x       y       z     vdW  Elec       q    Type
REMARK                         _______ _______ _______ _____ _____    ______ ____
ROOT
ATOM      1  C   UNL     1       3.207   4.251  19.841  0.00  0.00    +0.000 A 
ATOM      2  C   UNL     1       2.989   5.591  19.444  0.00  0.00    +0.000 A 
ATOM      3  C   UNL     1       2.225   6.603  20.265  0.00  0.00    +0.000 C 
ATOM      4  C   UNL     1       3.535   6.080  18.236  0.00  0.00    +0.000 A 
ATOM      5  C   UNL     1       4.322   5.220  17.472  0.00  0.00    +0.000 A 
ATOM      6  C   UNL     1       4.627   3.908  17.853  0.00  0.00    +0.000 A 
ATOM      7  N   UNL     1       5.438   3.297  16.890  0.00  0.00    +0.000 NA
ATOM      8  C   UNL     1       5.603   4.212  15.965  0.00  0.00    +0.000 A 
ATOM      9  N   UNL     1       4.970   5.367  16.300  0.00  0.00    +0.000 N 
ATOM     10  C   UNL     1       5.178   6.445  15.362  0.00  0.00    +0.000 C 
ATOM     11  C   UNL     1       5.738   5.702  14.144  0.00  0.00    +0.000 C 
ATOM     12  C   UNL     1       6.363   4.386  14.696  0.00  0.00    +0.000 C 
ATOM     13  C   UNL     1       4.082   3.456  19.063  0.00  0.00    +0.000 A 
ENDROOT
BRANCH   1  17
ATOM     14  C   UNL     1       0.957   2.480  22.283  0.00  0.00    +0.000 C 
ATOM     15  C   UNL     1       1.460   2.907  20.930  0.00  0.00    +0.000 C 
ATOM     16  O   UNL     1       0.910   2.546  19.895  0.00  0.00    +0.000 OA
ATOM     17  N   UNL     1       2.587   3.719  21.009  0.00  0.00    +0.000 N 
ATOM     18  H   UNL     1       3.191   3.481  21.791  0.00  0.00    +0.000 HD
ENDBRANCH   1  17
BRANCH  13  19
ATOM     19  N   UNL     1       4.430   2.117  19.453  0.00  0.00    +0.000 N 
ATOM     20  O   UNL     1       3.882   1.188  18.840  0.00  0.00    +0.000 OA
ATOM     21  O   UNL     1       5.142   1.980  20.458  0.00  0.00    +0.000 OA
ENDBRANCH  13  19
BRANCH  12  22
ATOM     22  O   UNL     1       6.094   3.289  13.826  0.00  0.00    +0.000 OA
BRANCH  22  23
ATOM     23  C   UNL     1       6.208   3.604  12.508  0.00  0.00    +0.000 C 
ATOM     24  C   UNL     1       4.938   3.316  11.768  0.00  0.00    +0.000 C 
ATOM     25  O   UNL     1       7.193   4.112  11.989  0.00  0.00    +0.000 OA
ENDBRANCH  22  23
ENDBRANCH  12  22
TORSDOF 4
ENDMDL
MODEL 5
REMARK VINA RESULT:      -6.6      2.003      6.922
REMARK  Name = 
REMARK  7 active torsions:
REMARK  status: ('A' for Active; 'I' for Inactive)
REMARK    1  A    between atoms: C_1  and  C_2
REMARK    2  A    between atoms: N_4  and  C_5
REMARK    3  A    between atoms: C_6  and  C_7
REMARK    4  A    between atoms: C_16  and  O_17
REMARK    5  A    between atoms: O_17  and  C_18
REMARK    6  A    between atoms: C_18  and  C_19
REMARK    7  A    between atoms: C_21  and  N_22
REMARK                            x       y       z     vdW  Elec       q    Type
REMARK                         _______ _______ _______ _____ _____    ______ ____
ROOT
ATOM      1  C   UNL     1       0.321  10.655  20.362  0.00  0.00    +0.000 A 
ATOM      2  C   UNL     1       0.909  10.900  19.098  0.00  0.00    +0.000 A 
ATOM      3  C   UNL     1       0.832  12.222  18.372  0.00  0.00    +0.000 C 
ATOM      4  C   UNL     1       1.663   9.897  18.451  0.00  0.00    +0.000 A 
ATOM      5  C   UNL     1       1.843   8.681  19.106  0.00  0.00    +0.000 A 
ATOM      6  C   UNL     1       1.345   8.410  20.386  0.00  0.00    +0.000 A 
ATOM      7  N   UNL     1       1.691   7.112  20.780  0.00  0.00    +0.000 NA
ATOM      8  C   UNL     1       2.365   6.625  19.765  0.00  0.00    +0.000 A 
ATOM      9  N   UNL     1       2.488   7.545  18.772  0.00  0.00    +0.000 N 
ATOM     10  C   UNL     1       3.290   7.102  17.656  0.00  0.00    +0.000 C 
ATOM     11  C   UNL     1       3.360   5.590  17.897  0.00  0.00    +0.000 C 
ATOM     12  C   UNL     1       3.119   5.388  19.423  0.00  0.00    +0.000 C 
ATOM     13  C   UNL     1       0.612   9.431  21.009  0.00  0.00    +0.000 A 
ENDROOT
BRANCH   1  17
ATOM     14  C   UNL     1      -1.050  13.620  22.230  0.00  0.00    +0.000 C 
ATOM     15  C   UNL     1       0.012  12.744  21.619  0.00  0.00    +0.000 C 
ATOM     16  O   UNL     1       1.202  13.032  21.688  0.00  0.00    +0.000 OA
ATOM     17  N   UNL     1      -0.517  11.625  20.986  0.00  0.00    +0.000 N 
ATOM     18  H   UNL     1      -1.423  11.802  20.559  0.00  0.00    +0.000 HD
ENDBRANCH   1  17
BRANCH  13  19
ATOM     19  N   UNL     1       0.134   9.146  22.334  0.00  0.00    +0.000 N 
ATOM     20  O   UNL     1      -0.852   8.399  22.433  0.00  0.00    +0.000 OA
ATOM     21  O   UNL     1       0.645   9.770  23.274  0.00  0.00    +0.000 OA
ENDBRANCH  13  19
BRANCH  12  22
ATOM     22  O   UNL     1       2.297   4.247  19.665  0.00  0.00    +0.000 OA
BRANCH  22  23
ATOM     23  C   UNL     1       2.924   3.271  20.374  0.00  0.00    +0.000 C 
ATOM     24  C   UNL     1       2.063   2.775  21.495  0.00  0.00    +0.000 C 
ATOM     25  O   UNL     1       4.025   2.806  20.109  0.00  0.00    +0.000 OA
ENDBRANCH  22  23
ENDBRANCH  12  22
TORSDOF 4
ENDMDL
MODEL 6
REMARK VINA RESULT:      -6.5      1.761      6.919
REMARK  Name = 
REMARK  7 active torsions:
REMARK  status: ('A' for Active; 'I' for Inactive)
REMARK    1  A    between atoms: C_1  and  C_2
REMARK    2  A    between atoms: N_4  and  C_5
REMARK    3  A    between atoms: C_6  and  C_7
REMARK    4  A    between atoms: C_16  and  O_17
REMARK    5  A    between atoms: O_17  and  C_18
REMARK    6  A    between atoms: C_18  and  C_19
REMARK    7  A    between atoms: C_21  and  N_22
REMARK                            x       y       z     vdW  Elec       q    Type
REMARK                         _______ _______ _______ _____ _____    ______ ____
ROOT
ATOM      1  C   UNL     1       0.525  10.272  19.903  0.00  0.00    +0.000 A 
ATOM      2  C   UNL     1       1.172  10.603  18.689  0.00  0.00    +0.000 A 
ATOM      3  C   UNL     1       1.051  11.943  18.003  0.00  0.00    +0.000 C 
ATOM      4  C   UNL     1       2.031   9.675  18.059  0.00  0.00    +0.000 A 
ATOM      5  C   UNL     1       2.252   8.450  18.684  0.00  0.00    +0.000 A 
ATOM      6  C   UNL     1       1.694   8.100  19.920  0.00  0.00    +0.000 A 
ATOM      7  N   UNL     1       2.102   6.814  20.292  0.00  0.00    +0.000 NA
ATOM      8  C   UNL     1       2.869   6.410  19.308  0.00  0.00    +0.000 A 
ATOM      9  N   UNL     1       2.991   7.372  18.355  0.00  0.00    +0.000 N 
ATOM     10  C   UNL     1       3.890   7.024  17.280  0.00  0.00    +0.000 C 
ATOM     11  C   UNL     1       4.047   5.512  17.475  0.00  0.00    +0.000 C 
ATOM     12  C   UNL     1       3.725   5.238  18.974  0.00  0.00    +0.000 C 
ATOM     13  C   UNL     1       0.857   9.047  20.527  0.00  0.00    +0.000 A 
ENDROOT
BRANCH   1  17
ATOM     14  C   UNL     1      -1.163  12.993  21.882  0.00  0.00    +0.000 C 
ATOM     15  C   UNL     1      -0.007  12.195  21.340  0.00  0.00    +0.000 C 
ATOM     16  O   UNL     1       1.154  12.468  21.626  0.00  0.00    +0.000 OA
ATOM     17  N   UNL     1      -0.415  11.162  20.502  0.00  0.00    +0.000 N 
ATOM     18  H   UNL     1      -1.246  11.393  19.967  0.00  0.00    +0.000 HD
ENDBRANCH   1  17
BRANCH  13  19
ATOM     19  N   UNL     1       0.317   8.683  21.808  0.00  0.00    +0.000 N 
ATOM     20  O   UNL     1      -0.762   8.071  21.816  0.00  0.00    +0.000 OA
ATOM     21  O   UNL     1       0.888   9.123  22.816  0.00  0.00    +0.000 OA
ENDBRANCH  13  19
BRANCH  12  22
ATOM     22  O   UNL     1       2.969   4.038  19.125  0.00  0.00    +0.000 OA
BRANCH  22  23
ATOM     23  C   UNL     1       3.736   2.916  19.149  0.00  0.00    +0.000 C 
ATOM     24  C   UNL     1       3.233   1.891  18.180  0.00  0.00    +0.000 C 
ATOM     25  O   UNL     1       4.745   2.769  19.827  0.00  0.00    +0.000 OA
ENDBRANCH  22  23
ENDBRANCH  12  22
TORSDOF 4
ENDMDL
MODEL 7
REMARK VINA RESULT:      -6.5      1.989      7.120
REMARK  Name = 
REMARK  7 active torsions:
REMARK  status: ('A' for Active; 'I' for Inactive)
REMARK    1  A    between atoms: C_1  and  C_2
REMARK    2  A    between atoms: N_4  and  C_5
REMARK    3  A    between atoms: C_6  and  C_7
REMARK    4  A    between atoms: C_16  and  O_17
REMARK    5  A    between atoms: O_17  and  C_18
REMARK    6  A    between atoms: C_18  and  C_19
REMARK    7  A    between atoms: C_21  and  N_22
REMARK                            x       y       z     vdW  Elec       q    Type
REMARK                         _______ _______ _______ _____ _____    ______ ____
ROOT
ATOM      1  C   UNL     1      -0.203  10.898  20.543  0.00  0.00    +0.000 A 
ATOM      2  C   UNL     1       0.303  11.236  19.265  0.00  0.00    +0.000 A 
ATOM      3  C   UNL     1       0.048  12.555  18.576  0.00  0.00    +0.000 C 
ATOM      4  C   UNL     1       1.140  10.339  18.565  0.00  0.00    +0.000 A 
ATOM      5  C   UNL     1       1.483   9.138  19.182  0.00  0.00    +0.000 A 
ATOM      6  C   UNL     1       1.069   8.785  20.472  0.00  0.00    +0.000 A 
ATOM      7  N   UNL     1       1.574   7.527  20.820  0.00  0.00    +0.000 NA
ATOM      8  C   UNL     1       2.260   7.142  19.770  0.00  0.00    +0.000 A 
ATOM      9  N   UNL     1       2.239   8.091  18.797  0.00  0.00    +0.000 N 
ATOM     10  C   UNL     1       3.042   7.766  17.642  0.00  0.00    +0.000 C 
ATOM     11  C   UNL     1       3.293   6.267  17.842  0.00  0.00    +0.000 C 
ATOM     12  C   UNL     1       3.136   6.007  19.369  0.00  0.00    +0.000 C 
ATOM     13  C   UNL     1       0.249   9.702  21.147  0.00  0.00    +0.000 A 
ENDROOT
BRANCH   1  17
ATOM     14  C   UNL     1      -1.822  13.596  22.608  0.00  0.00    +0.000 C 
ATOM     15  C   UNL     1      -0.688  12.850  21.957  0.00  0.00    +0.000 C 
ATOM     16  O   UNL     1       0.477  13.213  22.080  0.00  0.00    +0.000 OA
ATOM     17  N   UNL     1      -1.122  11.752  21.220  0.00  0.00    +0.000 N 
ATOM     18  H   UNL     1      -2.029  11.901  20.786  0.00  0.00    +0.000 HD
ENDBRANCH   1  17
BRANCH  13  19
ATOM     19  N   UNL     1      -0.142   9.336  22.481  0.00  0.00    +0.000 N 
ATOM     20  O   UNL     1       0.440   9.904  23.417  0.00  0.00    +0.000 OA
ATOM     21  O   UNL     1      -0.928   8.387  22.607  0.00  0.00    +0.000 OA
ENDBRANCH  13  19
BRANCH  12  22
ATOM     22  O   UNL     1       2.459   4.775  19.611  0.00  0.00    +0.000 OA
BRANCH  22  23
ATOM     23  C   UNL     1       3.189   3.681  19.266  0.00  0.00    +0.000 C 
ATOM     24  C   UNL     1       2.414   2.771  18.364  0.00  0.00    +0.000 C 
ATOM     25  O   UNL     1       4.351   3.480  19.595  0.00  0.00    +0.000 OA
ENDBRANCH  22  23
ENDBRANCH  12  22
TORSDOF 4
ENDMDL
MODEL 8
REMARK VINA RESULT:      -6.5      2.481      7.358
REMARK  Name = 
REMARK  7 active torsions:
REMARK  status: ('A' for Active; 'I' for Inactive)
REMARK    1  A    between atoms: C_1  and  C_2
REMARK    2  A    between atoms: N_4  and  C_5
REMARK    3  A    between atoms: C_6  and  C_7
REMARK    4  A    between atoms: C_16  and  O_17
REMARK    5  A    between atoms: O_17  and  C_18
REMARK    6  A    between atoms: C_18  and  C_19
REMARK    7  A    between atoms: C_21  and  N_22
REMARK                            x       y       z     vdW  Elec       q    Type
REMARK                         _______ _______ _______ _____ _____    ______ ____
ROOT
ATOM      1  C   UNL     1       0.445   9.825  20.492  0.00  0.00    +0.000 A 
ATOM      2  C   UNL     1       0.424   8.834  21.502  0.00  0.00    +0.000 A 
ATOM      3  C   UNL     1      -0.382   8.941  22.775  0.00  0.00    +0.000 C 
ATOM      4  C   UNL     1       1.148   7.632  21.343  0.00  0.00    +0.000 A 
ATOM      5  C   UNL     1       1.846   7.434  20.154  0.00  0.00    +0.000 A 
ATOM      6  C   UNL     1       1.843   8.349  19.094  0.00  0.00    +0.000 A 
ATOM      7  N   UNL     1       2.626   7.873  18.036  0.00  0.00    +0.000 NA
ATOM      8  C   UNL     1       3.086   6.718  18.457  0.00  0.00    +0.000 A 
ATOM      9  N   UNL     1       2.617   6.427  19.699  0.00  0.00    +0.000 N 
ATOM     10  C   UNL     1       3.019   5.130  20.190  0.00  0.00    +0.000 C 
ATOM     11  C   UNL     1       4.155   4.765  19.227  0.00  0.00    +0.000 C 
ATOM     12  C   UNL     1       3.896   5.585  17.929  0.00  0.00    +0.000 C 
ATOM     13  C   UNL     1       1.104   9.527  19.277  0.00  0.00    +0.000 A 
ENDROOT
BRANCH   1  17
ATOM     14  C   UNL     1      -0.391  13.414  21.255  0.00  0.00    +0.000 C 
ATOM     15  C   UNL     1       0.494  12.206  21.101  0.00  0.00    +0.000 C 
ATOM     16  O   UNL     1       1.699  12.258  21.325  0.00  0.00    +0.000 OA
ATOM     17  N   UNL     1      -0.205  11.080  20.678  0.00  0.00    +0.000 N 
ATOM     18  H   UNL     1      -0.975  11.304  20.054  0.00  0.00    +0.000 HD
ENDBRANCH   1  17
BRANCH  13  19
ATOM     19  N   UNL     1       1.088  10.441  18.167  0.00  0.00    +0.000 N 
ATOM     20  O   UNL     1       2.129  11.076  17.941  0.00  0.00    +0.000 OA
ATOM     21  O   UNL     1       0.004  10.634  17.601  0.00  0.00    +0.000 OA
ENDBRANCH  13  19
BRANCH  12  22
ATOM     22  O   UNL     1       5.117   6.085  17.388  0.00  0.00    +0.000 OA
BRANCH  22  23
ATOM     23  C   UNL     1       5.213   5.934  16.040  0.00  0.00    +0.000 C 
ATOM     24  C   UNL     1       5.305   4.489  15.659  0.00  0.00    +0.000 C 
ATOM     25  O   UNL     1       5.170   6.848  15.226  0.00  0.00    +0.000 OA
ENDBRANCH  22  23
ENDBRANCH  12  22
TORSDOF 4
ENDMDL
MODEL 9
REMARK VINA RESULT:      -6.3      2.178      7.361
REMARK  Name = 
REMARK  7 active torsions:
REMARK  status: ('A' for Active; 'I' for Inactive)
REMARK    1  A    between atoms: C_1  and  C_2
REMARK    2  A    between atoms: N_4  and  C_5
REMARK    3  A    between atoms: C_6  and  C_7
REMARK    4  A    between atoms: C_16  and  O_17
REMARK    5  A    between atoms: O_17  and  C_18
REMARK    6  A    between atoms: C_18  and  C_19
REMARK    7  A    between atoms: C_21  and  N_22
REMARK                            x       y       z     vdW  Elec       q    Type
REMARK                         _______ _______ _______ _____ _____    ______ ____
ROOT
ATOM      1  C   UNL     1      -0.257  11.564  20.906  0.00  0.00    +0.000 A 
ATOM      2  C   UNL     1       0.165  11.813  19.578  0.00  0.00    +0.000 A 
ATOM      3  C   UNL     1      -0.038  13.125  18.858  0.00  0.00    +0.000 C 
ATOM      4  C   UNL     1       0.863  10.824  18.850  0.00  0.00    +0.000 A 
ATOM      5  C   UNL     1       1.156   9.620  19.486  0.00  0.00    +0.000 A 
ATOM      6  C   UNL     1       0.826   9.349  20.820  0.00  0.00    +0.000 A 
ATOM      7  N   UNL     1       1.254   8.065  21.177  0.00  0.00    +0.000 NA
ATOM      8  C   UNL     1       1.813   7.587  20.091  0.00  0.00    +0.000 A 
ATOM      9  N   UNL     1       1.787   8.499  19.084  0.00  0.00    +0.000 N 
ATOM     10  C   UNL     1       2.460   8.067  17.882  0.00  0.00    +0.000 C 
ATOM     11  C   UNL     1       2.602   6.560  18.122  0.00  0.00    +0.000 C 
ATOM     12  C   UNL     1       2.555   6.367  19.667  0.00  0.00    +0.000 C 
ATOM     13  C   UNL     1       0.145  10.355  21.520  0.00  0.00    +0.000 A 
ENDROOT
BRANCH   1  17
ATOM     14  C   UNL     1      -1.463  14.450  23.000  0.00  0.00    +0.000 C 
ATOM     15  C   UNL     1      -0.453  13.584  22.293  0.00  0.00    +0.000 C 
ATOM     16  O   UNL     1       0.746  13.837  22.324  0.00  0.00    +0.000 OA
ATOM     17  N   UNL     1      -1.040  12.517  21.621  0.00  0.00    +0.000 N 
ATOM     18  H   UNL     1      -1.958  12.742  21.246  0.00  0.00    +0.000 HD
ENDBRANCH   1  17
BRANCH  13  19
ATOM     19  N   UNL     1      -0.159  10.071  22.896  0.00  0.00    +0.000 N 
ATOM     20  O   UNL     1      -1.324  10.272  23.272  0.00  0.00    +0.000 OA
ATOM     21  O   UNL     1       0.785   9.780  23.643  0.00  0.00    +0.000 OA
ENDBRANCH  13  19
BRANCH  12  22
ATOM     22  O   UNL     1       1.802   5.207  20.015  0.00  0.00    +0.000 OA
BRANCH  22  23
ATOM     23  C   UNL     1       2.166   4.097  19.319  0.00  0.00    +0.000 C 
ATOM     24  C   UNL     1       3.483   3.564  19.794  0.00  0.00    +0.000 C 
ATOM     25  O   UNL     1       1.490   3.557  18.454  0.00  0.00    +0.000 OA
ENDBRANCH  22  23
ENDBRANCH  12  22
TORSDOF 4
ENDMDL
