MODEL 1
REMARK VINA RESULT:      -7.1      0.000      0.000
REMARK  Name = 
REMARK  4 active torsions:
REMARK  status: ('A' for Active; 'I' for Inactive)
REMARK    1  A    between atoms: C_1  and  C_2
REMARK    2  A    between atoms: C_5  and  N_6
REMARK    3  A    between atoms: C_7  and  C_8
REMARK    4  A    between atoms: C_9  and  C_10
REMARK                            x       y       z     vdW  Elec       q    Type
REMARK                         _______ _______ _______ _____ _____    ______ ____
ROOT
ATOM      1  C   UNL     1       5.226   5.960  15.114  0.00  0.00    +0.000 C 
ATOM      2  C   UNL     1       6.052   5.821  16.358  0.00  0.00    +0.000 A 
ATOM      3  C   UNL     1       5.971   4.683  17.166  0.00  0.00    +0.000 A 
ATOM      4  C   UNL     1       6.703   4.634  18.353  0.00  0.00    +0.000 A 
ATOM      5  C   UNL     1       7.497   5.724  18.737  0.00  0.00    +0.000 A 
ATOM      6  C   UNL     1       7.563   6.842  17.884  0.00  0.00    +0.000 A 
ATOM      7  N   UNL     1       6.851   6.856  16.728  0.00  0.00    +0.000 NA
ENDROOT
BRANCH   5   8
ATOM      8  N   UNL     1       8.184   5.697  19.978  0.00  0.00    +0.000 N 
ATOM      9  H   UNL     1       7.667   5.566  20.860  0.00  0.00    +0.000 HD
ATOM     10  H   UNL     1       9.207   5.809  20.028  0.00  0.00    +0.000 HD
ENDBRANCH   5   8
BRANCH   6  11
ATOM     11  C   UNL     1       8.234   8.140  18.301  0.00  0.00    +0.000 C 
ATOM     12  C   UNL     1       8.809   9.255  18.660  0.00  0.00    +0.000 C 
BRANCH  12  13
ATOM     13  C   UNL     1       9.479  10.554  19.076  0.00  0.00    +0.000 A 
ATOM     14  C   UNL     1       9.526  10.912  20.429  0.00  0.00    +0.000 A 
ATOM     15  C   UNL     1      10.076  12.141  20.808  0.00  0.00    +0.000 A 
ATOM     16  C   UNL     1      10.612  12.997  19.840  0.00  0.00    +0.000 A 
ATOM     17  C   UNL     1      10.586  12.629  18.492  0.00  0.00    +0.000 A 
ATOM     18  C   UNL     1      10.004  11.418  18.107  0.00  0.00    +0.000 A 
ENDBRANCH  12  13
ENDBRANCH   6  11
TORSDOF 3
ENDMDL
MODEL 2
REMARK VINA RESULT:      -7.1      0.429      1.187
REMARK  Name = 
REMARK  4 active torsions:
REMARK  status: ('A' for Active; 'I' for Inactive)
REMARK    1  A    between atoms: C_1  and  C_2
REMARK    2  A    between atoms: C_5  and  N_6
REMARK    3  A    between atoms: C_7  and  C_8
REMARK    4  A    between atoms: C_9  and  C_10
REMARK                            x       y       z     vdW  Elec       q    Type
REMARK                         _______ _______ _______ _____ _____    ______ ____
ROOT
ATOM      1  C   UNL     1       5.249   5.773  15.042  0.00  0.00    +0.000 C 
ATOM      2  C   UNL     1       6.083   5.712  16.287  0.00  0.00    +0.000 A 
ATOM      3  C   UNL     1       6.060   4.595  17.128  0.00  0.00    +0.000 A 
ATOM      4  C   UNL     1       6.796   4.618  18.314  0.00  0.00    +0.000 A 
ATOM      5  C   UNL     1       7.537   5.756  18.663  0.00  0.00    +0.000 A 
ATOM      6  C   UNL     1       7.546   6.850  17.776  0.00  0.00    +0.000 A 
ATOM      7  N   UNL     1       6.831   6.795  16.623  0.00  0.00    +0.000 NA
ENDROOT
BRANCH   5   8
ATOM      8  N   UNL     1       8.227   5.799  19.902  0.00  0.00    +0.000 N 
ATOM      9  H   UNL     1       8.817   5.009  20.200  0.00  0.00    +0.000 HD
ATOM     10  H   UNL     1       8.152   6.613  20.529  0.00  0.00    +0.000 HD
ENDBRANCH   5   8
BRANCH   6  11
ATOM     11  C   UNL     1       8.153   8.191  18.153  0.00  0.00    +0.000 C 
ATOM     12  C   UNL     1       8.674   9.343  18.476  0.00  0.00    +0.000 C 
BRANCH  12  13
ATOM     13  C   UNL     1       9.282  10.684  18.852  0.00  0.00    +0.000 A 
ATOM     14  C   UNL     1       9.173  11.770  17.975  0.00  0.00    +0.000 A 
ATOM     15  C   UNL     1       9.796  12.984  18.286  0.00  0.00    +0.000 A 
ATOM     16  C   UNL     1      10.496  13.125  19.488  0.00  0.00    +0.000 A 
ATOM     17  C   UNL     1      10.586  12.048  20.375  0.00  0.00    +0.000 A 
ATOM     18  C   UNL     1       9.996  10.822  20.050  0.00  0.00    +0.000 A 
ENDBRANCH  12  13
ENDBRANCH   6  11
TORSDOF 3
ENDMDL
MODEL 3
REMARK VINA RESULT:      -6.9      1.351      1.489
REMARK  Name = 
REMARK  4 active torsions:
REMARK  status: ('A' for Active; 'I' for Inactive)
REMARK    1  A    between atoms: C_1  and  C_2
REMARK    2  A    between atoms: C_5  and  N_6
REMARK    3  A    between atoms: C_7  and  C_8
REMARK    4  A    between atoms: C_9  and  C_10
REMARK                            x       y       z     vdW  Elec       q    Type
REMARK                         _______ _______ _______ _____ _____    ______ ____
ROOT
ATOM      1  C   UNL     1       7.015   4.605  13.751  0.00  0.00    +0.000 C 
ATOM      2  C   UNL     1       6.832   4.819  15.224  0.00  0.00    +0.000 A 
ATOM      3  C   UNL     1       6.024   3.973  15.991  0.00  0.00    +0.000 A 
ATOM      4  C   UNL     1       5.825   4.259  17.343  0.00  0.00    +0.000 A 
ATOM      5  C   UNL     1       6.418   5.391  17.919  0.00  0.00    +0.000 A 
ATOM      6  C   UNL     1       7.240   6.203  17.114  0.00  0.00    +0.000 A 
ATOM      7  N   UNL     1       7.426   5.894  15.805  0.00  0.00    +0.000 NA
ENDROOT
BRANCH   5   8
ATOM      8  N   UNL     1       6.157   5.715  19.276  0.00  0.00    +0.000 N 
ATOM      9  H   UNL     1       6.571   6.556  19.702  0.00  0.00    +0.000 HD
ATOM     10  H   UNL     1       5.555   5.119  19.863  0.00  0.00    +0.000 HD
ENDBRANCH   5   8
BRANCH   6  11
ATOM     11  C   UNL     1       7.764   7.548  17.590  0.00  0.00    +0.000 C 
ATOM     12  C   UNL     1       8.213   8.703  17.999  0.00  0.00    +0.000 C 
BRANCH  12  13
ATOM     13  C   UNL     1       8.737  10.048  18.475  0.00  0.00    +0.000 A 
ATOM     14  C   UNL     1       9.398  10.142  19.706  0.00  0.00    +0.000 A 
ATOM     15  C   UNL     1       9.815  11.391  20.181  0.00  0.00    +0.000 A 
ATOM     16  C   UNL     1       9.603  12.539  19.411  0.00  0.00    +0.000 A 
ATOM     17  C   UNL     1       8.963  12.442  18.172  0.00  0.00    +0.000 A 
ATOM     18  C   UNL     1       8.513  11.200  17.711  0.00  0.00    +0.000 A 
ENDBRANCH  12  13
ENDBRANCH   6  11
TORSDOF 3
ENDMDL
MODEL 4
REMARK VINA RESULT:      -6.7      5.989      7.884
REMARK  Name = 
REMARK  4 active torsions:
REMARK  status: ('A' for Active; 'I' for Inactive)
REMARK    1  A    between atoms: C_1  and  C_2
REMARK    2  A    between atoms: C_5  and  N_6
REMARK    3  A    between atoms: C_7  and  C_8
REMARK    4  A    between atoms: C_9  and  C_10
REMARK                            x       y       z     vdW  Elec       q    Type
REMARK                         _______ _______ _______ _____ _____    ______ ____
ROOT
ATOM      1  C   UNL     1       5.618   2.701  11.696  0.00  0.00    +0.000 C 
ATOM      2  C   UNL     1       6.018   3.623  12.809  0.00  0.00    +0.000 A 
ATOM      3  C   UNL     1       7.239   4.304  12.791  0.00  0.00    +0.000 A 
ATOM      4  C   UNL     1       7.598   5.092  13.886  0.00  0.00    +0.000 A 
ATOM      5  C   UNL     1       6.748   5.184  14.997  0.00  0.00    +0.000 A 
ATOM      6  C   UNL     1       5.520   4.497  14.963  0.00  0.00    +0.000 A 
ATOM      7  N   UNL     1       5.191   3.749  13.879  0.00  0.00    +0.000 NA
ENDROOT
BRANCH   5   8
ATOM      8  N   UNL     1       7.149   5.931  16.135  0.00  0.00    +0.000 N 
ATOM      9  H   UNL     1       6.774   6.876  16.300  0.00  0.00    +0.000 HD
ATOM     10  H   UNL     1       7.821   5.550  16.817  0.00  0.00    +0.000 HD
ENDBRANCH   5   8
BRANCH   6  11
ATOM     11  C   UNL     1       4.626   4.376  16.187  0.00  0.00    +0.000 C 
ATOM     12  C   UNL     1       3.859   4.273  17.237  0.00  0.00    +0.000 C 
BRANCH  12  13
ATOM     13  C   UNL     1       2.966   4.152  18.461  0.00  0.00    +0.000 A 
ATOM     14  C   UNL     1       1.858   3.297  18.434  0.00  0.00    +0.000 A 
ATOM     15  C   UNL     1       0.992   3.240  19.533  0.00  0.00    +0.000 A 
ATOM     16  C   UNL     1       1.254   4.010  20.670  0.00  0.00    +0.000 A 
ATOM     17  C   UNL     1       2.373   4.847  20.706  0.00  0.00    +0.000 A 
ATOM     18  C   UNL     1       3.219   4.933  19.596  0.00  0.00    +0.000 A 
ENDBRANCH  12  13
ENDBRANCH   6  11
TORSDOF 3
ENDMDL
MODEL 5
REMARK VINA RESULT:      -6.7      2.305      7.159
REMARK  Name = 
REMARK  4 active torsions:
REMARK  status: ('A' for Active; 'I' for Inactive)
REMARK    1  A    between atoms: C_1  and  C_2
REMARK    2  A    between atoms: C_5  and  N_6
REMARK    3  A    between atoms: C_7  and  C_8
REMARK    4  A    between atoms: C_9  and  C_10
REMARK                            x       y       z     vdW  Elec       q    Type
REMARK                         _______ _______ _______ _____ _____    ______ ____
ROOT
ATOM      1  C   UNL     1      12.168  13.257  16.801  0.00  0.00    +0.000 C 
ATOM      2  C   UNL     1      11.393  12.761  17.986  0.00  0.00    +0.000 A 
ATOM      3  C   UNL     1      11.578  13.305  19.261  0.00  0.00    +0.000 A 
ATOM      4  C   UNL     1      10.888  12.758  20.343  0.00  0.00    +0.000 A 
ATOM      5  C   UNL     1      10.030  11.665  20.154  0.00  0.00    +0.000 A 
ATOM      6  C   UNL     1       9.860  11.162  18.850  0.00  0.00    +0.000 A 
ATOM      7  N   UNL     1      10.534  11.722  17.813  0.00  0.00    +0.000 NA
ENDROOT
BRANCH   5   8
ATOM      8  N   UNL     1       9.385  11.069  21.269  0.00  0.00    +0.000 N 
ATOM      9  H   UNL     1       8.368  10.902  21.257  0.00  0.00    +0.000 HD
ATOM     10  H   UNL     1       9.912  10.795  22.110  0.00  0.00    +0.000 HD
ENDBRANCH   5   8
BRANCH   6  11
ATOM     11  C   UNL     1       9.112   9.868  18.572  0.00  0.00    +0.000 C 
ATOM     12  C   UNL     1       8.471   8.757  18.335  0.00  0.00    +0.000 C 
BRANCH  12  13
ATOM     13  C   UNL     1       7.724   7.463  18.058  0.00  0.00    +0.000 A 
ATOM     14  C   UNL     1       6.745   7.423  17.057  0.00  0.00    +0.000 A 
ATOM     15  C   UNL     1       6.004   6.253  16.851  0.00  0.00    +0.000 A 
ATOM     16  C   UNL     1       6.266   5.114  17.619  0.00  0.00    +0.000 A 
ATOM     17  C   UNL     1       7.258   5.147  18.603  0.00  0.00    +0.000 A 
ATOM     18  C   UNL     1       7.975   6.325  18.836  0.00  0.00    +0.000 A 
ENDBRANCH  12  13
ENDBRANCH   6  11
TORSDOF 3
ENDMDL
MODEL 6
REMARK VINA RESULT:      -6.7      6.414      7.733
REMARK  Name = 
REMARK  4 active torsions:
REMARK  status: ('A' for Active; 'I' for Inactive)
REMARK    1  A    between atoms: C_1  and  C_2
REMARK    2  A    between atoms: C_5  and  N_6
REMARK    3  A    between atoms: C_7  and  C_8
REMARK    4  A    between atoms: C_9  and  C_10
REMARK                            x       y       z     vdW  Elec       q    Type
REMARK                         _______ _______ _______ _____ _____    ______ ____
ROOT
ATOM      1  C   UNL     1       1.940   6.376  20.334  0.00  0.00    +0.000 C 
ATOM      2  C   UNL     1       2.408   5.048  19.818  0.00  0.00    +0.000 A 
ATOM      3  C   UNL     1       2.300   3.885  20.588  0.00  0.00    +0.000 A 
ATOM      4  C   UNL     1       2.819   2.688  20.093  0.00  0.00    +0.000 A 
ATOM      5  C   UNL     1       3.456   2.657  18.845  0.00  0.00    +0.000 A 
ATOM      6  C   UNL     1       3.525   3.848  18.096  0.00  0.00    +0.000 A 
ATOM      7  N   UNL     1       3.000   4.995  18.596  0.00  0.00    +0.000 NA
ENDROOT
BRANCH   5   8
ATOM      8  N   UNL     1       4.042   1.452  18.378  0.00  0.00    +0.000 N 
ATOM      9  H   UNL     1       4.724   0.943  18.959  0.00  0.00    +0.000 HD
ATOM     10  H   UNL     1       3.806   1.063  17.455  0.00  0.00    +0.000 HD
ENDBRANCH   5   8
BRANCH   6  11
ATOM     11  C   UNL     1       4.360   3.961  16.831  0.00  0.00    +0.000 C 
ATOM     12  C   UNL     1       5.078   4.057  15.746  0.00  0.00    +0.000 C 
BRANCH  12  13
ATOM     13  C   UNL     1       5.914   4.170  14.482  0.00  0.00    +0.000 A 
ATOM     14  C   UNL     1       7.042   4.998  14.463  0.00  0.00    +0.000 A 
ATOM     15  C   UNL     1       7.770   5.161  13.279  0.00  0.00    +0.000 A 
ATOM     16  C   UNL     1       7.392   4.468  12.124  0.00  0.00    +0.000 A 
ATOM     17  C   UNL     1       6.279   3.623  12.148  0.00  0.00    +0.000 A 
ATOM     18  C   UNL     1       5.528   3.488  13.320  0.00  0.00    +0.000 A 
ENDBRANCH  12  13
ENDBRANCH   6  11
TORSDOF 3
ENDMDL
MODEL 7
REMARK VINA RESULT:      -6.6      6.410      7.746
REMARK  Name = 
REMARK  4 active torsions:
REMARK  status: ('A' for Active; 'I' for Inactive)
REMARK    1  A    between atoms: C_1  and  C_2
REMARK    2  A    between atoms: C_5  and  N_6
REMARK    3  A    between atoms: C_7  and  C_8
REMARK    4  A    between atoms: C_9  and  C_10
REMARK                            x       y       z     vdW  Elec       q    Type
REMARK                         _______ _______ _______ _____ _____    ______ ____
ROOT
ATOM      1  C   UNL     1       1.929   6.622  20.329  0.00  0.00    +0.000 C 
ATOM      2  C   UNL     1       2.432   5.286  19.870  0.00  0.00    +0.000 A 
ATOM      3  C   UNL     1       2.392   4.164  20.704  0.00  0.00    +0.000 A 
ATOM      4  C   UNL     1       2.942   2.961  20.258  0.00  0.00    +0.000 A 
ATOM      5  C   UNL     1       3.541   2.886  18.992  0.00  0.00    +0.000 A 
ATOM      6  C   UNL     1       3.540   4.035  18.179  0.00  0.00    +0.000 A 
ATOM      7  N   UNL     1       2.987   5.188  18.634  0.00  0.00    +0.000 NA
ENDROOT
BRANCH   5   8
ATOM      8  N   UNL     1       4.159   1.680  18.572  0.00  0.00    +0.000 N 
ATOM      9  H   UNL     1       5.185   1.590  18.573  0.00  0.00    +0.000 HD
ATOM     10  H   UNL     1       3.601   0.873  18.256  0.00  0.00    +0.000 HD
ENDBRANCH   5   8
BRANCH   6  11
ATOM     11  C   UNL     1       4.331   4.109  16.883  0.00  0.00    +0.000 C 
ATOM     12  C   UNL     1       5.010   4.173  15.771  0.00  0.00    +0.000 C 
BRANCH  12  13
ATOM     13  C   UNL     1       5.801   4.248  14.475  0.00  0.00    +0.000 A 
ATOM     14  C   UNL     1       5.382   3.514  13.359  0.00  0.00    +0.000 A 
ATOM     15  C   UNL     1       6.150   3.523  12.189  0.00  0.00    +0.000 A 
ATOM     16  C   UNL     1       7.315   4.292  12.122  0.00  0.00    +0.000 A 
ATOM     17  C   UNL     1       7.721   5.044  13.228  0.00  0.00    +0.000 A 
ATOM     18  C   UNL     1       6.976   5.008  14.411  0.00  0.00    +0.000 A 
ENDBRANCH  12  13
ENDBRANCH   6  11
TORSDOF 3
ENDMDL
MODEL 8
REMARK VINA RESULT:      -6.6      6.115      8.013
REMARK  Name = 
REMARK  4 active torsions:
REMARK  status: ('A' for Active; 'I' for Inactive)
REMARK    1  A    between atoms: C_1  and  C_2
REMARK    2  A    between atoms: C_5  and  N_6
REMARK    3  A    between atoms: C_7  and  C_8
REMARK    4  A    between atoms: C_9  and  C_10
REMARK                            x       y       z     vdW  Elec       q    Type
REMARK                         _______ _______ _______ _____ _____    ______ ____
ROOT
ATOM      1  C   UNL     1       5.612   2.596  11.560  0.00  0.00    +0.000 C 
ATOM      2  C   UNL     1       6.015   3.512  12.677  0.00  0.00    +0.000 A 
ATOM      3  C   UNL     1       7.192   4.265  12.616  0.00  0.00    +0.000 A 
ATOM      4  C   UNL     1       7.561   5.045  13.713  0.00  0.00    +0.000 A 
ATOM      5  C   UNL     1       6.766   5.060  14.868  0.00  0.00    +0.000 A 
ATOM      6  C   UNL     1       5.579   4.302  14.877  0.00  0.00    +0.000 A 
ATOM      7  N   UNL     1       5.239   3.562  13.790  0.00  0.00    +0.000 NA
ENDROOT
BRANCH   5   8
ATOM      8  N   UNL     1       7.181   5.800  16.005  0.00  0.00    +0.000 N 
ATOM      9  H   UNL     1       6.503   6.066  16.734  0.00  0.00    +0.000 HD
ATOM     10  H   UNL     1       8.162   6.091  16.127  0.00  0.00    +0.000 HD
ENDBRANCH   5   8
BRANCH   6  11
ATOM     11  C   UNL     1       4.759   4.098  16.140  0.00  0.00    +0.000 C 
ATOM     12  C   UNL     1       4.055   3.922  17.224  0.00  0.00    +0.000 C 
BRANCH  12  13
ATOM     13  C   UNL     1       3.235   3.719  18.487  0.00  0.00    +0.000 A 
ATOM     14  C   UNL     1       3.811   3.090  19.598  0.00  0.00    +0.000 A 
ATOM     15  C   UNL     1       3.036   2.835  20.736  0.00  0.00    +0.000 A 
ATOM     16  C   UNL     1       1.698   3.239  20.777  0.00  0.00    +0.000 A 
ATOM     17  C   UNL     1       1.129   3.886  19.676  0.00  0.00    +0.000 A 
ATOM     18  C   UNL     1       1.890   4.110  18.525  0.00  0.00    +0.000 A 
ENDBRANCH  12  13
ENDBRANCH   6  11
TORSDOF 3
ENDMDL
MODEL 9
REMARK VINA RESULT:      -6.5      1.290      1.892
REMARK  Name = 
REMARK  4 active torsions:
REMARK  status: ('A' for Active; 'I' for Inactive)
REMARK    1  A    between atoms: C_1  and  C_2
REMARK    2  A    between atoms: C_5  and  N_6
REMARK    3  A    between atoms: C_7  and  C_8
REMARK    4  A    between atoms: C_9  and  C_10
REMARK                            x       y       z     vdW  Elec       q    Type
REMARK                         _______ _______ _______ _____ _____    ______ ____
ROOT
ATOM      1  C   UNL     1       6.082   4.479  13.846  0.00  0.00    +0.000 C 
ATOM      2  C   UNL     1       6.166   4.666  15.331  0.00  0.00    +0.000 A 
ATOM      3  C   UNL     1       5.518   3.798  16.216  0.00  0.00    +0.000 A 
ATOM      4  C   UNL     1       5.564   4.059  17.586  0.00  0.00    +0.000 A 
ATOM      5  C   UNL     1       6.240   5.189  18.066  0.00  0.00    +0.000 A 
ATOM      6  C   UNL     1       6.894   6.025  17.142  0.00  0.00    +0.000 A 
ATOM      7  N   UNL     1       6.844   5.739  15.815  0.00  0.00    +0.000 NA
ENDROOT
BRANCH   5   8
ATOM      8  N   UNL     1       6.224   5.487  19.454  0.00  0.00    +0.000 N 
ATOM      9  H   UNL     1       5.456   5.151  20.053  0.00  0.00    +0.000 HD
ATOM     10  H   UNL     1       6.973   6.043  19.891  0.00  0.00    +0.000 HD
ENDBRANCH   5   8
BRANCH   6  11
ATOM     11  C   UNL     1       7.482   7.368  17.540  0.00  0.00    +0.000 C 
ATOM     12  C   UNL     1       7.987   8.522  17.882  0.00  0.00    +0.000 C 
BRANCH  12  13
ATOM     13  C   UNL     1       8.574   9.866  18.280  0.00  0.00    +0.000 A 
ATOM     14  C   UNL     1       8.322  10.997  17.494  0.00  0.00    +0.000 A 
ATOM     15  C   UNL     1       8.922  12.220  17.817  0.00  0.00    +0.000 A 
ATOM     16  C   UNL     1       9.744  12.321  18.944  0.00  0.00    +0.000 A 
ATOM     17  C   UNL     1       9.977  11.197  19.742  0.00  0.00    +0.000 A 
ATOM     18  C   UNL     1       9.409   9.965  19.401  0.00  0.00    +0.000 A 
ENDBRANCH  12  13
ENDBRANCH   6  11
TORSDOF 3
ENDMDL
