MODEL 1
REMARK VINA RESULT:      -7.9      0.000      0.000
REMARK  Name = 
REMARK  5 active torsions:
REMARK  status: ('A' for Active; 'I' for Inactive)
REMARK    1  A    between atoms: C_2  and  C_3
REMARK    2  A    between atoms: C_9  and  C_10
REMARK    3  A    between atoms: C_22  and  O_23
REMARK    4  A    between atoms: O_23  and  C_24
REMARK    5  A    between atoms: C_27  and  C_28
REMARK                            x       y       z     vdW  Elec       q    Type
REMARK                         _______ _______ _______ _____ _____    ______ ____
ROOT
ATOM      1  O   UNL     1       5.627   4.469  19.548  0.00  0.00    +0.000 OA
ATOM      2  C   UNL     1       4.935   4.709  18.563  0.00  0.00    +0.000 C 
ATOM      3  N   UNL     1       3.692   5.318  18.649  0.00  0.00    +0.000 N 
ATOM      4  C   UNL     1       2.978   5.399  19.911  0.00  0.00    +0.000 C 
ATOM      5  C   UNL     1       2.188   4.078  19.870  0.00  0.00    +0.000 C 
ATOM      6  C   UNL     1       1.875   3.931  18.361  0.00  0.00    +0.000 C 
ATOM      7  C   UNL     1       2.563   5.169  17.754  0.00  0.00    +0.000 C 
ATOM      8  C   UNL     1       1.749   6.426  18.113  0.00  0.00    +0.000 C 
ATOM      9  C   UNL     1       1.967   6.546  19.647  0.00  0.00    +0.000 C 
ENDROOT
BRANCH   2  10
ATOM     10  C   UNL     1       5.484   4.436  17.209  0.00  0.00    +0.000 A 
ATOM     11  C   UNL     1       4.883   3.384  16.488  0.00  0.00    +0.000 A 
ATOM     12  C   UNL     1       5.254   3.120  15.174  0.00  0.00    +0.000 A 
ATOM     13  C   UNL     1       6.211   3.920  14.568  0.00  0.00    +0.000 A 
ATOM     14  C   UNL     1       6.801   4.968  15.281  0.00  0.00    +0.000 A 
ATOM     15  F   UNL     1       7.738   5.681  14.635  0.00  0.00    +0.000 F 
ATOM     16  C   UNL     1       6.463   5.263  16.615  0.00  0.00    +0.000 A 
BRANCH  16  17
ATOM     17  C   UNL     1       7.132   6.370  17.310  0.00  0.00    +0.000 A 
ATOM     18  N   UNL     1       7.880   6.070  18.393  0.00  0.00    +0.000 NA
ATOM     19  C   UNL     1       8.472   7.097  19.029  0.00  0.00    +0.000 A 
ATOM     20  C   UNL     1       8.368   8.400  18.615  0.00  0.00    +0.000 A 
ATOM     21  C   UNL     1       7.576   8.607  17.510  0.00  0.00    +0.000 A 
ATOM     22  N   UNL     1       6.918   7.624  16.864  0.00  0.00    +0.000 NA
ENDBRANCH  16  17
ENDBRANCH   2  10
BRANCH   9  23
ATOM     23  O   UNL     1       2.491   7.841  19.951  0.00  0.00    +0.000 OA
BRANCH  23  24
ATOM     24  C   UNL     1       1.574   8.656  20.585  0.00  0.00    +0.000 A 
ATOM     25  N   UNL     1       1.335   8.492  21.897  0.00  0.00    +0.000 NA
ATOM     26  C   UNL     1       0.479   9.361  22.465  0.00  0.00    +0.000 A 
ATOM     27  C   UNL     1      -0.164  10.359  21.770  0.00  0.00    +0.000 A 
ATOM     28  C   UNL     1       0.136  10.422  20.426  0.00  0.00    +0.000 A 
ATOM     29  N   UNL     1       1.001   9.587  19.812  0.00  0.00    +0.000 NA
BRANCH  27  30
ATOM     30  C   UNL     1      -1.114  11.297  22.414  0.00  0.00    +0.000 C 
ATOM     31  F   UNL     1      -1.758  10.763  23.490  0.00  0.00    +0.000 F 
ATOM     32  F   UNL     1      -0.513  12.431  22.866  0.00  0.00    +0.000 F 
ATOM     33  F   UNL     1      -2.095  11.709  21.565  0.00  0.00    +0.000 F 
ENDBRANCH  27  30
ENDBRANCH  23  24
ENDBRANCH   9  23
TORSDOF 5
ENDMDL
MODEL 2
REMARK VINA RESULT:      -7.8      2.950      9.246
REMARK  Name = 
REMARK  5 active torsions:
REMARK  status: ('A' for Active; 'I' for Inactive)
REMARK    1  A    between atoms: C_2  and  C_3
REMARK    2  A    between atoms: C_9  and  C_10
REMARK    3  A    between atoms: C_22  and  O_23
REMARK    4  A    between atoms: O_23  and  C_24
REMARK    5  A    between atoms: C_27  and  C_28
REMARK                            x       y       z     vdW  Elec       q    Type
REMARK                         _______ _______ _______ _____ _____    ______ ____
ROOT
ATOM      1  O   UNL     1       2.773   4.854  17.189  0.00  0.00    +0.000 OA
ATOM      2  C   UNL     1       3.444   5.729  17.727  0.00  0.00    +0.000 C 
ATOM      3  N   UNL     1       4.814   5.843  17.547  0.00  0.00    +0.000 N 
ATOM      4  C   UNL     1       5.595   4.748  16.998  0.00  0.00    +0.000 C 
ATOM      5  C   UNL     1       5.955   3.988  18.288  0.00  0.00    +0.000 C 
ATOM      6  C   UNL     1       6.118   5.139  19.311  0.00  0.00    +0.000 C 
ATOM      7  C   UNL     1       5.792   6.387  18.466  0.00  0.00    +0.000 C 
ATOM      8  C   UNL     1       6.962   6.666  17.505  0.00  0.00    +0.000 C 
ATOM      9  C   UNL     1       6.883   5.469  16.516  0.00  0.00    +0.000 C 
ENDROOT
BRANCH   2  10
ATOM     10  C   UNL     1       2.757   6.780  18.524  0.00  0.00    +0.000 A 
ATOM     11  C   UNL     1       2.829   8.095  18.021  0.00  0.00    +0.000 A 
ATOM     12  C   UNL     1       2.130   9.129  18.636  0.00  0.00    +0.000 A 
ATOM     13  C   UNL     1       1.341   8.848  19.741  0.00  0.00    +0.000 A 
ATOM     14  C   UNL     1       1.264   7.542  20.234  0.00  0.00    +0.000 A 
ATOM     15  F   UNL     1       0.500   7.355  21.323  0.00  0.00    +0.000 F 
ATOM     16  C   UNL     1       1.962   6.469  19.650  0.00  0.00    +0.000 A 
BRANCH  16  17
ATOM     17  C   UNL     1       1.848   5.124  20.226  0.00  0.00    +0.000 A 
ATOM     18  N   UNL     1       0.976   4.267  19.654  0.00  0.00    +0.000 NA
ATOM     19  C   UNL     1       0.871   3.044  20.205  0.00  0.00    +0.000 A 
ATOM     20  C   UNL     1       1.616   2.637  21.282  0.00  0.00    +0.000 A 
ATOM     21  C   UNL     1       2.468   3.583  21.802  0.00  0.00    +0.000 A 
ATOM     22  N   UNL     1       2.577   4.838  21.324  0.00  0.00    +0.000 NA
ENDBRANCH  16  17
ENDBRANCH   2  10
BRANCH   9  23
ATOM     23  O   UNL     1       6.784   5.964  15.179  0.00  0.00    +0.000 OA
BRANCH  23  24
ATOM     24  C   UNL     1       6.546   4.967  14.254  0.00  0.00    +0.000 A 
ATOM     25  N   UNL     1       5.423   4.234  14.341  0.00  0.00    +0.000 NA
ATOM     26  C   UNL     1       5.224   3.323  13.370  0.00  0.00    +0.000 A 
ATOM     27  C   UNL     1       6.111   3.099  12.344  0.00  0.00    +0.000 A 
ATOM     28  C   UNL     1       7.240   3.890  12.365  0.00  0.00    +0.000 A 
ATOM     29  N   UNL     1       7.480   4.829  13.303  0.00  0.00    +0.000 NA
BRANCH  27  30
ATOM     30  C   UNL     1       5.877   2.080  11.292  0.00  0.00    +0.000 C 
ATOM     31  F   UNL     1       4.806   2.358  10.497  0.00  0.00    +0.000 F 
ATOM     32  F   UNL     1       6.936   1.935  10.452  0.00  0.00    +0.000 F 
ATOM     33  F   UNL     1       5.640   0.844  11.810  0.00  0.00    +0.000 F 
ENDBRANCH  27  30
ENDBRANCH  23  24
ENDBRANCH   9  23
TORSDOF 5
ENDMDL
MODEL 3
REMARK VINA RESULT:      -7.7      2.902      9.206
REMARK  Name = 
REMARK  5 active torsions:
REMARK  status: ('A' for Active; 'I' for Inactive)
REMARK    1  A    between atoms: C_2  and  C_3
REMARK    2  A    between atoms: C_9  and  C_10
REMARK    3  A    between atoms: C_22  and  O_23
REMARK    4  A    between atoms: O_23  and  C_24
REMARK    5  A    between atoms: C_27  and  C_28
REMARK                            x       y       z     vdW  Elec       q    Type
REMARK                         _______ _______ _______ _____ _____    ______ ____
ROOT
ATOM      1  O   UNL     1       2.623   4.971  17.136  0.00  0.00    +0.000 OA
ATOM      2  C   UNL     1       3.315   5.763  17.769  0.00  0.00    +0.000 C 
ATOM      3  N   UNL     1       4.695   5.815  17.652  0.00  0.00    +0.000 N 
ATOM      4  C   UNL     1       5.443   4.726  17.049  0.00  0.00    +0.000 C 
ATOM      5  C   UNL     1       5.705   3.849  18.287  0.00  0.00    +0.000 C 
ATOM      6  C   UNL     1       5.883   4.906  19.405  0.00  0.00    +0.000 C 
ATOM      7  C   UNL     1       5.659   6.232  18.651  0.00  0.00    +0.000 C 
ATOM      8  C   UNL     1       6.882   6.520  17.762  0.00  0.00    +0.000 C 
ATOM      9  C   UNL     1       6.786   5.410  16.678  0.00  0.00    +0.000 C 
ENDROOT
BRANCH   2  10
ATOM     10  C   UNL     1       2.649   6.785  18.619  0.00  0.00    +0.000 A 
ATOM     11  C   UNL     1       2.695   8.115  18.154  0.00  0.00    +0.000 A 
ATOM     12  C   UNL     1       2.012   9.125  18.823  0.00  0.00    +0.000 A 
ATOM     13  C   UNL     1       1.262   8.806  19.945  0.00  0.00    +0.000 A 
ATOM     14  C   UNL     1       1.209   7.486  20.400  0.00  0.00    +0.000 A 
ATOM     15  F   UNL     1       0.484   7.260  21.508  0.00  0.00    +0.000 F 
ATOM     16  C   UNL     1       1.893   6.435  19.761  0.00  0.00    +0.000 A 
BRANCH  16  17
ATOM     17  C   UNL     1       1.807   5.072  20.300  0.00  0.00    +0.000 A 
ATOM     18  N   UNL     1       0.936   4.221  19.719  0.00  0.00    +0.000 NA
ATOM     19  C   UNL     1       0.857   2.981  20.235  0.00  0.00    +0.000 A 
ATOM     20  C   UNL     1       1.626   2.553  21.287  0.00  0.00    +0.000 A 
ATOM     21  C   UNL     1       2.475   3.495  21.820  0.00  0.00    +0.000 A 
ATOM     22  N   UNL     1       2.559   4.765  21.376  0.00  0.00    +0.000 NA
ENDBRANCH  16  17
ENDBRANCH   2  10
BRANCH   9  23
ATOM     23  O   UNL     1       6.771   6.013  15.382  0.00  0.00    +0.000 OA
BRANCH  23  24
ATOM     24  C   UNL     1       6.561   5.099  14.368  0.00  0.00    +0.000 A 
ATOM     25  N   UNL     1       7.461   4.988  13.376  0.00  0.00    +0.000 NA
ATOM     26  C   UNL     1       7.227   4.034  12.456  0.00  0.00    +0.000 A 
ATOM     27  C   UNL     1       6.122   3.216  12.474  0.00  0.00    +0.000 A 
ATOM     28  C   UNL     1       5.252   3.432  13.521  0.00  0.00    +0.000 A 
ATOM     29  N   UNL     1       5.449   4.361  14.480  0.00  0.00    +0.000 NA
BRANCH  27  30
ATOM     30  C   UNL     1       5.878   2.180  11.441  0.00  0.00    +0.000 C 
ATOM     31  F   UNL     1       6.890   2.068  10.537  0.00  0.00    +0.000 F 
ATOM     32  F   UNL     1       5.711   0.938  11.969  0.00  0.00    +0.000 F 
ATOM     33  F   UNL     1       4.756   2.429  10.711  0.00  0.00    +0.000 F 
ENDBRANCH  27  30
ENDBRANCH  23  24
ENDBRANCH   9  23
TORSDOF 5
ENDMDL
MODEL 4
REMARK VINA RESULT:      -7.7      2.967      9.292
REMARK  Name = 
REMARK  5 active torsions:
REMARK  status: ('A' for Active; 'I' for Inactive)
REMARK    1  A    between atoms: C_2  and  C_3
REMARK    2  A    between atoms: C_9  and  C_10
REMARK    3  A    between atoms: C_22  and  O_23
REMARK    4  A    between atoms: O_23  and  C_24
REMARK    5  A    between atoms: C_27  and  C_28
REMARK                            x       y       z     vdW  Elec       q    Type
REMARK                         _______ _______ _______ _____ _____    ______ ____
ROOT
ATOM      1  O   UNL     1       2.472   4.918  17.261  0.00  0.00    +0.000 OA
ATOM      2  C   UNL     1       3.189   5.759  17.794  0.00  0.00    +0.000 C 
ATOM      3  N   UNL     1       4.552   5.845  17.555  0.00  0.00    +0.000 N 
ATOM      4  C   UNL     1       5.280   4.750  16.939  0.00  0.00    +0.000 C 
ATOM      5  C   UNL     1       5.677   3.942  18.188  0.00  0.00    +0.000 C 
ATOM      6  C   UNL     1       5.916   5.056  19.237  0.00  0.00    +0.000 C 
ATOM      7  C   UNL     1       5.584   6.337  18.445  0.00  0.00    +0.000 C 
ATOM      8  C   UNL     1       6.716   6.617  17.440  0.00  0.00    +0.000 C 
ATOM      9  C   UNL     1       6.563   5.453  16.421  0.00  0.00    +0.000 C 
ENDROOT
BRANCH   2  10
ATOM     10  C   UNL     1       2.566   6.801  18.653  0.00  0.00    +0.000 A 
ATOM     11  C   UNL     1       2.613   8.124  18.168  0.00  0.00    +0.000 A 
ATOM     12  C   UNL     1       1.966   9.152  18.845  0.00  0.00    +0.000 A 
ATOM     13  C   UNL     1       1.251   8.859  19.996  0.00  0.00    +0.000 A 
ATOM     14  C   UNL     1       1.197   7.545  20.472  0.00  0.00    +0.000 A 
ATOM     15  F   UNL     1       0.507   7.344  21.607  0.00  0.00    +0.000 F 
ATOM     16  C   UNL     1       1.846   6.477  19.824  0.00  0.00    +0.000 A 
BRANCH  16  17
ATOM     17  C   UNL     1       1.761   5.123  20.386  0.00  0.00    +0.000 A 
ATOM     18  N   UNL     1       2.688   4.763  21.299  0.00  0.00    +0.000 NA
ATOM     19  C   UNL     1       2.607   3.513  21.790  0.00  0.00    +0.000 A 
ATOM     20  C   UNL     1       1.629   2.623  21.428  0.00  0.00    +0.000 A 
ATOM     21  C   UNL     1       0.738   3.077  20.484  0.00  0.00    +0.000 A 
ATOM     22  N   UNL     1       0.801   4.299  19.919  0.00  0.00    +0.000 NA
ENDBRANCH  16  17
ENDBRANCH   2  10
BRANCH   9  23
ATOM     23  O   UNL     1       6.417   5.992  15.105  0.00  0.00    +0.000 OA
BRANCH  23  24
ATOM     24  C   UNL     1       6.336   5.016  14.132  0.00  0.00    +0.000 A 
ATOM     25  N   UNL     1       7.367   4.829  13.291  0.00  0.00    +0.000 NA
ATOM     26  C   UNL     1       7.248   3.819  12.409  0.00  0.00    +0.000 A 
ATOM     27  C   UNL     1       6.135   3.016  12.319  0.00  0.00    +0.000 A 
ATOM     28  C   UNL     1       5.128   3.311  13.213  0.00  0.00    +0.000 A 
ATOM     29  N   UNL     1       5.204   4.300  14.128  0.00  0.00    +0.000 NA
BRANCH  27  30
ATOM     30  C   UNL     1       6.020   1.917  11.330  0.00  0.00    +0.000 C 
ATOM     31  F   UNL     1       5.839   0.693  11.900  0.00  0.00    +0.000 F 
ATOM     32  F   UNL     1       4.979   2.086  10.471  0.00  0.00    +0.000 F 
ATOM     33  F   UNL     1       7.131   1.801  10.551  0.00  0.00    +0.000 F 
ENDBRANCH  27  30
ENDBRANCH  23  24
ENDBRANCH   9  23
TORSDOF 5
ENDMDL
MODEL 5
REMARK VINA RESULT:      -7.7      3.852     10.739
REMARK  Name = 
REMARK  5 active torsions:
REMARK  status: ('A' for Active; 'I' for Inactive)
REMARK    1  A    between atoms: C_2  and  C_3
REMARK    2  A    between atoms: C_9  and  C_10
REMARK    3  A    between atoms: C_22  and  O_23
REMARK    4  A    between atoms: O_23  and  C_24
REMARK    5  A    between atoms: C_27  and  C_28
REMARK                            x       y       z     vdW  Elec       q    Type
REMARK                         _______ _______ _______ _____ _____    ______ ____
ROOT
ATOM      1  O   UNL     1       0.669  13.355  22.239  0.00  0.00    +0.000 OA
ATOM      2  C   UNL     1      -0.349  12.864  21.758  0.00  0.00    +0.000 C 
ATOM      3  N   UNL     1      -0.322  11.947  20.719  0.00  0.00    +0.000 N 
ATOM      4  C   UNL     1       0.867  11.765  19.904  0.00  0.00    +0.000 C 
ATOM      5  C   UNL     1       0.614  12.814  18.805  0.00  0.00    +0.000 C 
ATOM      6  C   UNL     1      -0.925  12.760  18.649  0.00  0.00    +0.000 C 
ATOM      7  C   UNL     1      -1.333  11.716  19.707  0.00  0.00    +0.000 C 
ATOM      8  C   UNL     1      -0.928  10.314  19.216  0.00  0.00    +0.000 C 
ATOM      9  C   UNL     1       0.625  10.369  19.270  0.00  0.00    +0.000 C 
ENDROOT
BRANCH   2  10
ATOM     10  C   UNL     1      -1.664  13.178  22.376  0.00  0.00    +0.000 A 
ATOM     11  C   UNL     1      -2.290  12.132  23.086  0.00  0.00    +0.000 A 
ATOM     12  C   UNL     1      -3.469  12.356  23.787  0.00  0.00    +0.000 A 
ATOM     13  C   UNL     1      -4.016  13.631  23.801  0.00  0.00    +0.000 A 
ATOM     14  C   UNL     1      -3.391  14.669  23.104  0.00  0.00    +0.000 A 
ATOM     15  F   UNL     1      -3.995  15.868  23.143  0.00  0.00    +0.000 F 
ATOM     16  C   UNL     1      -2.203  14.484  22.373  0.00  0.00    +0.000 A 
BRANCH  16  17
ATOM     17  C   UNL     1      -1.606  15.615  21.651  0.00  0.00    +0.000 A 
ATOM     18  N   UNL     1      -1.878  15.733  20.334  0.00  0.00    +0.000 NA
ATOM     19  C   UNL     1      -1.309  16.764  19.684  0.00  0.00    +0.000 A 
ATOM     20  C   UNL     1      -0.506  17.691  20.298  0.00  0.00    +0.000 A 
ATOM     21  C   UNL     1      -0.278  17.480  21.637  0.00  0.00    +0.000 A 
ATOM     22  N   UNL     1      -0.779  16.437  22.328  0.00  0.00    +0.000 NA
ENDBRANCH  16  17
ENDBRANCH   2  10
BRANCH   9  23
ATOM     23  O   UNL     1       1.109   9.293  20.077  0.00  0.00    +0.000 OA
BRANCH  23  24
ATOM     24  C   UNL     1       1.842   8.371  19.356  0.00  0.00    +0.000 A 
ATOM     25  N   UNL     1       2.264   8.679  18.118  0.00  0.00    +0.000 NA
ATOM     26  C   UNL     1       3.028   7.761  17.498  0.00  0.00    +0.000 A 
ATOM     27  C   UNL     1       3.357   6.546  18.052  0.00  0.00    +0.000 A 
ATOM     28  C   UNL     1       2.852   6.324  19.315  0.00  0.00    +0.000 A 
ATOM     29  N   UNL     1       2.098   7.218  19.988  0.00  0.00    +0.000 NA
BRANCH  27  30
ATOM     30  C   UNL     1       4.189   5.544  17.344  0.00  0.00    +0.000 C 
ATOM     31  F   UNL     1       4.701   5.999  16.166  0.00  0.00    +0.000 F 
ATOM     32  F   UNL     1       5.257   5.130  18.078  0.00  0.00    +0.000 F 
ATOM     33  F   UNL     1       3.493   4.416  17.032  0.00  0.00    +0.000 F 
ENDBRANCH  27  30
ENDBRANCH  23  24
ENDBRANCH   9  23
TORSDOF 5
ENDMDL
MODEL 6
REMARK VINA RESULT:      -7.7      3.855     10.711
REMARK  Name = 
REMARK  5 active torsions:
REMARK  status: ('A' for Active; 'I' for Inactive)
REMARK    1  A    between atoms: C_2  and  C_3
REMARK    2  A    between atoms: C_9  and  C_10
REMARK    3  A    between atoms: C_22  and  O_23
REMARK    4  A    between atoms: O_23  and  C_24
REMARK    5  A    between atoms: C_27  and  C_28
REMARK                            x       y       z     vdW  Elec       q    Type
REMARK                         _______ _______ _______ _____ _____    ______ ____
ROOT
ATOM      1  O   UNL     1       0.699  13.319  22.231  0.00  0.00    +0.000 OA
ATOM      2  C   UNL     1      -0.325  12.860  21.733  0.00  0.00    +0.000 C 
ATOM      3  N   UNL     1      -0.309  11.953  20.684  0.00  0.00    +0.000 N 
ATOM      4  C   UNL     1       0.884  11.750  19.882  0.00  0.00    +0.000 C 
ATOM      5  C   UNL     1       0.672  12.816  18.792  0.00  0.00    +0.000 C 
ATOM      6  C   UNL     1      -0.866  12.804  18.617  0.00  0.00    +0.000 C 
ATOM      7  C   UNL     1      -1.313  11.759  19.658  0.00  0.00    +0.000 C 
ATOM      8  C   UNL     1      -0.938  10.353  19.157  0.00  0.00    +0.000 C 
ATOM      9  C   UNL     1       0.614  10.367  19.230  0.00  0.00    +0.000 C 
ENDROOT
BRANCH   2  10
ATOM     10  C   UNL     1      -1.639  13.201  22.338  0.00  0.00    +0.000 A 
ATOM     11  C   UNL     1      -2.279  12.178  23.067  0.00  0.00    +0.000 A 
ATOM     12  C   UNL     1      -3.459  12.430  23.758  0.00  0.00    +0.000 A 
ATOM     13  C   UNL     1      -3.991  13.710  23.744  0.00  0.00    +0.000 A 
ATOM     14  C   UNL     1      -3.352  14.726  23.028  0.00  0.00    +0.000 A 
ATOM     15  F   UNL     1      -3.942  15.933  23.040  0.00  0.00    +0.000 F 
ATOM     16  C   UNL     1      -2.163  14.513  22.306  0.00  0.00    +0.000 A 
BRANCH  16  17
ATOM     17  C   UNL     1      -1.550  15.622  21.564  0.00  0.00    +0.000 A 
ATOM     18  N   UNL     1      -0.742  16.462  22.244  0.00  0.00    +0.000 NA
ATOM     19  C   UNL     1      -0.203  17.483  21.553  0.00  0.00    +0.000 A 
ATOM     20  C   UNL     1      -0.416  17.682  20.213  0.00  0.00    +0.000 A 
ATOM     21  C   UNL     1      -1.263  16.781  19.610  0.00  0.00    +0.000 A 
ATOM     22  N   UNL     1      -1.871  15.771  20.262  0.00  0.00    +0.000 NA
ENDBRANCH  16  17
ENDBRANCH   2  10
BRANCH   9  23
ATOM     23  O   UNL     1       1.061   9.270  20.030  0.00  0.00    +0.000 OA
BRANCH  23  24
ATOM     24  C   UNL     1       1.827   8.366  19.321  0.00  0.00    +0.000 A 
ATOM     25  N   UNL     1       2.257   8.682  18.088  0.00  0.00    +0.000 NA
ATOM     26  C   UNL     1       3.052   7.783  17.480  0.00  0.00    +0.000 A 
ATOM     27  C   UNL     1       3.405   6.578  18.041  0.00  0.00    +0.000 A 
ATOM     28  C   UNL     1       2.889   6.346  19.298  0.00  0.00    +0.000 A 
ATOM     29  N   UNL     1       2.103   7.221  19.959  0.00  0.00    +0.000 NA
BRANCH  27  30
ATOM     30  C   UNL     1       4.271   5.596  17.346  0.00  0.00    +0.000 C 
ATOM     31  F   UNL     1       5.329   5.179  18.097  0.00  0.00    +0.000 F 
ATOM     32  F   UNL     1       3.605   4.467  16.984  0.00  0.00    +0.000 F 
ATOM     33  F   UNL     1       4.808   6.096  16.199  0.00  0.00    +0.000 F 
ENDBRANCH  27  30
ENDBRANCH  23  24
ENDBRANCH   9  23
TORSDOF 5
ENDMDL
MODEL 7
REMARK VINA RESULT:      -7.6      5.990     10.560
REMARK  Name = 
REMARK  5 active torsions:
REMARK  status: ('A' for Active; 'I' for Inactive)
REMARK    1  A    between atoms: C_2  and  C_3
REMARK    2  A    between atoms: C_9  and  C_10
REMARK    3  A    between atoms: C_22  and  O_23
REMARK    4  A    between atoms: O_23  and  C_24
REMARK    5  A    between atoms: C_27  and  C_28
REMARK                            x       y       z     vdW  Elec       q    Type
REMARK                         _______ _______ _______ _____ _____    ______ ____
ROOT
ATOM      1  O   UNL     1       8.623  13.613  21.347  0.00  0.00    +0.000 OA
ATOM      2  C   UNL     1       9.198  13.828  20.283  0.00  0.00    +0.000 C 
ATOM      3  N   UNL     1       9.590  12.813  19.424  0.00  0.00    +0.000 N 
ATOM      4  C   UNL     1       9.663  11.433  19.870  0.00  0.00    +0.000 C 
ATOM      5  C   UNL     1      11.112  11.384  20.389  0.00  0.00    +0.000 C 
ATOM      6  C   UNL     1      11.843  12.332  19.406  0.00  0.00    +0.000 C 
ATOM      7  C   UNL     1      10.700  12.814  18.492  0.00  0.00    +0.000 C 
ATOM      8  C   UNL     1      10.284  11.666  17.555  0.00  0.00    +0.000 C 
ATOM      9  C   UNL     1       9.628  10.649  18.531  0.00  0.00    +0.000 C 
ENDROOT
BRANCH   2  10
ATOM     10  C   UNL     1       9.392  15.233  19.838  0.00  0.00    +0.000 A 
ATOM     11  C   UNL     1      10.703  15.744  19.930  0.00  0.00    +0.000 A 
ATOM     12  C   UNL     1      11.008  17.010  19.439  0.00  0.00    +0.000 A 
ATOM     13  C   UNL     1      10.009  17.759  18.835  0.00  0.00    +0.000 A 
ATOM     14  C   UNL     1       8.712  17.248  18.737  0.00  0.00    +0.000 A 
ATOM     15  F   UNL     1       7.794  18.044  18.163  0.00  0.00    +0.000 F 
ATOM     16  C   UNL     1       8.358  15.978  19.229  0.00  0.00    +0.000 A 
BRANCH  16  17
ATOM     17  C   UNL     1       6.972  15.507  19.106  0.00  0.00    +0.000 A 
ATOM     18  N   UNL     1       6.592  14.979  17.924  0.00  0.00    +0.000 NA
ATOM     19  C   UNL     1       5.314  14.568  17.822  0.00  0.00    +0.000 A 
ATOM     20  C   UNL     1       4.416  14.641  18.855  0.00  0.00    +0.000 A 
ATOM     21  C   UNL     1       4.893  15.205  20.015  0.00  0.00    +0.000 A 
ATOM     22  N   UNL     1       6.146  15.679  20.158  0.00  0.00    +0.000 NA
ENDBRANCH  16  17
ENDBRANCH   2  10
BRANCH   9  23
ATOM     23  O   UNL     1       8.303  10.352  18.087  0.00  0.00    +0.000 OA
BRANCH  23  24
ATOM     24  C   UNL     1       8.049   8.996  18.025  0.00  0.00    +0.000 A 
ATOM     25  N   UNL     1       8.657   8.166  18.889  0.00  0.00    +0.000 NA
ATOM     26  C   UNL     1       8.315   6.866  18.815  0.00  0.00    +0.000 A 
ATOM     27  C   UNL     1       7.420   6.367  17.899  0.00  0.00    +0.000 A 
ATOM     28  C   UNL     1       6.874   7.302  17.046  0.00  0.00    +0.000 A 
ATOM     29  N   UNL     1       7.168   8.618  17.089  0.00  0.00    +0.000 NA
BRANCH  27  30
ATOM     30  C   UNL     1       7.068   4.928  17.827  0.00  0.00    +0.000 C 
ATOM     31  F   UNL     1       6.431   4.583  16.674  0.00  0.00    +0.000 F 
ATOM     32  F   UNL     1       8.156   4.114  17.910  0.00  0.00    +0.000 F 
ATOM     33  F   UNL     1       6.238   4.544  18.836  0.00  0.00    +0.000 F 
ENDBRANCH  27  30
ENDBRANCH  23  24
ENDBRANCH   9  23
TORSDOF 5
ENDMDL
MODEL 8
REMARK VINA RESULT:      -7.6      7.393      9.756
REMARK  Name = 
REMARK  5 active torsions:
REMARK  status: ('A' for Active; 'I' for Inactive)
REMARK    1  A    between atoms: C_2  and  C_3
REMARK    2  A    between atoms: C_9  and  C_10
REMARK    3  A    between atoms: C_22  and  O_23
REMARK    4  A    between atoms: O_23  and  C_24
REMARK    5  A    between atoms: C_27  and  C_28
REMARK                            x       y       z     vdW  Elec       q    Type
REMARK                         _______ _______ _______ _____ _____    ______ ____
ROOT
ATOM      1  O   UNL     1       6.651  14.729  18.394  0.00  0.00    +0.000 OA
ATOM      2  C   UNL     1       7.717  14.903  18.976  0.00  0.00    +0.000 C 
ATOM      3  N   UNL     1       7.841  14.834  20.355  0.00  0.00    +0.000 N 
ATOM      4  C   UNL     1       6.676  14.896  21.220  0.00  0.00    +0.000 C 
ATOM      5  C   UNL     1       6.567  16.417  21.432  0.00  0.00    +0.000 C 
ATOM      6  C   UNL     1       8.052  16.853  21.444  0.00  0.00    +0.000 C 
ATOM      7  C   UNL     1       8.794  15.524  21.200  0.00  0.00    +0.000 C 
ATOM      8  C   UNL     1       8.719  14.663  22.474  0.00  0.00    +0.000 C 
ATOM      9  C   UNL     1       7.212  14.286  22.543  0.00  0.00    +0.000 C 
ENDROOT
BRANCH   2  10
ATOM     10  C   UNL     1       8.955  15.092  18.174  0.00  0.00    +0.000 A 
ATOM     11  C   UNL     1       9.193  16.393  17.684  0.00  0.00    +0.000 A 
ATOM     12  C   UNL     1      10.375  16.694  17.015  0.00  0.00    +0.000 A 
ATOM     13  C   UNL     1      11.332  15.704  16.853  0.00  0.00    +0.000 A 
ATOM     14  C   UNL     1      11.099  14.417  17.347  0.00  0.00    +0.000 A 
ATOM     15  F   UNL     1      12.062  13.506  17.128  0.00  0.00    +0.000 F 
ATOM     16  C   UNL     1       9.914  14.066  18.019  0.00  0.00    +0.000 A 
BRANCH  16  17
ATOM     17  C   UNL     1       9.727  12.691  18.500  0.00  0.00    +0.000 A 
ATOM     18  N   UNL     1      10.237  12.374  19.709  0.00  0.00    +0.000 NA
ATOM     19  C   UNL     1      10.072  11.106  20.127  0.00  0.00    +0.000 A 
ATOM     20  C   UNL     1       9.401  10.155  19.402  0.00  0.00    +0.000 A 
ATOM     21  C   UNL     1       8.929  10.569  18.179  0.00  0.00    +0.000 A 
ATOM     22  N   UNL     1       9.109  11.811  17.687  0.00  0.00    +0.000 NA
ENDBRANCH  16  17
ENDBRANCH   2  10
BRANCH   9  23
ATOM     23  O   UNL     1       7.082  12.864  22.601  0.00  0.00    +0.000 OA
BRANCH  23  24
ATOM     24  C   UNL     1       6.839  12.399  23.878  0.00  0.00    +0.000 A 
ATOM     25  N   UNL     1       5.786  11.595  24.104  0.00  0.00    +0.000 NA
ATOM     26  C   UNL     1       5.645  11.127  25.358  0.00  0.00    +0.000 A 
ATOM     27  C   UNL     1       6.492  11.455  26.391  0.00  0.00    +0.000 A 
ATOM     28  C   UNL     1       7.524  12.304  26.054  0.00  0.00    +0.000 A 
ATOM     29  N   UNL     1       7.720  12.787  24.809  0.00  0.00    +0.000 NA
BRANCH  27  30
ATOM     30  C   UNL     1       6.309  10.938  27.769  0.00  0.00    +0.000 C 
ATOM     31  F   UNL     1       5.269  11.517  28.431  0.00  0.00    +0.000 F 
ATOM     32  F   UNL     1       6.072   9.599  27.804  0.00  0.00    +0.000 F 
ATOM     33  F   UNL     1       7.405  11.143  28.551  0.00  0.00    +0.000 F 
ENDBRANCH  27  30
ENDBRANCH  23  24
ENDBRANCH   9  23
TORSDOF 5
ENDMDL
MODEL 9
REMARK VINA RESULT:      -7.6      7.532     12.019
REMARK  Name = 
REMARK  5 active torsions:
REMARK  status: ('A' for Active; 'I' for Inactive)
REMARK    1  A    between atoms: C_2  and  C_3
REMARK    2  A    between atoms: C_9  and  C_10
REMARK    3  A    between atoms: C_22  and  O_23
REMARK    4  A    between atoms: O_23  and  C_24
REMARK    5  A    between atoms: C_27  and  C_28
REMARK                            x       y       z     vdW  Elec       q    Type
REMARK                         _______ _______ _______ _____ _____    ______ ____
ROOT
ATOM      1  O   UNL     1       2.779  14.392  17.852  0.00  0.00    +0.000 OA
ATOM      2  C   UNL     1       2.910  15.546  18.249  0.00  0.00    +0.000 C 
ATOM      3  N   UNL     1       4.071  16.005  18.851  0.00  0.00    +0.000 N 
ATOM      4  C   UNL     1       5.070  15.084  19.365  0.00  0.00    +0.000 C 
ATOM      5  C   UNL     1       4.552  14.884  20.801  0.00  0.00    +0.000 C 
ATOM      6  C   UNL     1       3.972  16.280  21.137  0.00  0.00    +0.000 C 
ATOM      7  C   UNL     1       4.209  17.064  19.831  0.00  0.00    +0.000 C 
ATOM      8  C   UNL     1       5.709  17.382  19.697  0.00  0.00    +0.000 C 
ATOM      9  C   UNL     1       6.334  15.980  19.453  0.00  0.00    +0.000 C 
ENDROOT
BRANCH   2  10
ATOM     10  C   UNL     1       1.827  16.530  17.983  0.00  0.00    +0.000 A 
ATOM     11  C   UNL     1       2.091  17.501  16.996  0.00  0.00    +0.000 A 
ATOM     12  C   UNL     1       1.103  18.398  16.601  0.00  0.00    +0.000 A 
ATOM     13  C   UNL     1      -0.156  18.312  17.174  0.00  0.00    +0.000 A 
ATOM     14  C   UNL     1      -0.419  17.344  18.147  0.00  0.00    +0.000 A 
ATOM     15  F   UNL     1      -1.654  17.341  18.675  0.00  0.00    +0.000 F 
ATOM     16  C   UNL     1       0.553  16.425  18.584  0.00  0.00    +0.000 A 
BRANCH  16  17
ATOM     17  C   UNL     1       0.215  15.441  19.621  0.00  0.00    +0.000 A 
ATOM     18  N   UNL     1       0.544  15.735  20.896  0.00  0.00    +0.000 NA
ATOM     19  C   UNL     1       0.243  14.817  21.832  0.00  0.00    +0.000 A 
ATOM     20  C   UNL     1      -0.392  13.635  21.549  0.00  0.00    +0.000 A 
ATOM     21  C   UNL     1      -0.676  13.420  20.221  0.00  0.00    +0.000 A 
ATOM     22  N   UNL     1      -0.353  14.280  19.236  0.00  0.00    +0.000 NA
ENDBRANCH  16  17
ENDBRANCH   2  10
BRANCH   9  23
ATOM     23  O   UNL     1       7.093  16.003  18.242  0.00  0.00    +0.000 OA
BRANCH  23  24
ATOM     24  C   UNL     1       8.050  15.009  18.189  0.00  0.00    +0.000 A 
ATOM     25  N   UNL     1       9.253  15.214  18.752  0.00  0.00    +0.000 NA
ATOM     26  C   UNL     1      10.115  14.181  18.721  0.00  0.00    +0.000 A 
ATOM     27  C   UNL     1       9.832  12.973  18.127  0.00  0.00    +0.000 A 
ATOM     28  C   UNL     1       8.579  12.879  17.560  0.00  0.00    +0.000 A 
ATOM     29  N   UNL     1       7.672  13.878  17.580  0.00  0.00    +0.000 NA
BRANCH  27  30
ATOM     30  C   UNL     1      10.803  11.852  18.093  0.00  0.00    +0.000 C 
ATOM     31  F   UNL     1      11.181  11.426  19.330  0.00  0.00    +0.000 F 
ATOM     32  F   UNL     1      10.319  10.754  17.453  0.00  0.00    +0.000 F 
ATOM     33  F   UNL     1      11.955  12.182  17.448  0.00  0.00    +0.000 F 
ENDBRANCH  27  30
ENDBRANCH  23  24
ENDBRANCH   9  23
TORSDOF 5
ENDMDL
