MODEL 1
REMARK VINA RESULT:      -5.5      0.000      0.000
REMARK  Name = 
REMARK  9 active torsions:
REMARK  status: ('A' for Active; 'I' for Inactive)
REMARK    1  A    between atoms: C_1  and  C_2
REMARK    2  A    between atoms: C_5  and  C_6
REMARK    3  A    between atoms: C_6  and  N_7
REMARK    4  A    between atoms: N_7  and  C_8
REMARK    5  A    between atoms: C_8  and  C_9
REMARK    6  A    between atoms: C_8  and  C_10
REMARK    7  A    between atoms: C_10  and  C_11
REMARK    8  A    between atoms: C_11  and  C_12
REMARK    9  A    between atoms: C_11  and  O_13
REMARK                            x       y       z     vdW  Elec       q    Type
REMARK                         _______ _______ _______ _____ _____    ______ ____
ROOT
ATOM      1  N   UNL     1       5.711   6.051  18.240  0.00  0.00    +0.000 NA
ATOM      2  H   UNL     1       5.534   6.982  18.624  0.00  0.00    +0.000 HD
ENDROOT
BRANCH   1   3
ATOM      3  C   UNL     1       7.145   5.896  17.955  0.00  0.00    +0.000 C 
ATOM      4  C   UNL     1       7.976   5.784  19.244  0.00  0.00    +0.000 C 
BRANCH   3   5
ATOM      5  C   UNL     1       7.392   4.621  17.118  0.00  0.00    +0.000 C 
BRANCH   5   6
ATOM      6  C   UNL     1       6.986   4.670  15.639  0.00  0.00    +0.000 C 
ATOM      7  C   UNL     1       5.868   3.706  15.270  0.00  0.00    +0.000 C 
BRANCH   6   8
ATOM      8  O   UNL     1       6.547   5.999  15.338  0.00  0.00    +0.000 OA
ATOM      9  H   UNL     1       6.392   6.465  16.177  0.00  0.00    +0.000 HD
ENDBRANCH   6   8
ENDBRANCH   5   6
ENDBRANCH   3   5
ENDBRANCH   1   3
BRANCH   1  10
ATOM     10  C   UNL     1       5.205   5.082  19.218  0.00  0.00    +0.000 C 
BRANCH  10  15
ATOM     11  C   UNL     1       0.646   2.321  18.913  0.00  0.00    +0.000 C 
ATOM     12  C   UNL     1       1.740   3.296  18.661  0.00  0.00    +0.000 A 
ATOM     13  C   UNL     1       1.885   4.190  17.622  0.00  0.00    +0.000 A 
ATOM     14  C   UNL     1       3.094   4.934  17.716  0.00  0.00    +0.000 A 
ATOM     15  C   UNL     1       3.845   4.587  18.820  0.00  0.00    +0.000 A 
ATOM     16  S   UNL     1       3.056   3.389  19.756  0.00  0.00    +0.000 S 
ENDBRANCH  10  15
ENDBRANCH   1  10
TORSDOF 6
ENDMDL
MODEL 2
REMARK VINA RESULT:      -5.3      1.646      2.768
REMARK  Name = 
REMARK  9 active torsions:
REMARK  status: ('A' for Active; 'I' for Inactive)
REMARK    1  A    between atoms: C_1  and  C_2
REMARK    2  A    between atoms: C_5  and  C_6
REMARK    3  A    between atoms: C_6  and  N_7
REMARK    4  A    between atoms: N_7  and  C_8
REMARK    5  A    between atoms: C_8  and  C_9
REMARK    6  A    between atoms: C_8  and  C_10
REMARK    7  A    between atoms: C_10  and  C_11
REMARK    8  A    between atoms: C_11  and  C_12
REMARK    9  A    between atoms: C_11  and  O_13
REMARK                            x       y       z     vdW  Elec       q    Type
REMARK                         _______ _______ _______ _____ _____    ______ ____
ROOT
ATOM      1  N   UNL     1       5.257   3.580  17.418  0.00  0.00    +0.000 NA
ATOM      2  H   UNL     1       5.711   2.669  17.319  0.00  0.00    +0.000 HD
ENDROOT
BRANCH   1   3
ATOM      3  C   UNL     1       5.976   4.582  16.617  0.00  0.00    +0.000 C 
ATOM      4  C   UNL     1       5.530   4.566  15.145  0.00  0.00    +0.000 C 
BRANCH   3   5
ATOM      5  C   UNL     1       5.721   6.000  17.175  0.00  0.00    +0.000 C 
BRANCH   5   6
ATOM      6  C   UNL     1       6.953   6.819  17.583  0.00  0.00    +0.000 C 
ATOM      7  C   UNL     1       7.749   6.212  18.730  0.00  0.00    +0.000 C 
BRANCH   6   8
ATOM      8  O   UNL     1       7.818   6.926  16.447  0.00  0.00    +0.000 OA
ATOM      9  H   UNL     1       8.084   6.029  16.183  0.00  0.00    +0.000 HD
ENDBRANCH   6   8
ENDBRANCH   5   6
ENDBRANCH   3   5
ENDBRANCH   1   3
BRANCH   1  10
ATOM     10  C   UNL     1       3.858   3.408  17.014  0.00  0.00    +0.000 C 
BRANCH  10  15
ATOM     11  C   UNL     1       1.610   2.592  21.786  0.00  0.00    +0.000 C 
ATOM     12  C   UNL     1       1.891   3.074  20.409  0.00  0.00    +0.000 A 
ATOM     13  C   UNL     1       1.102   3.842  19.578  0.00  0.00    +0.000 A 
ATOM     14  C   UNL     1       1.712   4.069  18.313  0.00  0.00    +0.000 A 
ATOM     15  C   UNL     1       2.949   3.466  18.206  0.00  0.00    +0.000 A 
ATOM     16  S   UNL     1       3.377   2.664  19.657  0.00  0.00    +0.000 S 
ENDBRANCH  10  15
ENDBRANCH   1  10
TORSDOF 6
ENDMDL
MODEL 3
REMARK VINA RESULT:      -5.3      1.149      1.378
REMARK  Name = 
REMARK  9 active torsions:
REMARK  status: ('A' for Active; 'I' for Inactive)
REMARK    1  A    between atoms: C_1  and  C_2
REMARK    2  A    between atoms: C_5  and  C_6
REMARK    3  A    between atoms: C_6  and  N_7
REMARK    4  A    between atoms: N_7  and  C_8
REMARK    5  A    between atoms: C_8  and  C_9
REMARK    6  A    between atoms: C_8  and  C_10
REMARK    7  A    between atoms: C_10  and  C_11
REMARK    8  A    between atoms: C_11  and  C_12
REMARK    9  A    between atoms: C_11  and  O_13
REMARK                            x       y       z     vdW  Elec       q    Type
REMARK                         _______ _______ _______ _____ _____    ______ ____
ROOT
ATOM      1  N   UNL     1       5.783   4.810  19.256  0.00  0.00    +0.000 NA
ATOM      2  H   UNL     1       5.487   3.935  18.819  0.00  0.00    +0.000 HD
ENDROOT
BRANCH   1   3
ATOM      3  C   UNL     1       6.846   5.433  18.453  0.00  0.00    +0.000 C 
ATOM      4  C   UNL     1       8.032   5.883  19.322  0.00  0.00    +0.000 C 
BRANCH   3   5
ATOM      5  C   UNL     1       7.380   4.434  17.401  0.00  0.00    +0.000 C 
BRANCH   5   6
ATOM      6  C   UNL     1       6.973   4.679  15.942  0.00  0.00    +0.000 C 
ATOM      7  C   UNL     1       5.470   4.653  15.703  0.00  0.00    +0.000 C 
BRANCH   6   8
ATOM      8  O   UNL     1       7.466   5.964  15.547  0.00  0.00    +0.000 OA
ATOM      9  H   UNL     1       6.723   6.474  15.182  0.00  0.00    +0.000 HD
ENDBRANCH   6   8
ENDBRANCH   5   6
ENDBRANCH   3   5
ENDBRANCH   1   3
BRANCH   1  10
ATOM     10  C   UNL     1       4.587   5.649  19.388  0.00  0.00    +0.000 C 
BRANCH  10  15
ATOM     11  C   UNL     1       0.592   2.162  18.782  0.00  0.00    +0.000 C 
ATOM     12  C   UNL     1       1.501   3.206  19.324  0.00  0.00    +0.000 A 
ATOM     13  C   UNL     1       1.358   3.979  20.457  0.00  0.00    +0.000 A 
ATOM     14  C   UNL     1       2.434   4.896  20.622  0.00  0.00    +0.000 A 
ATOM     15  C   UNL     1       3.367   4.804  19.610  0.00  0.00    +0.000 A 
ATOM     16  S   UNL     1       2.951   3.579  18.489  0.00  0.00    +0.000 S 
ENDBRANCH  10  15
ENDBRANCH   1  10
TORSDOF 6
ENDMDL
MODEL 4
REMARK VINA RESULT:      -5.3      1.683      2.747
REMARK  Name = 
REMARK  9 active torsions:
REMARK  status: ('A' for Active; 'I' for Inactive)
REMARK    1  A    between atoms: C_1  and  C_2
REMARK    2  A    between atoms: C_5  and  C_6
REMARK    3  A    between atoms: C_6  and  N_7
REMARK    4  A    between atoms: N_7  and  C_8
REMARK    5  A    between atoms: C_8  and  C_9
REMARK    6  A    between atoms: C_8  and  C_10
REMARK    7  A    between atoms: C_10  and  C_11
REMARK    8  A    between atoms: C_11  and  C_12
REMARK    9  A    between atoms: C_11  and  O_13
REMARK                            x       y       z     vdW  Elec       q    Type
REMARK                         _______ _______ _______ _____ _____    ______ ____
ROOT
ATOM      1  N   UNL     1       5.228   3.323  16.957  0.00  0.00    +0.000 NA
ATOM      2  H   UNL     1       5.232   2.342  16.670  0.00  0.00    +0.000 HD
ENDROOT
BRANCH   1   3
ATOM      3  C   UNL     1       6.069   4.111  16.044  0.00  0.00    +0.000 C 
ATOM      4  C   UNL     1       5.304   5.305  15.449  0.00  0.00    +0.000 C 
BRANCH   3   5
ATOM      5  C   UNL     1       7.304   4.662  16.791  0.00  0.00    +0.000 C 
BRANCH   5   6
ATOM      6  C   UNL     1       7.137   6.004  17.515  0.00  0.00    +0.000 C 
ATOM      7  C   UNL     1       7.738   6.033  18.914  0.00  0.00    +0.000 C 
BRANCH   6   8
ATOM      8  O   UNL     1       7.776   7.020  16.734  0.00  0.00    +0.000 OA
ATOM      9  H   UNL     1       7.399   7.879  16.988  0.00  0.00    +0.000 HD
ENDBRANCH   6   8
ENDBRANCH   5   6
ENDBRANCH   3   5
ENDBRANCH   1   3
BRANCH   1  10
ATOM     10  C   UNL     1       3.827   3.758  16.978  0.00  0.00    +0.000 C 
BRANCH  10  15
ATOM     11  C   UNL     1       1.445   2.716  21.640  0.00  0.00    +0.000 C 
ATOM     12  C   UNL     1       2.197   3.379  20.542  0.00  0.00    +0.000 A 
ATOM     13  C   UNL     1       2.668   4.673  20.468  0.00  0.00    +0.000 A 
ATOM     14  C   UNL     1       3.316   4.940  19.230  0.00  0.00    +0.000 A 
ATOM     15  C   UNL     1       3.319   3.847  18.387  0.00  0.00    +0.000 A 
ATOM     16  S   UNL     1       2.572   2.493  19.122  0.00  0.00    +0.000 S 
ENDBRANCH  10  15
ENDBRANCH   1  10
TORSDOF 6
ENDMDL
MODEL 5
REMARK VINA RESULT:      -5.3      1.886      2.882
REMARK  Name = 
REMARK  9 active torsions:
REMARK  status: ('A' for Active; 'I' for Inactive)
REMARK    1  A    between atoms: C_1  and  C_2
REMARK    2  A    between atoms: C_5  and  C_6
REMARK    3  A    between atoms: C_6  and  N_7
REMARK    4  A    between atoms: N_7  and  C_8
REMARK    5  A    between atoms: C_8  and  C_9
REMARK    6  A    between atoms: C_8  and  C_10
REMARK    7  A    between atoms: C_10  and  C_11
REMARK    8  A    between atoms: C_11  and  C_12
REMARK    9  A    between atoms: C_11  and  O_13
REMARK                            x       y       z     vdW  Elec       q    Type
REMARK                         _______ _______ _______ _____ _____    ______ ____
ROOT
ATOM      1  N   UNL     1       4.249   4.086  16.802  0.00  0.00    +0.000 NA
ATOM      2  H   UNL     1       3.625   3.912  16.011  0.00  0.00    +0.000 HD
ENDROOT
BRANCH   1   3
ATOM      3  C   UNL     1       5.636   4.191  16.327  0.00  0.00    +0.000 C 
ATOM      4  C   UNL     1       5.722   4.134  14.793  0.00  0.00    +0.000 C 
BRANCH   3   5
ATOM      5  C   UNL     1       6.264   5.525  16.789  0.00  0.00    +0.000 C 
BRANCH   5   6
ATOM      6  C   UNL     1       7.518   5.436  17.669  0.00  0.00    +0.000 C 
ATOM      7  C   UNL     1       7.248   5.616  19.156  0.00  0.00    +0.000 C 
BRANCH   6   8
ATOM      8  O   UNL     1       8.111   4.147  17.476  0.00  0.00    +0.000 OA
ATOM      9  H   UNL     1       8.444   4.100  16.564  0.00  0.00    +0.000 HD
ENDBRANCH   6   8
ENDBRANCH   5   6
ENDBRANCH   3   5
ENDBRANCH   1   3
BRANCH   1  10
ATOM     10  C   UNL     1       3.769   5.301  17.468  0.00  0.00    +0.000 C 
BRANCH  10  15
ATOM     11  C   UNL     1       1.642   2.697  21.614  0.00  0.00    +0.000 C 
ATOM     12  C   UNL     1       2.102   3.764  20.687  0.00  0.00    +0.000 A 
ATOM     13  C   UNL     1       1.879   5.124  20.748  0.00  0.00    +0.000 A 
ATOM     14  C   UNL     1       2.461   5.815  19.649  0.00  0.00    +0.000 A 
ATOM     15  C   UNL     1       3.109   4.967  18.774  0.00  0.00    +0.000 A 
ATOM     16  S   UNL     1       3.040   3.344  19.314  0.00  0.00    +0.000 S 
ENDBRANCH  10  15
ENDBRANCH   1  10
TORSDOF 6
ENDMDL
MODEL 6
REMARK VINA RESULT:      -5.3      1.391      1.794
REMARK  Name = 
REMARK  9 active torsions:
REMARK  status: ('A' for Active; 'I' for Inactive)
REMARK    1  A    between atoms: C_1  and  C_2
REMARK    2  A    between atoms: C_5  and  C_6
REMARK    3  A    between atoms: C_6  and  N_7
REMARK    4  A    between atoms: N_7  and  C_8
REMARK    5  A    between atoms: C_8  and  C_9
REMARK    6  A    between atoms: C_8  and  C_10
REMARK    7  A    between atoms: C_10  and  C_11
REMARK    8  A    between atoms: C_11  and  C_12
REMARK    9  A    between atoms: C_11  and  O_13
REMARK                            x       y       z     vdW  Elec       q    Type
REMARK                         _______ _______ _______ _____ _____    ______ ____
ROOT
ATOM      1  N   UNL     1       5.220   4.821  17.824  0.00  0.00    +0.000 NA
ATOM      2  H   UNL     1       5.888   4.047  17.821  0.00  0.00    +0.000 HD
ENDROOT
BRANCH   1   3
ATOM      3  C   UNL     1       5.809   5.987  17.149  0.00  0.00    +0.000 C 
ATOM      4  C   UNL     1       7.272   6.211  17.565  0.00  0.00    +0.000 C 
BRANCH   3   5
ATOM      5  C   UNL     1       5.776   5.795  15.616  0.00  0.00    +0.000 C 
BRANCH   5   6
ATOM      6  C   UNL     1       6.801   4.826  15.014  0.00  0.00    +0.000 C 
ATOM      7  C   UNL     1       6.204   3.805  14.056  0.00  0.00    +0.000 C 
BRANCH   6   8
ATOM      8  O   UNL     1       7.777   5.592  14.298  0.00  0.00    +0.000 OA
ATOM      9  H   UNL     1       7.434   6.496  14.192  0.00  0.00    +0.000 HD
ENDBRANCH   6   8
ENDBRANCH   5   6
ENDBRANCH   3   5
ENDBRANCH   1   3
BRANCH   1  10
ATOM     10  C   UNL     1       3.996   4.334  17.180  0.00  0.00    +0.000 C 
BRANCH  10  15
ATOM     11  C   UNL     1       1.569   2.608  21.610  0.00  0.00    +0.000 C 
ATOM     12  C   UNL     1       1.836   3.144  20.250  0.00  0.00    +0.000 A 
ATOM     13  C   UNL     1       0.945   3.420  19.234  0.00  0.00    +0.000 A 
ATOM     14  C   UNL     1       1.596   3.894  18.061  0.00  0.00    +0.000 A 
ATOM     15  C   UNL     1       2.966   3.964  18.207  0.00  0.00    +0.000 A 
ATOM     16  S   UNL     1       3.448   3.492  19.780  0.00  0.00    +0.000 S 
ENDBRANCH  10  15
ENDBRANCH   1  10
TORSDOF 6
ENDMDL
MODEL 7
REMARK VINA RESULT:      -5.3      1.282      1.352
REMARK  Name = 
REMARK  9 active torsions:
REMARK  status: ('A' for Active; 'I' for Inactive)
REMARK    1  A    between atoms: C_1  and  C_2
REMARK    2  A    between atoms: C_5  and  C_6
REMARK    3  A    between atoms: C_6  and  N_7
REMARK    4  A    between atoms: N_7  and  C_8
REMARK    5  A    between atoms: C_8  and  C_9
REMARK    6  A    between atoms: C_8  and  C_10
REMARK    7  A    between atoms: C_10  and  C_11
REMARK    8  A    between atoms: C_11  and  C_12
REMARK    9  A    between atoms: C_11  and  O_13
REMARK                            x       y       z     vdW  Elec       q    Type
REMARK                         _______ _______ _______ _____ _____    ______ ____
ROOT
ATOM      1  N   UNL     1       6.533   5.003  18.297  0.00  0.00    +0.000 NA
ATOM      2  H   UNL     1       6.244   4.100  17.915  0.00  0.00    +0.000 HD
ENDROOT
BRANCH   1   3
ATOM      3  C   UNL     1       6.559   6.011  17.227  0.00  0.00    +0.000 C 
ATOM      4  C   UNL     1       7.596   7.113  17.503  0.00  0.00    +0.000 C 
BRANCH   3   5
ATOM      5  C   UNL     1       6.914   5.352  15.876  0.00  0.00    +0.000 C 
BRANCH   5   6
ATOM      6  C   UNL     1       5.882   4.385  15.281  0.00  0.00    +0.000 C 
ATOM      7  C   UNL     1       6.198   3.935  13.862  0.00  0.00    +0.000 C 
BRANCH   6   8
ATOM      8  O   UNL     1       5.824   3.222  16.115  0.00  0.00    +0.000 OA
ATOM      9  H   UNL     1       6.530   3.290  16.780  0.00  0.00    +0.000 HD
ENDBRANCH   6   8
ENDBRANCH   5   6
ENDBRANCH   3   5
ENDBRANCH   1   3
BRANCH   1  10
ATOM     10  C   UNL     1       5.599   5.328  19.380  0.00  0.00    +0.000 C 
BRANCH  10  15
ATOM     11  C   UNL     1       1.223   2.374  18.598  0.00  0.00    +0.000 C 
ATOM     12  C   UNL     1       2.186   3.504  18.653  0.00  0.00    +0.000 A 
ATOM     13  C   UNL     1       2.054   4.784  18.156  0.00  0.00    +0.000 A 
ATOM     14  C   UNL     1       3.217   5.572  18.381  0.00  0.00    +0.000 A 
ATOM     15  C   UNL     1       4.210   4.875  19.038  0.00  0.00    +0.000 A 
ATOM     16  S   UNL     1       3.707   3.282  19.414  0.00  0.00    +0.000 S 
ENDBRANCH  10  15
ENDBRANCH   1  10
TORSDOF 6
ENDMDL
MODEL 8
REMARK VINA RESULT:      -5.3      1.705      2.810
REMARK  Name = 
REMARK  9 active torsions:
REMARK  status: ('A' for Active; 'I' for Inactive)
REMARK    1  A    between atoms: C_1  and  C_2
REMARK    2  A    between atoms: C_5  and  C_6
REMARK    3  A    between atoms: C_6  and  N_7
REMARK    4  A    between atoms: N_7  and  C_8
REMARK    5  A    between atoms: C_8  and  C_9
REMARK    6  A    between atoms: C_8  and  C_10
REMARK    7  A    between atoms: C_10  and  C_11
REMARK    8  A    between atoms: C_11  and  C_12
REMARK    9  A    between atoms: C_11  and  O_13
REMARK                            x       y       z     vdW  Elec       q    Type
REMARK                         _______ _______ _______ _____ _____    ______ ____
ROOT
ATOM      1  N   UNL     1       5.710   3.734  16.936  0.00  0.00    +0.000 NA
ATOM      2  H   UNL     1       5.927   2.780  16.640  0.00  0.00    +0.000 HD
ENDROOT
BRANCH   1   3
ATOM      3  C   UNL     1       6.655   4.675  16.316  0.00  0.00    +0.000 C 
ATOM      4  C   UNL     1       6.772   4.452  14.799  0.00  0.00    +0.000 C 
BRANCH   3   5
ATOM      5  C   UNL     1       6.196   6.131  16.549  0.00  0.00    +0.000 C 
BRANCH   5   6
ATOM      6  C   UNL     1       6.911   6.917  17.656  0.00  0.00    +0.000 C 
ATOM      7  C   UNL     1       7.712   6.049  18.616  0.00  0.00    +0.000 C 
BRANCH   6   8
ATOM      8  O   UNL     1       7.808   7.847  17.039  0.00  0.00    +0.000 OA
ATOM      9  H   UNL     1       7.473   8.046  16.149  0.00  0.00    +0.000 HD
ENDBRANCH   6   8
ENDBRANCH   5   6
ENDBRANCH   3   5
ENDBRANCH   1   3
BRANCH   1  10
ATOM     10  C   UNL     1       4.313   3.989  16.571  0.00  0.00    +0.000 C 
BRANCH  10  15
ATOM     11  C   UNL     1       1.278   3.452  20.929  0.00  0.00    +0.000 C 
ATOM     12  C   UNL     1       1.993   3.195  19.652  0.00  0.00    +0.000 A 
ATOM     13  C   UNL     1       2.113   2.017  18.945  0.00  0.00    +0.000 A 
ATOM     14  C   UNL     1       2.910   2.169  17.776  0.00  0.00    +0.000 A 
ATOM     15  C   UNL     1       3.382   3.457  17.621  0.00  0.00    +0.000 A 
ATOM     16  S   UNL     1       2.821   4.480  18.875  0.00  0.00    +0.000 S 
ENDBRANCH  10  15
ENDBRANCH   1  10
TORSDOF 6
ENDMDL
MODEL 9
REMARK VINA RESULT:      -5.3      1.355      1.495
REMARK  Name = 
REMARK  9 active torsions:
REMARK  status: ('A' for Active; 'I' for Inactive)
REMARK    1  A    between atoms: C_1  and  C_2
REMARK    2  A    between atoms: C_5  and  C_6
REMARK    3  A    between atoms: C_6  and  N_7
REMARK    4  A    between atoms: N_7  and  C_8
REMARK    5  A    between atoms: C_8  and  C_9
REMARK    6  A    between atoms: C_8  and  C_10
REMARK    7  A    between atoms: C_10  and  C_11
REMARK    8  A    between atoms: C_11  and  C_12
REMARK    9  A    between atoms: C_11  and  O_13
REMARK                            x       y       z     vdW  Elec       q    Type
REMARK                         _______ _______ _______ _____ _____    ______ ____
ROOT
ATOM      1  N   UNL     1       6.275   5.145  18.189  0.00  0.00    +0.000 NA
ATOM      2  H   UNL     1       6.248   4.298  17.617  0.00  0.00    +0.000 HD
ENDROOT
BRANCH   1   3
ATOM      3  C   UNL     1       5.992   6.320  17.352  0.00  0.00    +0.000 C 
ATOM      4  C   UNL     1       7.135   7.349  17.404  0.00  0.00    +0.000 C 
BRANCH   3   5
ATOM      5  C   UNL     1       5.801   5.898  15.878  0.00  0.00    +0.000 C 
BRANCH   5   6
ATOM      6  C   UNL     1       6.384   4.541  15.463  0.00  0.00    +0.000 C 
ATOM      7  C   UNL     1       6.023   4.117  14.046  0.00  0.00    +0.000 C 
BRANCH   6   8
ATOM      8  O   UNL     1       7.811   4.618  15.555  0.00  0.00    +0.000 OA
ATOM      9  H   UNL     1       8.128   3.828  16.024  0.00  0.00    +0.000 HD
ENDBRANCH   6   8
ENDBRANCH   5   6
ENDBRANCH   3   5
ENDBRANCH   1   3
BRANCH   1  10
ATOM     10  C   UNL     1       5.308   4.960  19.276  0.00  0.00    +0.000 C 
BRANCH  10  15
ATOM     11  C   UNL     1       0.605   2.461  18.925  0.00  0.00    +0.000 C 
ATOM     12  C   UNL     1       2.001   2.908  18.680  0.00  0.00    +0.000 A 
ATOM     13  C   UNL     1       2.929   2.412  17.790  0.00  0.00    +0.000 A 
ATOM     14  C   UNL     1       4.176   3.091  17.877  0.00  0.00    +0.000 A 
ATOM     15  C   UNL     1       4.172   4.085  18.834  0.00  0.00    +0.000 A 
ATOM     16  S   UNL     1       2.641   4.212  19.591  0.00  0.00    +0.000 S 
ENDBRANCH  10  15
ENDBRANCH   1  10
TORSDOF 6
ENDMDL
