MODEL 1
REMARK VINA RESULT:      -7.8      0.000      0.000
REMARK  Name = 
REMARK  6 active torsions:
REMARK  status: ('A' for Active; 'I' for Inactive)
REMARK    1  A    between atoms: C_1  and  O_2
REMARK    2  A    between atoms: O_2  and  C_3
REMARK    3  A    between atoms: C_4  and  O_5
REMARK    4  A    between atoms: C_9  and  O_10
REMARK    5  A    between atoms: O_10  and  C_11
REMARK    6  A    between atoms: N_14  and  C_15
REMARK                            x       y       z     vdW  Elec       q    Type
REMARK                         _______ _______ _______ _____ _____    ______ ____
ROOT
ATOM      1  C   UNL     1       2.194   8.140  18.952  0.00  0.00    +0.000 A 
ATOM      2  C   UNL     1       2.966   7.568  17.913  0.00  0.00    +0.000 A 
ATOM      3  C   UNL     1       3.453   6.241  17.942  0.00  0.00    +0.000 A 
ATOM      4  C   UNL     1       2.979   5.453  19.002  0.00  0.00    +0.000 A 
ATOM      5  C   UNL     1       2.214   6.013  20.069  0.00  0.00    +0.000 A 
ATOM      6  C   UNL     1       1.795   7.341  20.028  0.00  0.00    +0.000 A 
ATOM      7  C   UNL     1       1.701   5.015  21.079  0.00  0.00    +0.000 C 
ATOM      8  C   UNL     1       0.898   3.972  20.284  0.00  0.00    +0.000 C 
ATOM      9  N   UNL     1       1.574   3.507  19.049  0.00  0.00    +0.000 NA
ATOM     10  C   UNL     1       1.207   2.156  18.695  0.00  0.00    +0.000 C 
ATOM     11  C   UNL     1       2.998   3.919  18.965  0.00  0.00    +0.000 C 
ATOM     12  C   UNL     1       3.835   3.311  17.819  0.00  0.00    +0.000 C 
ATOM     13  C   UNL     1       4.593   4.250  16.923  0.00  0.00    +0.000 A 
ATOM     14  C   UNL     1       5.524   3.681  16.026  0.00  0.00    +0.000 A 
ATOM     15  C   UNL     1       6.244   4.472  15.138  0.00  0.00    +0.000 A 
ATOM     16  C   UNL     1       6.049   5.844  15.143  0.00  0.00    +0.000 A 
ATOM     17  C   UNL     1       5.146   6.415  16.045  0.00  0.00    +0.000 A 
ATOM     18  C   UNL     1       4.376   5.641  16.943  0.00  0.00    +0.000 A 
ENDROOT
BRANCH   1  20
ATOM     19  C   UNL     1       0.489   9.632  18.228  0.00  0.00    +0.000 C 
ATOM     20  O   UNL     1       1.726   9.434  18.911  0.00  0.00    +0.000 OA
ENDBRANCH   1  20
BRANCH   2  21
ATOM     21  O   UNL     1       3.106   8.281  16.746  0.00  0.00    +0.000 OA
ATOM     22  H   UNL     1       2.285   8.123  16.240  0.00  0.00    +0.000 HD
ENDBRANCH   2  21
BRANCH   6  23
ATOM     23  O   UNL     1       0.984   7.755  21.052  0.00  0.00    +0.000 OA
ATOM     24  C   UNL     1       1.538   8.765  21.892  0.00  0.00    +0.000 C 
ENDBRANCH   6  23
TORSDOF 3
ENDMDL
MODEL 2
REMARK VINA RESULT:      -6.4      5.474     10.038
REMARK  Name = 
REMARK  6 active torsions:
REMARK  status: ('A' for Active; 'I' for Inactive)
REMARK    1  A    between atoms: C_1  and  O_2
REMARK    2  A    between atoms: O_2  and  C_3
REMARK    3  A    between atoms: C_4  and  O_5
REMARK    4  A    between atoms: C_9  and  O_10
REMARK    5  A    between atoms: O_10  and  C_11
REMARK    6  A    between atoms: N_14  and  C_15
REMARK                            x       y       z     vdW  Elec       q    Type
REMARK                         _______ _______ _______ _____ _____    ______ ____
ROOT
ATOM      1  C   UNL     1       0.247  11.086  21.458  0.00  0.00    +0.000 A 
ATOM      2  C   UNL     1      -0.934  11.280  22.214  0.00  0.00    +0.000 A 
ATOM      3  C   UNL     1      -2.072  11.960  21.724  0.00  0.00    +0.000 A 
ATOM      4  C   UNL     1      -2.030  12.292  20.361  0.00  0.00    +0.000 A 
ATOM      5  C   UNL     1      -0.845  12.121  19.585  0.00  0.00    +0.000 A 
ATOM      6  C   UNL     1       0.276  11.491  20.120  0.00  0.00    +0.000 A 
ATOM      7  C   UNL     1      -0.994  12.436  18.115  0.00  0.00    +0.000 C 
ATOM      8  C   UNL     1      -2.148  11.559  17.602  0.00  0.00    +0.000 C 
ATOM      9  N   UNL     1      -3.336  11.548  18.489  0.00  0.00    +0.000 NA
ATOM     10  C   UNL     1      -4.565  11.327  17.763  0.00  0.00    +0.000 C 
ATOM     11  C   UNL     1      -3.293  12.593  19.544  0.00  0.00    +0.000 C 
ATOM     12  C   UNL     1      -4.574  12.790  20.383  0.00  0.00    +0.000 C 
ATOM     13  C   UNL     1      -4.450  12.749  21.881  0.00  0.00    +0.000 A 
ATOM     14  C   UNL     1      -5.575  13.149  22.636  0.00  0.00    +0.000 A 
ATOM     15  C   UNL     1      -5.559  13.111  24.026  0.00  0.00    +0.000 A 
ATOM     16  C   UNL     1      -4.415  12.680  24.678  0.00  0.00    +0.000 A 
ATOM     17  C   UNL     1      -3.291  12.306  23.936  0.00  0.00    +0.000 A 
ATOM     18  C   UNL     1      -3.279  12.305  22.522  0.00  0.00    +0.000 A 
ENDROOT
BRANCH   1  20
ATOM     19  C   UNL     1       1.267   8.998  21.963  0.00  0.00    +0.000 C 
ATOM     20  O   UNL     1       1.348  10.422  21.948  0.00  0.00    +0.000 OA
ENDBRANCH   1  20
BRANCH   2  21
ATOM     21  O   UNL     1      -1.040  10.631  23.422  0.00  0.00    +0.000 OA
ATOM     22  H   UNL     1      -1.226   9.697  23.204  0.00  0.00    +0.000 HD
ENDBRANCH   2  21
BRANCH   6  23
ATOM     23  O   UNL     1       1.326  11.287  19.264  0.00  0.00    +0.000 OA
ATOM     24  C   UNL     1       1.285  10.062  18.536  0.00  0.00    +0.000 C 
ENDBRANCH   6  23
TORSDOF 3
ENDMDL
MODEL 3
REMARK VINA RESULT:      -6.2      7.748     10.764
REMARK  Name = 
REMARK  6 active torsions:
REMARK  status: ('A' for Active; 'I' for Inactive)
REMARK    1  A    between atoms: C_1  and  O_2
REMARK    2  A    between atoms: O_2  and  C_3
REMARK    3  A    between atoms: C_4  and  O_5
REMARK    4  A    between atoms: C_9  and  O_10
REMARK    5  A    between atoms: O_10  and  C_11
REMARK    6  A    between atoms: N_14  and  C_15
REMARK                            x       y       z     vdW  Elec       q    Type
REMARK                         _______ _______ _______ _____ _____    ______ ____
ROOT
ATOM      1  C   UNL     1      -4.009  13.062  21.723  0.00  0.00    +0.000 A 
ATOM      2  C   UNL     1      -3.421  12.525  20.553  0.00  0.00    +0.000 A 
ATOM      3  C   UNL     1      -4.155  12.209  19.386  0.00  0.00    +0.000 A 
ATOM      4  C   UNL     1      -5.496  12.623  19.392  0.00  0.00    +0.000 A 
ATOM      5  C   UNL     1      -6.111  13.151  20.565  0.00  0.00    +0.000 A 
ATOM      6  C   UNL     1      -5.365  13.401  21.715  0.00  0.00    +0.000 A 
ATOM      7  C   UNL     1      -7.530  13.637  20.379  0.00  0.00    +0.000 C 
ATOM      8  C   UNL     1      -7.484  14.670  19.240  0.00  0.00    +0.000 C 
ATOM      9  N   UNL     1      -6.679  14.241  18.071  0.00  0.00    +0.000 NA
ATOM     10  C   UNL     1      -7.150  14.821  16.835  0.00  0.00    +0.000 C 
ATOM     11  C   UNL     1      -6.311  12.802  18.104  0.00  0.00    +0.000 C 
ATOM     12  C   UNL     1      -5.651  12.221  16.836  0.00  0.00    +0.000 C 
ATOM     13  C   UNL     1      -4.349  11.485  16.990  0.00  0.00    +0.000 A 
ATOM     14  C   UNL     1      -3.871  10.771  15.869  0.00  0.00    +0.000 A 
ATOM     15  C   UNL     1      -2.659  10.091  15.913  0.00  0.00    +0.000 A 
ATOM     16  C   UNL     1      -1.915  10.109  17.082  0.00  0.00    +0.000 A 
ATOM     17  C   UNL     1      -2.395  10.795  18.202  0.00  0.00    +0.000 A 
ATOM     18  C   UNL     1      -3.609  11.521  18.186  0.00  0.00    +0.000 A 
ENDROOT
BRANCH   1  20
ATOM     19  C   UNL     1      -3.028  12.280  23.744  0.00  0.00    +0.000 C 
ATOM     20  O   UNL     1      -3.283  13.365  22.853  0.00  0.00    +0.000 OA
ENDBRANCH   1  20
BRANCH   2  21
ATOM     21  O   UNL     1      -2.049  12.463  20.489  0.00  0.00    +0.000 OA
ATOM     22  H   UNL     1      -1.747  12.367  21.414  0.00  0.00    +0.000 HD
ENDBRANCH   2  21
BRANCH   6  23
ATOM     23  O   UNL     1      -6.028  14.000  22.753  0.00  0.00    +0.000 OA
ATOM     24  C   UNL     1      -6.575  13.104  23.719  0.00  0.00    +0.000 C 
ENDBRANCH   6  23
TORSDOF 3
ENDMDL
MODEL 4
REMARK VINA RESULT:      -6.2      6.929      9.009
REMARK  Name = 
REMARK  6 active torsions:
REMARK  status: ('A' for Active; 'I' for Inactive)
REMARK    1  A    between atoms: C_1  and  O_2
REMARK    2  A    between atoms: O_2  and  C_3
REMARK    3  A    between atoms: C_4  and  O_5
REMARK    4  A    between atoms: C_9  and  O_10
REMARK    5  A    between atoms: O_10  and  C_11
REMARK    6  A    between atoms: N_14  and  C_15
REMARK                            x       y       z     vdW  Elec       q    Type
REMARK                         _______ _______ _______ _____ _____    ______ ____
ROOT
ATOM      1  C   UNL     1      -4.482  13.416  21.260  0.00  0.00    +0.000 A 
ATOM      2  C   UNL     1      -4.459  12.647  20.072  0.00  0.00    +0.000 A 
ATOM      3  C   UNL     1      -3.287  12.056  19.546  0.00  0.00    +0.000 A 
ATOM      4  C   UNL     1      -2.155  12.134  20.373  0.00  0.00    +0.000 A 
ATOM      5  C   UNL     1      -2.151  12.917  21.565  0.00  0.00    +0.000 A 
ATOM      6  C   UNL     1      -3.317  13.528  22.024  0.00  0.00    +0.000 A 
ATOM      7  C   UNL     1      -0.889  12.820  22.389  0.00  0.00    +0.000 C 
ATOM      8  C   UNL     1      -0.684  11.324  22.684  0.00  0.00    +0.000 C 
ATOM      9  N   UNL     1      -0.879  10.446  21.505  0.00  0.00    +0.000 NA
ATOM     10  C   UNL     1      -0.085   9.242  21.577  0.00  0.00    +0.000 C 
ATOM     11  C   UNL     1      -0.955  11.190  20.222  0.00  0.00    +0.000 C 
ATOM     12  C   UNL     1      -0.952  10.351  18.927  0.00  0.00    +0.000 C 
ATOM     13  C   UNL     1      -2.050  10.588  17.928  0.00  0.00    +0.000 A 
ATOM     14  C   UNL     1      -1.915   9.981  16.660  0.00  0.00    +0.000 A 
ATOM     15  C   UNL     1      -2.900  10.121  15.688  0.00  0.00    +0.000 A 
ATOM     16  C   UNL     1      -4.027  10.876  15.970  0.00  0.00    +0.000 A 
ATOM     17  C   UNL     1      -4.154  11.498  17.215  0.00  0.00    +0.000 A 
ATOM     18  C   UNL     1      -3.188  11.356  18.238  0.00  0.00    +0.000 A 
ENDROOT
BRANCH   1  20
ATOM     19  C   UNL     1      -5.915  15.313  21.322  0.00  0.00    +0.000 C 
ATOM     20  O   UNL     1      -5.630  13.985  21.760  0.00  0.00    +0.000 OA
ENDBRANCH   1  20
BRANCH   2  21
ATOM     21  O   UNL     1      -5.662  12.319  19.493  0.00  0.00    +0.000 OA
ATOM     22  H   UNL     1      -5.678  11.343  19.451  0.00  0.00    +0.000 HD
ENDBRANCH   2  21
BRANCH   6  23
ATOM     23  O   UNL     1      -3.231  14.175  23.229  0.00  0.00    +0.000 OA
ATOM     24  C   UNL     1      -3.759  13.455  24.341  0.00  0.00    +0.000 C 
ENDBRANCH   6  23
TORSDOF 3
ENDMDL
MODEL 5
REMARK VINA RESULT:      -6.1      1.863      5.297
REMARK  Name = 
REMARK  6 active torsions:
REMARK  status: ('A' for Active; 'I' for Inactive)
REMARK    1  A    between atoms: C_1  and  O_2
REMARK    2  A    between atoms: O_2  and  C_3
REMARK    3  A    between atoms: C_4  and  O_5
REMARK    4  A    between atoms: C_9  and  O_10
REMARK    5  A    between atoms: O_10  and  C_11
REMARK    6  A    between atoms: N_14  and  C_15
REMARK                            x       y       z     vdW  Elec       q    Type
REMARK                         _______ _______ _______ _____ _____    ______ ____
ROOT
ATOM      1  C   UNL     1       4.925   5.817  16.749  0.00  0.00    +0.000 A 
ATOM      2  C   UNL     1       4.203   6.628  17.657  0.00  0.00    +0.000 A 
ATOM      3  C   UNL     1       3.156   6.143  18.474  0.00  0.00    +0.000 A 
ATOM      4  C   UNL     1       2.980   4.751  18.458  0.00  0.00    +0.000 A 
ATOM      5  C   UNL     1       3.686   3.918  17.540  0.00  0.00    +0.000 A 
ATOM      6  C   UNL     1       4.677   4.442  16.713  0.00  0.00    +0.000 A 
ATOM      7  C   UNL     1       3.455   2.435  17.716  0.00  0.00    +0.000 C 
ATOM      8  C   UNL     1       3.817   2.115  19.177  0.00  0.00    +0.000 C 
ATOM      9  N   UNL     1       3.266   3.081  20.158  0.00  0.00    +0.000 NA
ATOM     10  C   UNL     1       3.019   2.477  21.446  0.00  0.00    +0.000 C 
ATOM     11  C   UNL     1       2.251   3.997  19.578  0.00  0.00    +0.000 C 
ATOM     12  C   UNL     1       1.478   4.897  20.565  0.00  0.00    +0.000 C 
ATOM     13  C   UNL     1       1.447   6.376  20.298  0.00  0.00    +0.000 A 
ATOM     14  C   UNL     1       0.560   7.156  21.073  0.00  0.00    +0.000 A 
ATOM     15  C   UNL     1       0.490   8.536  20.914  0.00  0.00    +0.000 A 
ATOM     16  C   UNL     1       1.301   9.150  19.973  0.00  0.00    +0.000 A 
ATOM     17  C   UNL     1       2.163   8.380  19.188  0.00  0.00    +0.000 A 
ATOM     18  C   UNL     1       2.282   6.979  19.339  0.00  0.00    +0.000 A 
ENDROOT
BRANCH   1  20
ATOM     19  C   UNL     1       7.229   6.384  16.573  0.00  0.00    +0.000 C 
ATOM     20  O   UNL     1       5.943   6.303  15.960  0.00  0.00    +0.000 OA
ENDBRANCH   1  20
BRANCH   2  21
ATOM     21  O   UNL     1       4.652   7.909  17.876  0.00  0.00    +0.000 OA
ATOM     22  H   UNL     1       5.122   7.881  18.732  0.00  0.00    +0.000 HD
ENDBRANCH   2  21
BRANCH   6  23
ATOM     23  O   UNL     1       5.363   3.543  15.939  0.00  0.00    +0.000 OA
ATOM     24  C   UNL     1       5.409   3.854  14.548  0.00  0.00    +0.000 C 
ENDBRANCH   6  23
TORSDOF 3
ENDMDL
MODEL 6
REMARK VINA RESULT:      -6.1      9.248      9.871
REMARK  Name = 
REMARK  6 active torsions:
REMARK  status: ('A' for Active; 'I' for Inactive)
REMARK    1  A    between atoms: C_1  and  O_2
REMARK    2  A    between atoms: O_2  and  C_3
REMARK    3  A    between atoms: C_4  and  O_5
REMARK    4  A    between atoms: C_9  and  O_10
REMARK    5  A    between atoms: O_10  and  C_11
REMARK    6  A    between atoms: N_14  and  C_15
REMARK                            x       y       z     vdW  Elec       q    Type
REMARK                         _______ _______ _______ _____ _____    ______ ____
ROOT
ATOM      1  C   UNL     1       6.328  15.348  18.954  0.00  0.00    +0.000 A 
ATOM      2  C   UNL     1       7.379  14.484  18.563  0.00  0.00    +0.000 A 
ATOM      3  C   UNL     1       8.336  13.962  19.463  0.00  0.00    +0.000 A 
ATOM      4  C   UNL     1       8.082  14.216  20.820  0.00  0.00    +0.000 A 
ATOM      5  C   UNL     1       7.039  15.097  21.235  0.00  0.00    +0.000 A 
ATOM      6  C   UNL     1       6.145  15.633  20.310  0.00  0.00    +0.000 A 
ATOM      7  C   UNL     1       6.837  15.189  22.729  0.00  0.00    +0.000 C 
ATOM      8  C   UNL     1       6.603  13.750  23.220  0.00  0.00    +0.000 C 
ATOM      9  N   UNL     1       7.548  12.759  22.651  0.00  0.00    +0.000 NA
ATOM     10  C   UNL     1       7.779  11.645  23.540  0.00  0.00    +0.000 C 
ATOM     11  C   UNL     1       8.700  13.379  21.947  0.00  0.00    +0.000 C 
ATOM     12  C   UNL     1       9.836  12.435  21.503  0.00  0.00    +0.000 C 
ATOM     13  C   UNL     1      10.272  12.481  20.064  0.00  0.00    +0.000 A 
ATOM     14  C   UNL     1      11.450  11.782  19.721  0.00  0.00    +0.000 A 
ATOM     15  C   UNL     1      11.907  11.745  18.408  0.00  0.00    +0.000 A 
ATOM     16  C   UNL     1      11.195  12.414  17.425  0.00  0.00    +0.000 A 
ATOM     17  C   UNL     1      10.042  13.126  17.764  0.00  0.00    +0.000 A 
ATOM     18  C   UNL     1       9.531  13.164  19.082  0.00  0.00    +0.000 A 
ENDROOT
BRANCH   1  20
ATOM     19  C   UNL     1       4.226  15.066  17.877  0.00  0.00    +0.000 C 
ATOM     20  O   UNL     1       5.403  15.849  18.066  0.00  0.00    +0.000 OA
ENDBRANCH   1  20
BRANCH   2  21
ATOM     21  O   UNL     1       7.369  13.997  17.277  0.00  0.00    +0.000 OA
ATOM     22  H   UNL     1       7.753  14.705  16.724  0.00  0.00    +0.000 HD
ENDBRANCH   2  21
BRANCH   6  23
ATOM     23  O   UNL     1       5.122  16.388  20.820  0.00  0.00    +0.000 OA
ATOM     24  C   UNL     1       5.318  17.799  20.753  0.00  0.00    +0.000 C 
ENDBRANCH   6  23
TORSDOF 3
ENDMDL
MODEL 7
REMARK VINA RESULT:      -6.0      7.686     10.162
REMARK  Name = 
REMARK  6 active torsions:
REMARK  status: ('A' for Active; 'I' for Inactive)
REMARK    1  A    between atoms: C_1  and  O_2
REMARK    2  A    between atoms: O_2  and  C_3
REMARK    3  A    between atoms: C_4  and  O_5
REMARK    4  A    between atoms: C_9  and  O_10
REMARK    5  A    between atoms: O_10  and  C_11
REMARK    6  A    between atoms: N_14  and  C_15
REMARK                            x       y       z     vdW  Elec       q    Type
REMARK                         _______ _______ _______ _____ _____    ______ ____
ROOT
ATOM      1  C   UNL     1      -2.427  12.688  21.860  0.00  0.00    +0.000 A 
ATOM      2  C   UNL     1      -2.252  12.244  20.527  0.00  0.00    +0.000 A 
ATOM      3  C   UNL     1      -3.321  12.040  19.625  0.00  0.00    +0.000 A 
ATOM      4  C   UNL     1      -4.577  12.471  20.079  0.00  0.00    +0.000 A 
ATOM      5  C   UNL     1      -4.779  12.906  21.423  0.00  0.00    +0.000 A 
ATOM      6  C   UNL     1      -3.705  13.046  22.299  0.00  0.00    +0.000 A 
ATOM      7  C   UNL     1      -6.165  13.427  21.724  0.00  0.00    +0.000 C 
ATOM      8  C   UNL     1      -6.430  14.553  20.710  0.00  0.00    +0.000 C 
ATOM      9  N   UNL     1      -6.043  14.213  19.320  0.00  0.00    +0.000 NA
ATOM     10  C   UNL     1      -6.848  14.904  18.340  0.00  0.00    +0.000 C 
ATOM     11  C   UNL     1      -5.741  12.772  19.127  0.00  0.00    +0.000 C 
ATOM     12  C   UNL     1      -5.529  12.291  17.675  0.00  0.00    +0.000 C 
ATOM     13  C   UNL     1      -4.274  11.527  17.360  0.00  0.00    +0.000 A 
ATOM     14  C   UNL     1      -4.194  10.904  16.095  0.00  0.00    +0.000 A 
ATOM     15  C   UNL     1      -3.057  10.205  15.708  0.00  0.00    +0.000 A 
ATOM     16  C   UNL     1      -1.988  10.112  16.586  0.00  0.00    +0.000 A 
ATOM     17  C   UNL     1      -2.071  10.707  17.848  0.00  0.00    +0.000 A 
ATOM     18  C   UNL     1      -3.200  11.449  18.266  0.00  0.00    +0.000 A 
ENDROOT
BRANCH   1  20
ATOM     19  C   UNL     1      -0.813  14.193  22.748  0.00  0.00    +0.000 C 
ATOM     20  O   UNL     1      -1.376  12.882  22.728  0.00  0.00    +0.000 OA
ENDBRANCH   1  20
BRANCH   2  21
ATOM     21  O   UNL     1      -0.970  12.168  20.036  0.00  0.00    +0.000 OA
ATOM     22  H   UNL     1      -0.562  11.398  20.480  0.00  0.00    +0.000 HD
ENDBRANCH   2  21
BRANCH   6  23
ATOM     23  O   UNL     1      -3.991  13.563  23.535  0.00  0.00    +0.000 OA
ATOM     24  C   UNL     1      -4.187  12.597  24.565  0.00  0.00    +0.000 C 
ENDBRANCH   6  23
TORSDOF 3
ENDMDL
MODEL 8
REMARK VINA RESULT:      -6.0      7.363      9.450
REMARK  Name = 
REMARK  6 active torsions:
REMARK  status: ('A' for Active; 'I' for Inactive)
REMARK    1  A    between atoms: C_1  and  O_2
REMARK    2  A    between atoms: O_2  and  C_3
REMARK    3  A    between atoms: C_4  and  O_5
REMARK    4  A    between atoms: C_9  and  O_10
REMARK    5  A    between atoms: O_10  and  C_11
REMARK    6  A    between atoms: N_14  and  C_15
REMARK                            x       y       z     vdW  Elec       q    Type
REMARK                         _______ _______ _______ _____ _____    ______ ____
ROOT
ATOM      1  C   UNL     1      -5.189  13.306  21.174  0.00  0.00    +0.000 A 
ATOM      2  C   UNL     1      -4.969  12.511  20.024  0.00  0.00    +0.000 A 
ATOM      3  C   UNL     1      -3.685  12.127  19.574  0.00  0.00    +0.000 A 
ATOM      4  C   UNL     1      -2.628  12.442  20.443  0.00  0.00    +0.000 A 
ATOM      5  C   UNL     1      -2.825  13.256  21.598  0.00  0.00    +0.000 A 
ATOM      6  C   UNL     1      -4.103  13.658  21.981  0.00  0.00    +0.000 A 
ATOM      7  C   UNL     1      -1.608  13.421  22.477  0.00  0.00    +0.000 C 
ATOM      8  C   UNL     1      -1.149  12.001  22.847  0.00  0.00    +0.000 C 
ATOM      9  N   UNL     1      -1.123  11.060  21.702  0.00  0.00    +0.000 NA
ATOM     10  C   UNL     1      -0.127  10.025  21.861  0.00  0.00    +0.000 C 
ATOM     11  C   UNL     1      -1.270  11.730  20.384  0.00  0.00    +0.000 C 
ATOM     12  C   UNL     1      -1.051  10.859  19.130  0.00  0.00    +0.000 C 
ATOM     13  C   UNL     1      -2.124  10.853  18.076  0.00  0.00    +0.000 A 
ATOM     14  C   UNL     1      -1.819  10.236  16.843  0.00  0.00    +0.000 A 
ATOM     15  C   UNL     1      -2.763  10.157  15.826  0.00  0.00    +0.000 A 
ATOM     16  C   UNL     1      -4.021  10.702  16.027  0.00  0.00    +0.000 A 
ATOM     17  C   UNL     1      -4.320  11.335  17.236  0.00  0.00    +0.000 A 
ATOM     18  C   UNL     1      -3.396  11.411  18.304  0.00  0.00    +0.000 A 
ENDROOT
BRANCH   1  20
ATOM     19  C   UNL     1      -7.090  12.773  22.500  0.00  0.00    +0.000 C 
ATOM     20  O   UNL     1      -6.445  13.673  21.600  0.00  0.00    +0.000 OA
ENDBRANCH   1  20
BRANCH   2  21
ATOM     21  O   UNL     1      -6.062  11.948  19.410  0.00  0.00    +0.000 OA
ATOM     22  H   UNL     1      -6.764  12.627  19.446  0.00  0.00    +0.000 HD
ENDBRANCH   2  21
BRANCH   6  23
ATOM     23  O   UNL     1      -4.195  14.353  23.158  0.00  0.00    +0.000 OA
ATOM     24  C   UNL     1      -4.259  15.771  23.019  0.00  0.00    +0.000 C 
ENDBRANCH   6  23
TORSDOF 3
ENDMDL
MODEL 9
REMARK VINA RESULT:      -5.9      6.773      9.999
REMARK  Name = 
REMARK  6 active torsions:
REMARK  status: ('A' for Active; 'I' for Inactive)
REMARK    1  A    between atoms: C_1  and  O_2
REMARK    2  A    between atoms: O_2  and  C_3
REMARK    3  A    between atoms: C_4  and  O_5
REMARK    4  A    between atoms: C_9  and  O_10
REMARK    5  A    between atoms: O_10  and  C_11
REMARK    6  A    between atoms: N_14  and  C_15
REMARK                            x       y       z     vdW  Elec       q    Type
REMARK                         _______ _______ _______ _____ _____    ______ ____
ROOT
ATOM      1  C   UNL     1      -0.072  12.505  19.384  0.00  0.00    +0.000 A 
ATOM      2  C   UNL     1      -1.361  12.394  18.810  0.00  0.00    +0.000 A 
ATOM      3  C   UNL     1      -2.550  12.319  19.571  0.00  0.00    +0.000 A 
ATOM      4  C   UNL     1      -2.394  12.533  20.949  0.00  0.00    +0.000 A 
ATOM      5  C   UNL     1      -1.103  12.630  21.550  0.00  0.00    +0.000 A 
ATOM      6  C   UNL     1       0.050  12.649  20.769  0.00  0.00    +0.000 A 
ATOM      7  C   UNL     1      -1.109  12.955  23.025  0.00  0.00    +0.000 C 
ATOM      8  C   UNL     1      -1.911  14.259  23.175  0.00  0.00    +0.000 C 
ATOM      9  N   UNL     1      -3.173  14.280  22.398  0.00  0.00    +0.000 NA
ATOM     10  C   UNL     1      -4.183  15.112  23.011  0.00  0.00    +0.000 C 
ATOM     11  C   UNL     1      -3.557  12.951  21.858  0.00  0.00    +0.000 C 
ATOM     12  C   UNL     1      -4.954  12.835  21.213  0.00  0.00    +0.000 C 
ATOM     13  C   UNL     1      -5.047  12.266  19.825  0.00  0.00    +0.000 A 
ATOM     14  C   UNL     1      -6.336  11.960  19.335  0.00  0.00    +0.000 A 
ATOM     15  C   UNL     1      -6.516  11.461  18.049  0.00  0.00    +0.000 A 
ATOM     16  C   UNL     1      -5.409  11.254  17.242  0.00  0.00    +0.000 A 
ATOM     17  C   UNL     1      -4.130  11.534  17.731  0.00  0.00    +0.000 A 
ATOM     18  C   UNL     1      -3.909  12.068  19.021  0.00  0.00    +0.000 A 
ENDROOT
BRANCH   1  20
ATOM     19  C   UNL     1       1.787  11.353  18.449  0.00  0.00    +0.000 C 
ATOM     20  O   UNL     1       1.078  12.577  18.631  0.00  0.00    +0.000 OA
ENDBRANCH   1  20
BRANCH   2  21
ATOM     21  O   UNL     1      -1.474  12.536  17.447  0.00  0.00    +0.000 OA
ATOM     22  H   UNL     1      -0.801  13.198  17.194  0.00  0.00    +0.000 HD
ENDBRANCH   2  21
BRANCH   6  23
ATOM     23  O   UNL     1       1.232  12.844  21.434  0.00  0.00    +0.000 OA
ATOM     24  C   UNL     1       1.768  14.163  21.343  0.00  0.00    +0.000 C 
ENDBRANCH   6  23
TORSDOF 3
ENDMDL
