MODEL 1
REMARK VINA RESULT:      -7.4      0.000      0.000
REMARK  Name = 
REMARK  7 active torsions:
REMARK  status: ('A' for Active; 'I' for Inactive)
REMARK    1  A    between atoms: N_1  and  C_2
REMARK    2  A    between atoms: C_3  and  C_4
REMARK    3  A    between atoms: C_10  and  C_11
REMARK    4  A    between atoms: C_11  and  N_12
REMARK    5  A    between atoms: N_15  and  C_16
REMARK    6  A    between atoms: C_16  and  C_17
REMARK    7  A    between atoms: N_26  and  C_27
REMARK                            x       y       z     vdW  Elec       q    Type
REMARK                         _______ _______ _______ _____ _____    ______ ____
ROOT
ATOM      1  C   UNL     1       1.870   7.990  19.732  0.00  0.00    +0.000 A 
ATOM      2  C   UNL     1       0.917   9.007  19.698  0.00  0.00    +0.000 A 
ATOM      3  C   UNL     1       0.649   9.199  18.302  0.00  0.00    +0.000 A 
ATOM      4  N   UNL     1       1.317   8.318  17.545  0.00  0.00    +0.000 NA
ATOM      5  N   UNL     1       2.152   7.675  18.398  0.00  0.00    +0.000 N 
ENDROOT
BRANCH   5   6
ATOM      6  C   UNL     1       3.144   6.800  17.859  0.00  0.00    +0.000 A 
ATOM      7  C   UNL     1       3.018   5.405  17.939  0.00  0.00    +0.000 A 
ATOM      8  C   UNL     1       4.028   4.580  17.435  0.00  0.00    +0.000 A 
ATOM      9  C   UNL     1       5.159   5.147  16.844  0.00  0.00    +0.000 A 
ATOM     10 CL   UNL     1       6.404   4.122  16.237  0.00  0.00    +0.000 Cl
ATOM     11  C   UNL     1       5.298   6.528  16.759  0.00  0.00    +0.000 A 
ATOM     12  C   UNL     1       4.298   7.352  17.278  0.00  0.00    +0.000 A 
ENDBRANCH   5   6
BRANCH   2  13
ATOM     13  C   UNL     1       0.331   9.643  20.883  0.00  0.00    +0.000 A 
ATOM     14  C   UNL     1      -0.134   8.883  21.970  0.00  0.00    +0.000 A 
ATOM     15  C   UNL     1      -0.734   9.493  23.077  0.00  0.00    +0.000 A 
ATOM     16  C   UNL     1      -0.842  10.879  23.136  0.00  0.00    +0.000 A 
ATOM     17  C   UNL     1      -0.365  11.652  22.082  0.00  0.00    +0.000 A 
ATOM     18  C   UNL     1       0.201  11.037  20.960  0.00  0.00    +0.000 A 
ENDBRANCH   2  13
BRANCH   1  19
ATOM     19  N   UNL     1       2.416   7.325  20.795  0.00  0.00    +0.000 N 
ATOM     20  H   UNL     1       2.461   7.813  21.690  0.00  0.00    +0.000 HD
ATOM     21  H   UNL     1       2.201   6.340  20.937  0.00  0.00    +0.000 HD
ENDBRANCH   1  19
BRANCH   3  22
ATOM     22  C   UNL     1      -0.250  10.197  17.595  0.00  0.00    +0.000 C 
BRANCH  22  23
ATOM     23  N   UNL     1      -1.647   9.735  17.562  0.00  0.00    +0.000 NA
ATOM     24  C   UNL     1      -2.463  10.301  18.655  0.00  0.00    +0.000 C 
ATOM     25  C   UNL     1      -3.126  11.674  18.372  0.00  0.00    +0.000 C 
ATOM     26  N   UNL     1      -3.887  11.744  17.103  0.00  0.00    +0.000 NA
ATOM     27  C   UNL     1      -2.974  11.321  16.024  0.00  0.00    +0.000 C 
ATOM     28  C   UNL     1      -2.281   9.954  16.246  0.00  0.00    +0.000 C 
BRANCH  26  29
ATOM     29  C   UNL     1      -5.107  10.918  17.196  0.00  0.00    +0.000 C 
BRANCH  29  30
ATOM     30  C   UNL     1      -6.027  11.244  18.350  0.00  0.00    +0.000 A 
ATOM     31  C   UNL     1      -6.514  10.212  19.171  0.00  0.00    +0.000 A 
ATOM     32  C   UNL     1      -7.333  10.498  20.267  0.00  0.00    +0.000 A 
ATOM     33  C   UNL     1      -7.671  11.817  20.558  0.00  0.00    +0.000 A 
ATOM     34  C   UNL     1      -7.193  12.851  19.753  0.00  0.00    +0.000 A 
ATOM     35  C   UNL     1      -6.376  12.567  18.653  0.00  0.00    +0.000 A 
ENDBRANCH  29  30
ENDBRANCH  26  29
ENDBRANCH  22  23
ENDBRANCH   3  22
TORSDOF 7
ENDMDL
MODEL 2
REMARK VINA RESULT:      -7.3      0.496      1.535
REMARK  Name = 
REMARK  7 active torsions:
REMARK  status: ('A' for Active; 'I' for Inactive)
REMARK    1  A    between atoms: N_1  and  C_2
REMARK    2  A    between atoms: C_3  and  C_4
REMARK    3  A    between atoms: C_10  and  C_11
REMARK    4  A    between atoms: C_11  and  N_12
REMARK    5  A    between atoms: N_15  and  C_16
REMARK    6  A    between atoms: C_16  and  C_17
REMARK    7  A    between atoms: N_26  and  C_27
REMARK                            x       y       z     vdW  Elec       q    Type
REMARK                         _______ _______ _______ _____ _____    ______ ____
ROOT
ATOM      1  C   UNL     1       1.902   7.947  19.737  0.00  0.00    +0.000 A 
ATOM      2  C   UNL     1       0.945   8.960  19.706  0.00  0.00    +0.000 A 
ATOM      3  C   UNL     1       0.703   9.181  18.309  0.00  0.00    +0.000 A 
ATOM      4  N   UNL     1       1.390   8.319  17.547  0.00  0.00    +0.000 NA
ATOM      5  N   UNL     1       2.211   7.662  18.402  0.00  0.00    +0.000 N 
ENDROOT
BRANCH   5   6
ATOM      6  C   UNL     1       3.217   6.802  17.865  0.00  0.00    +0.000 A 
ATOM      7  C   UNL     1       4.382   7.311  17.272  0.00  0.00    +0.000 A 
ATOM      8  C   UNL     1       5.327   6.438  16.722  0.00  0.00    +0.000 A 
ATOM      9  C   UNL     1       5.113   5.060  16.772  0.00  0.00    +0.000 A 
ATOM     10 CL   UNL     1       6.277   3.994  16.080  0.00  0.00    +0.000 Cl
ATOM     11  C   UNL     1       3.961   4.541  17.354  0.00  0.00    +0.000 A 
ATOM     12  C   UNL     1       3.010   5.412  17.888  0.00  0.00    +0.000 A 
ENDBRANCH   5   6
BRANCH   2  13
ATOM     13  C   UNL     1       0.334   9.568  20.893  0.00  0.00    +0.000 A 
ATOM     14  C   UNL     1       0.226  10.962  21.031  0.00  0.00    +0.000 A 
ATOM     15  C   UNL     1      -0.315  11.537  22.186  0.00  0.00    +0.000 A 
ATOM     16  C   UNL     1      -0.796  10.725  23.209  0.00  0.00    +0.000 A 
ATOM     17  C   UNL     1      -0.723   9.342  23.082  0.00  0.00    +0.000 A 
ATOM     18  C   UNL     1      -0.148   8.771  21.941  0.00  0.00    +0.000 A 
ENDBRANCH   2  13
BRANCH   1  19
ATOM     19  N   UNL     1       2.431   7.262  20.797  0.00  0.00    +0.000 N 
ATOM     20  H   UNL     1       1.983   7.371  21.706  0.00  0.00    +0.000 HD
ATOM     21  H   UNL     1       2.747   6.303  20.668  0.00  0.00    +0.000 HD
ENDBRANCH   1  19
BRANCH   3  22
ATOM     22  C   UNL     1      -0.187  10.190  17.607  0.00  0.00    +0.000 C 
BRANCH  22  23
ATOM     23  N   UNL     1      -1.602   9.792  17.665  0.00  0.00    +0.000 NA
ATOM     24  C   UNL     1      -2.399  10.642  18.572  0.00  0.00    +0.000 C 
ATOM     25  C   UNL     1      -2.998  11.930  17.953  0.00  0.00    +0.000 C 
ATOM     26  N   UNL     1      -3.748  11.719  16.692  0.00  0.00    +0.000 NA
ATOM     27  C   UNL     1      -2.850  11.008  15.764  0.00  0.00    +0.000 C 
ATOM     28  C   UNL     1      -2.219   9.709  16.325  0.00  0.00    +0.000 C 
BRANCH  26  29
ATOM     29  C   UNL     1      -5.004  10.993  16.965  0.00  0.00    +0.000 C 
BRANCH  29  30
ATOM     30  C   UNL     1      -5.996  11.715  17.847  0.00  0.00    +0.000 A 
ATOM     31  C   UNL     1      -6.674  12.847  17.360  0.00  0.00    +0.000 A 
ATOM     32  C   UNL     1      -7.625  13.503  18.146  0.00  0.00    +0.000 A 
ATOM     33  C   UNL     1      -7.912  13.036  19.426  0.00  0.00    +0.000 A 
ATOM     34  C   UNL     1      -7.250  11.913  19.921  0.00  0.00    +0.000 A 
ATOM     35  C   UNL     1      -6.294  11.256  19.137  0.00  0.00    +0.000 A 
ENDBRANCH  29  30
ENDBRANCH  26  29
ENDBRANCH  22  23
ENDBRANCH   3  22
TORSDOF 7
ENDMDL
MODEL 3
REMARK VINA RESULT:      -7.3      3.637      8.944
REMARK  Name = 
REMARK  7 active torsions:
REMARK  status: ('A' for Active; 'I' for Inactive)
REMARK    1  A    between atoms: N_1  and  C_2
REMARK    2  A    between atoms: C_3  and  C_4
REMARK    3  A    between atoms: C_10  and  C_11
REMARK    4  A    between atoms: C_11  and  N_12
REMARK    5  A    between atoms: N_15  and  C_16
REMARK    6  A    between atoms: C_16  and  C_17
REMARK    7  A    between atoms: N_26  and  C_27
REMARK                            x       y       z     vdW  Elec       q    Type
REMARK                         _______ _______ _______ _____ _____    ______ ____
ROOT
ATOM      1  C   UNL     1       0.025  12.953  18.682  0.00  0.00    +0.000 A 
ATOM      2  C   UNL     1      -0.552  11.686  18.609  0.00  0.00    +0.000 A 
ATOM      3  C   UNL     1       0.469  10.801  19.094  0.00  0.00    +0.000 A 
ATOM      4  N   UNL     1       1.550  11.475  19.509  0.00  0.00    +0.000 NA
ATOM      5  N   UNL     1       1.333  12.761  19.140  0.00  0.00    +0.000 N 
ENDROOT
BRANCH   5   6
ATOM      6  C   UNL     1       2.399  13.703  19.272  0.00  0.00    +0.000 A 
ATOM      7  C   UNL     1       3.125  14.154  18.160  0.00  0.00    +0.000 A 
ATOM      8  C   UNL     1       4.188  15.048  18.333  0.00  0.00    +0.000 A 
ATOM      9  C   UNL     1       4.517  15.497  19.613  0.00  0.00    +0.000 A 
ATOM     10 CL   UNL     1       5.836  16.587  19.817  0.00  0.00    +0.000 Cl
ATOM     11  C   UNL     1       3.807  15.056  20.725  0.00  0.00    +0.000 A 
ATOM     12  C   UNL     1       2.758  14.151  20.554  0.00  0.00    +0.000 A 
ENDBRANCH   5   6
BRANCH   2  13
ATOM     13  C   UNL     1      -1.926  11.417  18.173  0.00  0.00    +0.000 A 
ATOM     14  C   UNL     1      -2.197  10.728  16.979  0.00  0.00    +0.000 A 
ATOM     15  C   UNL     1      -3.510  10.517  16.545  0.00  0.00    +0.000 A 
ATOM     16  C   UNL     1      -4.579  10.955  17.320  0.00  0.00    +0.000 A 
ATOM     17  C   UNL     1      -4.334  11.616  18.519  0.00  0.00    +0.000 A 
ATOM     18  C   UNL     1      -3.020  11.859  18.932  0.00  0.00    +0.000 A 
ENDBRANCH   2  13
BRANCH   1  19
ATOM     19  N   UNL     1      -0.519  14.187  18.448  0.00  0.00    +0.000 N 
ATOM     20  H   UNL     1      -1.146  14.288  17.650  0.00  0.00    +0.000 HD
ATOM     21  H   UNL     1      -0.847  14.748  19.232  0.00  0.00    +0.000 HD
ENDBRANCH   1  19
BRANCH   3  22
ATOM     22  C   UNL     1       0.491   9.289  19.213  0.00  0.00    +0.000 C 
BRANCH  22  23
ATOM     23  N   UNL     1       1.860   8.785  19.413  0.00  0.00    +0.000 NA
ATOM     24  C   UNL     1       1.941   7.752  20.465  0.00  0.00    +0.000 C 
ATOM     25  C   UNL     1       1.688   6.291  20.012  0.00  0.00    +0.000 C 
ATOM     26  N   UNL     1       2.486   5.862  18.839  0.00  0.00    +0.000 NA
ATOM     27  C   UNL     1       2.242   6.841  17.763  0.00  0.00    +0.000 C 
ATOM     28  C   UNL     1       2.478   8.321  18.154  0.00  0.00    +0.000 C 
BRANCH  26  29
ATOM     29  C   UNL     1       3.910   5.742  19.210  0.00  0.00    +0.000 C 
BRANCH  29  30
ATOM     30  C   UNL     1       4.848   5.379  18.081  0.00  0.00    +0.000 A 
ATOM     31  C   UNL     1       4.597   4.238  17.299  0.00  0.00    +0.000 A 
ATOM     32  C   UNL     1       5.429   3.910  16.226  0.00  0.00    +0.000 A 
ATOM     33  C   UNL     1       6.520   4.719  15.918  0.00  0.00    +0.000 A 
ATOM     34  C   UNL     1       6.780   5.855  16.684  0.00  0.00    +0.000 A 
ATOM     35  C   UNL     1       5.950   6.184  17.761  0.00  0.00    +0.000 A 
ENDBRANCH  29  30
ENDBRANCH  26  29
ENDBRANCH  22  23
ENDBRANCH   3  22
TORSDOF 7
ENDMDL
MODEL 4
REMARK VINA RESULT:      -7.3      3.672      8.999
REMARK  Name = 
REMARK  7 active torsions:
REMARK  status: ('A' for Active; 'I' for Inactive)
REMARK    1  A    between atoms: N_1  and  C_2
REMARK    2  A    between atoms: C_3  and  C_4
REMARK    3  A    between atoms: C_10  and  C_11
REMARK    4  A    between atoms: C_11  and  N_12
REMARK    5  A    between atoms: N_15  and  C_16
REMARK    6  A    between atoms: C_16  and  C_17
REMARK    7  A    between atoms: N_26  and  C_27
REMARK                            x       y       z     vdW  Elec       q    Type
REMARK                         _______ _______ _______ _____ _____    ______ ____
ROOT
ATOM      1  C   UNL     1       0.001  12.993  18.672  0.00  0.00    +0.000 A 
ATOM      2  C   UNL     1      -0.568  11.723  18.592  0.00  0.00    +0.000 A 
ATOM      3  C   UNL     1       0.462  10.840  19.058  0.00  0.00    +0.000 A 
ATOM      4  N   UNL     1       1.542  11.516  19.470  0.00  0.00    +0.000 NA
ATOM      5  N   UNL     1       1.314  12.804  19.116  0.00  0.00    +0.000 N 
ENDROOT
BRANCH   5   6
ATOM      6  C   UNL     1       2.375  13.752  19.248  0.00  0.00    +0.000 A 
ATOM      7  C   UNL     1       2.521  14.539  20.399  0.00  0.00    +0.000 A 
ATOM      8  C   UNL     1       3.550  15.484  20.476  0.00  0.00    +0.000 A 
ATOM      9  C   UNL     1       4.436  15.636  19.408  0.00  0.00    +0.000 A 
ATOM     10 CL   UNL     1       5.692  16.811  19.507  0.00  0.00    +0.000 Cl
ATOM     11  C   UNL     1       4.302  14.864  18.259  0.00  0.00    +0.000 A 
ATOM     12  C   UNL     1       3.265  13.933  18.175  0.00  0.00    +0.000 A 
ENDBRANCH   5   6
BRANCH   2  13
ATOM     13  C   UNL     1      -1.945  11.450  18.166  0.00  0.00    +0.000 A 
ATOM     14  C   UNL     1      -2.223  10.779  16.963  0.00  0.00    +0.000 A 
ATOM     15  C   UNL     1      -3.538  10.563  16.539  0.00  0.00    +0.000 A 
ATOM     16  C   UNL     1      -4.603  10.979  17.333  0.00  0.00    +0.000 A 
ATOM     17  C   UNL     1      -4.351  11.622  18.540  0.00  0.00    +0.000 A 
ATOM     18  C   UNL     1      -3.034  11.869  18.943  0.00  0.00    +0.000 A 
ENDBRANCH   2  13
BRANCH   1  19
ATOM     19  N   UNL     1      -0.553  14.225  18.456  0.00  0.00    +0.000 N 
ATOM     20  H   UNL     1      -1.106  14.357  17.609  0.00  0.00    +0.000 HD
ATOM     21  H   UNL     1      -0.967  14.734  19.235  0.00  0.00    +0.000 HD
ENDBRANCH   1  19
BRANCH   3  22
ATOM     22  C   UNL     1       0.495   9.326  19.161  0.00  0.00    +0.000 C 
BRANCH  22  23
ATOM     23  N   UNL     1       1.868   8.829  19.346  0.00  0.00    +0.000 NA
ATOM     24  C   UNL     1       1.965   7.795  20.396  0.00  0.00    +0.000 C 
ATOM     25  C   UNL     1       1.716   6.334  19.942  0.00  0.00    +0.000 C 
ATOM     26  N   UNL     1       2.504   5.910  18.760  0.00  0.00    +0.000 NA
ATOM     27  C   UNL     1       2.243   6.890  17.689  0.00  0.00    +0.000 C 
ATOM     28  C   UNL     1       2.476   8.370  18.081  0.00  0.00    +0.000 C 
BRANCH  26  29
ATOM     29  C   UNL     1       3.932   5.797  19.116  0.00  0.00    +0.000 C 
BRANCH  29  30
ATOM     30  C   UNL     1       4.859   5.428  17.981  0.00  0.00    +0.000 A 
ATOM     31  C   UNL     1       6.007   6.202  17.733  0.00  0.00    +0.000 A 
ATOM     32  C   UNL     1       6.897   5.853  16.714  0.00  0.00    +0.000 A 
ATOM     33  C   UNL     1       6.654   4.725  15.934  0.00  0.00    +0.000 A 
ATOM     34  C   UNL     1       5.522   3.947  16.170  0.00  0.00    +0.000 A 
ATOM     35  C   UNL     1       4.626   4.297  17.187  0.00  0.00    +0.000 A 
ENDBRANCH  29  30
ENDBRANCH  26  29
ENDBRANCH  22  23
ENDBRANCH   3  22
TORSDOF 7
ENDMDL
MODEL 5
REMARK VINA RESULT:      -7.1      4.031      9.157
REMARK  Name = 
REMARK  7 active torsions:
REMARK  status: ('A' for Active; 'I' for Inactive)
REMARK    1  A    between atoms: N_1  and  C_2
REMARK    2  A    between atoms: C_3  and  C_4
REMARK    3  A    between atoms: C_10  and  C_11
REMARK    4  A    between atoms: C_11  and  N_12
REMARK    5  A    between atoms: N_15  and  C_16
REMARK    6  A    between atoms: C_16  and  C_17
REMARK    7  A    between atoms: N_26  and  C_27
REMARK                            x       y       z     vdW  Elec       q    Type
REMARK                         _______ _______ _______ _____ _____    ______ ____
ROOT
ATOM      1  C   UNL     1      -0.575  13.418  19.379  0.00  0.00    +0.000 A 
ATOM      2  C   UNL     1       0.697  12.859  19.499  0.00  0.00    +0.000 A 
ATOM      3  C   UNL     1       0.459  11.449  19.614  0.00  0.00    +0.000 A 
ATOM      4  N   UNL     1      -0.843  11.157  19.491  0.00  0.00    +0.000 NA
ATOM      5  N   UNL     1      -1.479  12.354  19.479  0.00  0.00    +0.000 N 
ENDROOT
BRANCH   5   6
ATOM      6  C   UNL     1      -2.905  12.376  19.550  0.00  0.00    +0.000 A 
ATOM      7  C   UNL     1      -3.580  12.905  20.660  0.00  0.00    +0.000 A 
ATOM      8  C   UNL     1      -4.977  12.873  20.712  0.00  0.00    +0.000 A 
ATOM      9  C   UNL     1      -5.700  12.323  19.652  0.00  0.00    +0.000 A 
ATOM     10 CL   UNL     1      -7.420  12.277  19.730  0.00  0.00    +0.000 Cl
ATOM     11  C   UNL     1      -5.045  11.792  18.546  0.00  0.00    +0.000 A 
ATOM     12  C   UNL     1      -3.649  11.808  18.502  0.00  0.00    +0.000 A 
ENDBRANCH   5   6
BRANCH   2  13
ATOM     13  C   UNL     1       1.951  13.619  19.451  0.00  0.00    +0.000 A 
ATOM     14  C   UNL     1       2.530  14.004  18.230  0.00  0.00    +0.000 A 
ATOM     15  C   UNL     1       3.749  14.688  18.190  0.00  0.00    +0.000 A 
ATOM     16  C   UNL     1       4.393  15.036  19.373  0.00  0.00    +0.000 A 
ATOM     17  C   UNL     1       3.825  14.687  20.594  0.00  0.00    +0.000 A 
ATOM     18  C   UNL     1       2.623  13.971  20.631  0.00  0.00    +0.000 A 
ENDBRANCH   2  13
BRANCH   1  19
ATOM     19  N   UNL     1      -0.954  14.710  19.136  0.00  0.00    +0.000 N 
ATOM     20  H   UNL     1      -0.352  15.279  18.542  0.00  0.00    +0.000 HD
ATOM     21  H   UNL     1      -1.934  14.921  18.958  0.00  0.00    +0.000 HD
ENDBRANCH   1  19
BRANCH   3  22
ATOM     22  C   UNL     1       1.423  10.298  19.830  0.00  0.00    +0.000 C 
BRANCH  22  23
ATOM     23  N   UNL     1       0.938   9.063  19.192  0.00  0.00    +0.000 NA
ATOM     24  C   UNL     1       1.484   8.869  17.833  0.00  0.00    +0.000 C 
ATOM     25  C   UNL     1       2.848   8.139  17.741  0.00  0.00    +0.000 C 
ATOM     26  N   UNL     1       2.915   6.859  18.484  0.00  0.00    +0.000 NA
ATOM     27  C   UNL     1       2.516   7.142  19.876  0.00  0.00    +0.000 C 
ATOM     28  C   UNL     1       1.158   7.870  20.035  0.00  0.00    +0.000 C 
BRANCH  26  29
ATOM     29  C   UNL     1       2.069   5.844  17.826  0.00  0.00    +0.000 C 
BRANCH  29  30
ATOM     30  C   UNL     1       2.428   4.406  18.123  0.00  0.00    +0.000 A 
ATOM     31  C   UNL     1       1.463   3.540  18.667  0.00  0.00    +0.000 A 
ATOM     32  C   UNL     1       1.764   2.198  18.910  0.00  0.00    +0.000 A 
ATOM     33  C   UNL     1       3.029   1.702  18.608  0.00  0.00    +0.000 A 
ATOM     34  C   UNL     1       3.996   2.548  18.065  0.00  0.00    +0.000 A 
ATOM     35  C   UNL     1       3.698   3.895  17.824  0.00  0.00    +0.000 A 
ENDBRANCH  29  30
ENDBRANCH  26  29
ENDBRANCH  22  23
ENDBRANCH   3  22
TORSDOF 7
ENDMDL
MODEL 6
REMARK VINA RESULT:      -7.1      3.046      5.668
REMARK  Name = 
REMARK  7 active torsions:
REMARK  status: ('A' for Active; 'I' for Inactive)
REMARK    1  A    between atoms: N_1  and  C_2
REMARK    2  A    between atoms: C_3  and  C_4
REMARK    3  A    between atoms: C_10  and  C_11
REMARK    4  A    between atoms: C_11  and  N_12
REMARK    5  A    between atoms: N_15  and  C_16
REMARK    6  A    between atoms: C_16  and  C_17
REMARK    7  A    between atoms: N_26  and  C_27
REMARK                            x       y       z     vdW  Elec       q    Type
REMARK                         _______ _______ _______ _____ _____    ______ ____
ROOT
ATOM      1  C   UNL     1       4.066   3.771  17.270  0.00  0.00    +0.000 A 
ATOM      2  C   UNL     1       3.526   4.473  18.347  0.00  0.00    +0.000 A 
ATOM      3  C   UNL     1       3.767   5.852  18.032  0.00  0.00    +0.000 A 
ATOM      4  N   UNL     1       4.331   5.991  16.825  0.00  0.00    +0.000 NA
ATOM      5  N   UNL     1       4.630   4.732  16.422  0.00  0.00    +0.000 N 
ENDROOT
BRANCH   5   6
ATOM      6  C   UNL     1       5.421   4.556  15.246  0.00  0.00    +0.000 A 
ATOM      7  C   UNL     1       6.725   5.063  15.152  0.00  0.00    +0.000 A 
ATOM      8  C   UNL     1       7.456   4.904  13.970  0.00  0.00    +0.000 A 
ATOM      9  C   UNL     1       6.887   4.231  12.886  0.00  0.00    +0.000 A 
ATOM     10 CL   UNL     1       7.790   4.052  11.430  0.00  0.00    +0.000 Cl
ATOM     11  C   UNL     1       5.595   3.725  12.964  0.00  0.00    +0.000 A 
ATOM     12  C   UNL     1       4.859   3.898  14.138  0.00  0.00    +0.000 A 
ENDBRANCH   5   6
BRANCH   2  13
ATOM     13  C   UNL     1       2.832   3.855  19.482  0.00  0.00    +0.000 A 
ATOM     14  C   UNL     1       3.532   3.147  20.474  0.00  0.00    +0.000 A 
ATOM     15  C   UNL     1       2.860   2.520  21.528  0.00  0.00    +0.000 A 
ATOM     16  C   UNL     1       1.476   2.626  21.634  0.00  0.00    +0.000 A 
ATOM     17  C   UNL     1       0.766   3.345  20.677  0.00  0.00    +0.000 A 
ATOM     18  C   UNL     1       1.438   3.939  19.603  0.00  0.00    +0.000 A 
ENDBRANCH   2  13
BRANCH   1  19
ATOM     19  N   UNL     1       4.034   2.435  16.980  0.00  0.00    +0.000 N 
ATOM     20  H   UNL     1       3.624   2.151  16.090  0.00  0.00    +0.000 HD
ATOM     21  H   UNL     1       4.838   1.852  17.205  0.00  0.00    +0.000 HD
ENDBRANCH   1  19
BRANCH   3  22
ATOM     22  C   UNL     1       3.475   7.113  18.825  0.00  0.00    +0.000 C 
BRANCH  22  23
ATOM     23  N   UNL     1       2.041   7.445  18.799  0.00  0.00    +0.000 NA
ATOM     24  C   UNL     1       1.486   7.685  20.146  0.00  0.00    +0.000 C 
ATOM     25  C   UNL     1       1.603   9.133  20.686  0.00  0.00    +0.000 C 
ATOM     26  N   UNL     1       1.113  10.180  19.758  0.00  0.00    +0.000 NA
ATOM     27  C   UNL     1       1.820   9.993  18.478  0.00  0.00    +0.000 C 
ATOM     28  C   UNL     1       1.739   8.565  17.884  0.00  0.00    +0.000 C 
BRANCH  26  29
ATOM     29  C   UNL     1      -0.356  10.102  19.634  0.00  0.00    +0.000 C 
BRANCH  29  30
ATOM     30  C   UNL     1      -1.130  11.166  20.378  0.00  0.00    +0.000 A 
ATOM     31  C   UNL     1      -0.936  11.337  21.761  0.00  0.00    +0.000 A 
ATOM     32  C   UNL     1      -1.611  12.342  22.458  0.00  0.00    +0.000 A 
ATOM     33  C   UNL     1      -2.484  13.191  21.783  0.00  0.00    +0.000 A 
ATOM     34  C   UNL     1      -2.684  13.035  20.412  0.00  0.00    +0.000 A 
ATOM     35  C   UNL     1      -2.012  12.027  19.712  0.00  0.00    +0.000 A 
ENDBRANCH  29  30
ENDBRANCH  26  29
ENDBRANCH  22  23
ENDBRANCH   3  22
TORSDOF 7
ENDMDL
MODEL 7
REMARK VINA RESULT:      -7.1      3.590      9.118
REMARK  Name = 
REMARK  7 active torsions:
REMARK  status: ('A' for Active; 'I' for Inactive)
REMARK    1  A    between atoms: N_1  and  C_2
REMARK    2  A    between atoms: C_3  and  C_4
REMARK    3  A    between atoms: C_10  and  C_11
REMARK    4  A    between atoms: C_11  and  N_12
REMARK    5  A    between atoms: N_15  and  C_16
REMARK    6  A    between atoms: C_16  and  C_17
REMARK    7  A    between atoms: N_26  and  C_27
REMARK                            x       y       z     vdW  Elec       q    Type
REMARK                         _______ _______ _______ _____ _____    ______ ____
ROOT
ATOM      1  C   UNL     1      -0.218  12.811  18.990  0.00  0.00    +0.000 A 
ATOM      2  C   UNL     1      -0.700  11.515  18.811  0.00  0.00    +0.000 A 
ATOM      3  C   UNL     1       0.210  10.690  19.553  0.00  0.00    +0.000 A 
ATOM      4  N   UNL     1       1.124  11.424  20.203  0.00  0.00    +0.000 NA
ATOM      5  N   UNL     1       0.945  12.692  19.759  0.00  0.00    +0.000 N 
ENDROOT
BRANCH   5   6
ATOM      6  C   UNL     1       1.901  13.689  20.123  0.00  0.00    +0.000 A 
ATOM      7  C   UNL     1       1.781  14.426  21.310  0.00  0.00    +0.000 A 
ATOM      8  C   UNL     1       2.715  15.422  21.615  0.00  0.00    +0.000 A 
ATOM      9  C   UNL     1       3.773  15.674  20.739  0.00  0.00    +0.000 A 
ATOM     10 CL   UNL     1       4.911  16.911  21.116  0.00  0.00    +0.000 Cl
ATOM     11  C   UNL     1       3.903  14.953  19.557  0.00  0.00    +0.000 A 
ATOM     12  C   UNL     1       2.961  13.971  19.245  0.00  0.00    +0.000 A 
ENDBRANCH   5   6
BRANCH   2  13
ATOM     13  C   UNL     1      -1.911  11.170  18.059  0.00  0.00    +0.000 A 
ATOM     14  C   UNL     1      -3.181  11.608  18.472  0.00  0.00    +0.000 A 
ATOM     15  C   UNL     1      -4.337  11.237  17.777  0.00  0.00    +0.000 A 
ATOM     16  C   UNL     1      -4.241  10.454  16.631  0.00  0.00    +0.000 A 
ATOM     17  C   UNL     1      -2.991  10.031  16.190  0.00  0.00    +0.000 A 
ATOM     18  C   UNL     1      -1.839  10.372  16.908  0.00  0.00    +0.000 A 
ENDBRANCH   2  13
BRANCH   1  19
ATOM     19  N   UNL     1      -0.745  14.012  18.599  0.00  0.00    +0.000 N 
ATOM     20  H   UNL     1      -1.267  14.040  17.724  0.00  0.00    +0.000 HD
ATOM     21  H   UNL     1      -1.176  14.621  19.292  0.00  0.00    +0.000 HD
ENDBRANCH   1  19
BRANCH   3  22
ATOM     22  C   UNL     1       0.273   9.183  19.713  0.00  0.00    +0.000 C 
BRANCH  22  23
ATOM     23  N   UNL     1       1.659   8.717  19.885  0.00  0.00    +0.000 NA
ATOM     24  C   UNL     1       1.765   7.562  20.800  0.00  0.00    +0.000 C 
ATOM     25  C   UNL     1       1.590   6.163  20.159  0.00  0.00    +0.000 C 
ATOM     26  N   UNL     1       2.432   5.921  18.963  0.00  0.00    +0.000 NA
ATOM     27  C   UNL     1       2.166   7.017  18.014  0.00  0.00    +0.000 C 
ATOM     28  C   UNL     1       2.325   8.444  18.595  0.00  0.00    +0.000 C 
BRANCH  26  29
ATOM     29  C   UNL     1       3.852   5.816  19.355  0.00  0.00    +0.000 C 
BRANCH  29  30
ATOM     30  C   UNL     1       4.787   5.307  18.282  0.00  0.00    +0.000 A 
ATOM     31  C   UNL     1       6.164   5.580  18.365  0.00  0.00    +0.000 A 
ATOM     32  C   UNL     1       7.049   5.084  17.405  0.00  0.00    +0.000 A 
ATOM     33  C   UNL     1       6.572   4.306  16.354  0.00  0.00    +0.000 A 
ATOM     34  C   UNL     1       5.209   4.025  16.260  0.00  0.00    +0.000 A 
ATOM     35  C   UNL     1       4.319   4.523  17.218  0.00  0.00    +0.000 A 
ENDBRANCH  29  30
ENDBRANCH  26  29
ENDBRANCH  22  23
ENDBRANCH   3  22
TORSDOF 7
ENDMDL
MODEL 8
REMARK VINA RESULT:      -7.1      3.632      9.024
REMARK  Name = 
REMARK  7 active torsions:
REMARK  status: ('A' for Active; 'I' for Inactive)
REMARK    1  A    between atoms: N_1  and  C_2
REMARK    2  A    between atoms: C_3  and  C_4
REMARK    3  A    between atoms: C_10  and  C_11
REMARK    4  A    between atoms: C_11  and  N_12
REMARK    5  A    between atoms: N_15  and  C_16
REMARK    6  A    between atoms: C_16  and  C_17
REMARK    7  A    between atoms: N_26  and  C_27
REMARK                            x       y       z     vdW  Elec       q    Type
REMARK                         _______ _______ _______ _____ _____    ______ ____
ROOT
ATOM      1  C   UNL     1      -0.168  12.856  19.096  0.00  0.00    +0.000 A 
ATOM      2  C   UNL     1      -0.616  11.541  18.981  0.00  0.00    +0.000 A 
ATOM      3  C   UNL     1       0.260  10.789  19.834  0.00  0.00    +0.000 A 
ATOM      4  N   UNL     1       1.119  11.586  20.484  0.00  0.00    +0.000 NA
ATOM      5  N   UNL     1       0.947  12.816  19.941  0.00  0.00    +0.000 N 
ENDROOT
BRANCH   5   6
ATOM      6  C   UNL     1       1.861  13.856  20.291  0.00  0.00    +0.000 A 
ATOM      7  C   UNL     1       2.936  14.203  19.460  0.00  0.00    +0.000 A 
ATOM      8  C   UNL     1       3.833  15.201  19.855  0.00  0.00    +0.000 A 
ATOM      9  C   UNL     1       3.652  15.858  21.074  0.00  0.00    +0.000 A 
ATOM     10 CL   UNL     1       4.769  17.076  21.557  0.00  0.00    +0.000 Cl
ATOM     11  C   UNL     1       2.592  15.522  21.909  0.00  0.00    +0.000 A 
ATOM     12  C   UNL     1       1.706  14.514  21.524  0.00  0.00    +0.000 A 
ENDBRANCH   5   6
BRANCH   2  13
ATOM     13  C   UNL     1      -1.772  11.119  18.183  0.00  0.00    +0.000 A 
ATOM     14  C   UNL     1      -1.639  10.209  17.121  0.00  0.00    +0.000 A 
ATOM     15  C   UNL     1      -2.738   9.847  16.334  0.00  0.00    +0.000 A 
ATOM     16  C   UNL     1      -4.000  10.358  16.622  0.00  0.00    +0.000 A 
ATOM     17  C   UNL     1      -4.159  11.240  17.686  0.00  0.00    +0.000 A 
ATOM     18  C   UNL     1      -3.052  11.629  18.448  0.00  0.00    +0.000 A 
ENDBRANCH   2  13
BRANCH   1  19
ATOM     19  N   UNL     1      -0.690  14.015  18.589  0.00  0.00    +0.000 N 
ATOM     20  H   UNL     1      -0.149  14.511  17.881  0.00  0.00    +0.000 HD
ATOM     21  H   UNL     1      -1.685  14.070  18.382  0.00  0.00    +0.000 HD
ENDBRANCH   1  19
BRANCH   3  22
ATOM     22  C   UNL     1       0.338   9.298  20.104  0.00  0.00    +0.000 C 
BRANCH  22  23
ATOM     23  N   UNL     1       1.716   8.798  19.969  0.00  0.00    +0.000 NA
ATOM     24  C   UNL     1       1.973   7.601  20.794  0.00  0.00    +0.000 C 
ATOM     25  C   UNL     1       1.632   6.236  20.145  0.00  0.00    +0.000 C 
ATOM     26  N   UNL     1       2.205   6.034  18.793  0.00  0.00    +0.000 NA
ATOM     27  C   UNL     1       1.782   7.178  17.965  0.00  0.00    +0.000 C 
ATOM     28  C   UNL     1       2.097   8.573  18.560  0.00  0.00    +0.000 C 
BRANCH  26  29
ATOM     29  C   UNL     1       3.671   5.883  18.881  0.00  0.00    +0.000 C 
BRANCH  29  30
ATOM     30  C   UNL     1       4.360   5.459  17.603  0.00  0.00    +0.000 A 
ATOM     31  C   UNL     1       4.860   6.433  16.721  0.00  0.00    +0.000 A 
ATOM     32  C   UNL     1       5.536   6.060  15.556  0.00  0.00    +0.000 A 
ATOM     33  C   UNL     1       5.723   4.712  15.260  0.00  0.00    +0.000 A 
ATOM     34  C   UNL     1       5.234   3.736  16.128  0.00  0.00    +0.000 A 
ATOM     35  C   UNL     1       4.554   4.107  17.294  0.00  0.00    +0.000 A 
ENDBRANCH  29  30
ENDBRANCH  26  29
ENDBRANCH  22  23
ENDBRANCH   3  22
TORSDOF 7
ENDMDL
MODEL 9
REMARK VINA RESULT:      -7.0      3.903      8.924
REMARK  Name = 
REMARK  7 active torsions:
REMARK  status: ('A' for Active; 'I' for Inactive)
REMARK    1  A    between atoms: N_1  and  C_2
REMARK    2  A    between atoms: C_3  and  C_4
REMARK    3  A    between atoms: C_10  and  C_11
REMARK    4  A    between atoms: C_11  and  N_12
REMARK    5  A    between atoms: N_15  and  C_16
REMARK    6  A    between atoms: C_16  and  C_17
REMARK    7  A    between atoms: N_26  and  C_27
REMARK                            x       y       z     vdW  Elec       q    Type
REMARK                         _______ _______ _______ _____ _____    ______ ____
ROOT
ATOM      1  C   UNL     1      -0.363  13.047  18.877  0.00  0.00    +0.000 A 
ATOM      2  C   UNL     1       0.901  12.538  19.173  0.00  0.00    +0.000 A 
ATOM      3  C   UNL     1       0.723  11.114  19.165  0.00  0.00    +0.000 A 
ATOM      4  N   UNL     1      -0.524  10.774  18.812  0.00  0.00    +0.000 NA
ATOM      5  N   UNL     1      -1.213  11.941  18.765  0.00  0.00    +0.000 N 
ENDROOT
BRANCH   5   6
ATOM      6  C   UNL     1      -2.631  11.896  18.601  0.00  0.00    +0.000 A 
ATOM      7  C   UNL     1      -3.222  11.435  17.415  0.00  0.00    +0.000 A 
ATOM      8  C   UNL     1      -4.614  11.442  17.277  0.00  0.00    +0.000 A 
ATOM      9  C   UNL     1      -5.415  11.900  18.325  0.00  0.00    +0.000 A 
ATOM     10 CL   UNL     1      -7.127  11.917  18.140  0.00  0.00    +0.000 Cl
ATOM     11  C   UNL     1      -4.842  12.362  19.505  0.00  0.00    +0.000 A 
ATOM     12  C   UNL     1      -3.453  12.371  19.637  0.00  0.00    +0.000 A 
ENDBRANCH   5   6
BRANCH   2  13
ATOM     13  C   UNL     1       2.103  13.353  19.376  0.00  0.00    +0.000 A 
ATOM     14  C   UNL     1       2.865  13.820  18.293  0.00  0.00    +0.000 A 
ATOM     15  C   UNL     1       4.037  14.557  18.495  0.00  0.00    +0.000 A 
ATOM     16  C   UNL     1       4.446  14.876  19.786  0.00  0.00    +0.000 A 
ATOM     17  C   UNL     1       3.692  14.446  20.873  0.00  0.00    +0.000 A 
ATOM     18  C   UNL     1       2.541  13.677  20.669  0.00  0.00    +0.000 A 
ENDBRANCH   2  13
BRANCH   1  19
ATOM     19  N   UNL     1      -0.766  14.334  18.650  0.00  0.00    +0.000 N 
ATOM     20  H   UNL     1      -1.310  14.522  17.808  0.00  0.00    +0.000 HD
ATOM     21  H   UNL     1      -1.106  14.899  19.427  0.00  0.00    +0.000 HD
ENDBRANCH   1  19
BRANCH   3  22
ATOM     22  C   UNL     1       1.700   9.994  19.471  0.00  0.00    +0.000 C 
BRANCH  22  23
ATOM     23  N   UNL     1       1.378   8.776  18.709  0.00  0.00    +0.000 NA
ATOM     24  C   UNL     1       2.232   8.605  17.516  0.00  0.00    +0.000 C 
ATOM     25  C   UNL     1       3.576   7.866  17.737  0.00  0.00    +0.000 C 
ATOM     26  N   UNL     1       3.459   6.570  18.448  0.00  0.00    +0.000 NA
ATOM     27  C   UNL     1       2.739   6.828  19.709  0.00  0.00    +0.000 C 
ATOM     28  C   UNL     1       1.386   7.565  19.554  0.00  0.00    +0.000 C 
BRANCH  26  29
ATOM     29  C   UNL     1       2.792   5.576  17.584  0.00  0.00    +0.000 C 
BRANCH  29  30
ATOM     30  C   UNL     1       2.554   4.223  18.214  0.00  0.00    +0.000 A 
ATOM     31  C   UNL     1       1.241   3.749  18.383  0.00  0.00    +0.000 A 
ATOM     32  C   UNL     1       1.002   2.484  18.925  0.00  0.00    +0.000 A 
ATOM     33  C   UNL     1       2.071   1.674  19.301  0.00  0.00    +0.000 A 
ATOM     34  C   UNL     1       3.379   2.130  19.136  0.00  0.00    +0.000 A 
ATOM     35  C   UNL     1       3.621   3.398  18.597  0.00  0.00    +0.000 A 
ENDBRANCH  29  30
ENDBRANCH  26  29
ENDBRANCH  22  23
ENDBRANCH   3  22
TORSDOF 7
ENDMDL
