MODEL 1
REMARK VINA RESULT:      -6.6      0.000      0.000
REMARK  Name = 
REMARK  10 active torsions:
REMARK  status: ('A' for Active; 'I' for Inactive)
REMARK    1  A    between atoms: C_1  and  C_2
REMARK    2  A    between atoms: C_2  and  C_3
REMARK    3  A    between atoms: C_2  and  O_4
REMARK    4  A    between atoms: O_4  and  C_5
REMARK    5  A    between atoms: C_5  and  C_7
REMARK    6  A    between atoms: C_10  and  C_12
REMARK    7  A    between atoms: C_16  and  C_17
REMARK    8  A    between atoms: C_23  and  C_24
REMARK    9  A    between atoms: C_23  and  C_25
REMARK   10  A    between atoms: C_28  and  C_29
REMARK                            x       y       z     vdW  Elec       q    Type
REMARK                         _______ _______ _______ _____ _____    ______ ____
ROOT
ATOM      1  C   UNL     1       0.750  13.940  18.715  0.00  0.00    +0.000 C 
ATOM      2  C   UNL     1       0.794  14.854  19.963  0.00  0.00    +0.000 C 
ATOM      3  N   UNL     1       0.028  14.437  21.143  0.00  0.00    +0.000 N 
ATOM      4  C   UNL     1      -0.595  15.477  21.868  0.00  0.00    +0.000 C 
ATOM      5  O   UNL     1      -0.482  16.669  21.584  0.00  0.00    +0.000 OA
ATOM      6  C   UNL     1       0.456  13.164  21.770  0.00  0.00    +0.000 C 
ATOM      7  C   UNL     1      -0.064  11.819  21.147  0.00  0.00    +0.000 C 
ATOM      8  C   UNL     1      -1.009  11.098  22.146  0.00  0.00    +0.000 C 
ATOM      9  C   UNL     1       1.138  10.859  20.986  0.00  0.00    +0.000 C 
ATOM     10  C   UNL     1      -0.717  12.001  19.782  0.00  0.00    +0.000 A 
ATOM     11  C   UNL     1      -1.868  11.306  19.288  0.00  0.00    +0.000 A 
ATOM     12  C   UNL     1      -2.145  11.773  18.025  0.00  0.00    +0.000 A 
ATOM     13  N   UNL     1      -1.197  12.711  17.715  0.00  0.00    +0.000 N 
ATOM     14  C   UNL     1      -0.320  12.872  18.768  0.00  0.00    +0.000 A 
ATOM     15  H   UNL     1      -1.179  13.235  16.849  0.00  0.00    +0.000 HD
ENDROOT
BRANCH   4  16
ATOM     16  C   UNL     1      -1.457  15.133  23.020  0.00  0.00    +0.000 A 
ATOM     17  C   UNL     1      -1.125  15.604  24.288  0.00  0.00    +0.000 A 
ATOM     18  C   UNL     1      -1.993  15.418  25.359  0.00  0.00    +0.000 A 
ATOM     19  C   UNL     1      -3.145  14.654  25.188  0.00  0.00    +0.000 A 
ATOM     20  C   UNL     1      -3.421  14.046  23.954  0.00  0.00    +0.000 A 
ATOM     21  C   UNL     1      -2.574  14.306  22.859  0.00  0.00    +0.000 A 
BRANCH  20  22
ATOM     22  C   UNL     1      -4.594  13.106  23.808  0.00  0.00    +0.000 C 
ATOM     23  F   UNL     1      -4.607  12.111  24.739  0.00  0.00    +0.000 F 
ATOM     24  F   UNL     1      -5.792  13.741  23.926  0.00  0.00    +0.000 F 
ATOM     25  F   UNL     1      -4.613  12.482  22.599  0.00  0.00    +0.000 F 
ENDBRANCH  20  22
ENDBRANCH   4  16
BRANCH   1  26
ATOM     26  C   UNL     1       2.168  13.484  18.386  0.00  0.00    +0.000 C 
ATOM     27  O   UNL     1       2.385  12.389  17.868  0.00  0.00    +0.000 OA
BRANCH  26  28
ATOM     28  O   UNL     1       3.169  14.320  18.778  0.00  0.00    +0.000 OA
BRANCH  28  30
ATOM     29  C   UNL     1       3.333  16.463  17.628  0.00  0.00    +0.000 C 
ATOM     30  C   UNL     1       3.815  15.014  17.681  0.00  0.00    +0.000 C 
ATOM     31  C   UNL     1       5.326  14.965  17.863  0.00  0.00    +0.000 C 
ENDBRANCH  28  30
ENDBRANCH  26  28
ENDBRANCH   1  26
BRANCH  12  32
ATOM     32  C   UNL     1      -3.203  11.396  17.155  0.00  0.00    +0.000 C 
ATOM     33  N   UNL     1      -4.080  11.095  16.456  0.00  0.00    +0.000 NA
ENDBRANCH  12  32
TORSDOF 6
ENDMDL
MODEL 2
REMARK VINA RESULT:      -6.3      3.350      5.239
REMARK  Name = 
REMARK  10 active torsions:
REMARK  status: ('A' for Active; 'I' for Inactive)
REMARK    1  A    between atoms: C_1  and  C_2
REMARK    2  A    between atoms: C_2  and  C_3
REMARK    3  A    between atoms: C_2  and  O_4
REMARK    4  A    between atoms: O_4  and  C_5
REMARK    5  A    between atoms: C_5  and  C_7
REMARK    6  A    between atoms: C_10  and  C_12
REMARK    7  A    between atoms: C_16  and  C_17
REMARK    8  A    between atoms: C_23  and  C_24
REMARK    9  A    between atoms: C_23  and  C_25
REMARK   10  A    between atoms: C_28  and  C_29
REMARK                            x       y       z     vdW  Elec       q    Type
REMARK                         _______ _______ _______ _____ _____    ______ ____
ROOT
ATOM      1  C   UNL     1       1.156  10.128  18.087  0.00  0.00    +0.000 C 
ATOM      2  C   UNL     1       2.207  11.203  18.455  0.00  0.00    +0.000 C 
ATOM      3  N   UNL     1       1.750  12.373  19.214  0.00  0.00    +0.000 N 
ATOM      4  C   UNL     1       2.354  13.601  18.867  0.00  0.00    +0.000 C 
ATOM      5  O   UNL     1       3.243  13.711  18.023  0.00  0.00    +0.000 OA
ATOM      6  C   UNL     1       1.218  12.092  20.569  0.00  0.00    +0.000 C 
ATOM      7  C   UNL     1      -0.275  11.618  20.695  0.00  0.00    +0.000 C 
ATOM      8  C   UNL     1      -1.117  12.697  21.429  0.00  0.00    +0.000 C 
ATOM      9  C   UNL     1      -0.319  10.387  21.630  0.00  0.00    +0.000 C 
ATOM     10  C   UNL     1      -0.897  11.227  19.360  0.00  0.00    +0.000 A 
ATOM     11  C   UNL     1      -2.245  11.476  18.943  0.00  0.00    +0.000 A 
ATOM     12  C   UNL     1      -2.400  10.983  17.668  0.00  0.00    +0.000 A 
ATOM     13  N   UNL     1      -1.207  10.423  17.295  0.00  0.00    +0.000 N 
ATOM     14  C   UNL     1      -0.276  10.562  18.304  0.00  0.00    +0.000 A 
ATOM     15  H   UNL     1      -1.036  10.006  16.389  0.00  0.00    +0.000 HD
ENDROOT
BRANCH   4  16
ATOM     16  C   UNL     1       1.887  14.842  19.525  0.00  0.00    +0.000 A 
ATOM     17  C   UNL     1       2.684  15.444  20.496  0.00  0.00    +0.000 A 
ATOM     18  C   UNL     1       2.338  16.684  21.023  0.00  0.00    +0.000 A 
ATOM     19  C   UNL     1       1.127  17.271  20.666  0.00  0.00    +0.000 A 
ATOM     20  C   UNL     1       0.240  16.609  19.803  0.00  0.00    +0.000 A 
ATOM     21  C   UNL     1       0.638  15.391  19.217  0.00  0.00    +0.000 A 
BRANCH  20  22
ATOM     22  C   UNL     1      -1.130  17.180  19.526  0.00  0.00    +0.000 C 
ATOM     23  F   UNL     1      -1.382  17.356  18.197  0.00  0.00    +0.000 F 
ATOM     24  F   UNL     1      -2.133  16.388  19.992  0.00  0.00    +0.000 F 
ATOM     25  F   UNL     1      -1.311  18.400  20.101  0.00  0.00    +0.000 F 
ENDBRANCH  20  22
ENDBRANCH   4  16
BRANCH   1  26
ATOM     26  C   UNL     1       1.577   8.795  18.699  0.00  0.00    +0.000 C 
ATOM     27  O   UNL     1       1.680   8.654  19.917  0.00  0.00    +0.000 OA
BRANCH  26  28
ATOM     28  O   UNL     1       1.911   7.813  17.817  0.00  0.00    +0.000 OA
BRANCH  28  30
ATOM     29  C   UNL     1       2.360   5.470  18.320  0.00  0.00    +0.000 C 
ATOM     30  C   UNL     1       2.914   6.895  18.318  0.00  0.00    +0.000 C 
ATOM     31  C   UNL     1       4.162   6.975  17.449  0.00  0.00    +0.000 C 
ENDBRANCH  28  30
ENDBRANCH  26  28
ENDBRANCH   1  26
BRANCH  12  32
ATOM     32  C   UNL     1      -3.553  11.020  16.839  0.00  0.00    +0.000 C 
ATOM     33  N   UNL     1      -4.489  11.035  16.153  0.00  0.00    +0.000 NA
ENDBRANCH  12  32
TORSDOF 6
ENDMDL
MODEL 3
REMARK VINA RESULT:      -6.1      3.341      5.626
REMARK  Name = 
REMARK  10 active torsions:
REMARK  status: ('A' for Active; 'I' for Inactive)
REMARK    1  A    between atoms: C_1  and  C_2
REMARK    2  A    between atoms: C_2  and  C_3
REMARK    3  A    between atoms: C_2  and  O_4
REMARK    4  A    between atoms: O_4  and  C_5
REMARK    5  A    between atoms: C_5  and  C_7
REMARK    6  A    between atoms: C_10  and  C_12
REMARK    7  A    between atoms: C_16  and  C_17
REMARK    8  A    between atoms: C_23  and  C_24
REMARK    9  A    between atoms: C_23  and  C_25
REMARK   10  A    between atoms: C_28  and  C_29
REMARK                            x       y       z     vdW  Elec       q    Type
REMARK                         _______ _______ _______ _____ _____    ______ ____
ROOT
ATOM      1  C   UNL     1       0.365  10.175  19.242  0.00  0.00    +0.000 C 
ATOM      2  C   UNL     1       1.604  11.102  19.217  0.00  0.00    +0.000 C 
ATOM      3  N   UNL     1       1.404  12.520  19.533  0.00  0.00    +0.000 N 
ATOM      4  C   UNL     1       2.182  13.431  18.786  0.00  0.00    +0.000 C 
ATOM      5  O   UNL     1       3.019  13.088  17.951  0.00  0.00    +0.000 OA
ATOM      6  C   UNL     1       0.922  12.810  20.906  0.00  0.00    +0.000 C 
ATOM      7  C   UNL     1      -0.618  12.686  21.193  0.00  0.00    +0.000 C 
ATOM      8  C   UNL     1      -1.214  14.082  21.519  0.00  0.00    +0.000 C 
ATOM      9  C   UNL     1      -0.807  11.868  22.492  0.00  0.00    +0.000 C 
ATOM     10  C   UNL     1      -1.384  11.991  20.074  0.00  0.00    +0.000 A 
ATOM     11  C   UNL     1      -2.695  12.326  19.603  0.00  0.00    +0.000 A 
ATOM     12  C   UNL     1      -3.015  11.473  18.573  0.00  0.00    +0.000 A 
ATOM     13  N   UNL     1      -1.962  10.613  18.409  0.00  0.00    +0.000 N 
ATOM     14  C   UNL     1      -0.956  10.910  19.305  0.00  0.00    +0.000 A 
ATOM     15  H   UNL     1      -1.924   9.893  17.698  0.00  0.00    +0.000 HD
ENDROOT
BRANCH   4  16
ATOM     16  C   UNL     1       1.977  14.883  18.984  0.00  0.00    +0.000 A 
ATOM     17  C   UNL     1       3.028  15.665  19.455  0.00  0.00    +0.000 A 
ATOM     18  C   UNL     1       2.907  17.050  19.511  0.00  0.00    +0.000 A 
ATOM     19  C   UNL     1       1.687  17.648  19.208  0.00  0.00    +0.000 A 
ATOM     20  C   UNL     1       0.571  16.864  18.875  0.00  0.00    +0.000 A 
ATOM     21  C   UNL     1       0.729  15.470  18.746  0.00  0.00    +0.000 A 
BRANCH  20  22
ATOM     22  C   UNL     1      -0.784  17.501  18.681  0.00  0.00    +0.000 C 
ATOM     23  F   UNL     1      -1.013  17.899  17.397  0.00  0.00    +0.000 F 
ATOM     24  F   UNL     1      -1.808  16.664  18.999  0.00  0.00    +0.000 F 
ATOM     25  F   UNL     1      -0.949  18.613  19.447  0.00  0.00    +0.000 F 
ENDBRANCH  20  22
ENDBRANCH   4  16
BRANCH   1  26
ATOM     26  C   UNL     1       0.593   9.071  20.270  0.00  0.00    +0.000 C 
ATOM     27  O   UNL     1      -0.242   8.823  21.140  0.00  0.00    +0.000 OA
BRANCH  26  28
ATOM     28  O   UNL     1       1.803   8.449  20.217  0.00  0.00    +0.000 OA
BRANCH  28  30
ATOM     29  C   UNL     1       2.864   7.592  18.197  0.00  0.00    +0.000 C 
ATOM     30  C   UNL     1       1.842   7.326  19.301  0.00  0.00    +0.000 C 
ATOM     31  C   UNL     1       2.204   6.056  20.061  0.00  0.00    +0.000 C 
ENDBRANCH  28  30
ENDBRANCH  26  28
ENDBRANCH   1  26
BRANCH  12  32
ATOM     32  C   UNL     1      -4.198  11.439  17.788  0.00  0.00    +0.000 C 
ATOM     33  N   UNL     1      -5.174  11.407  17.160  0.00  0.00    +0.000 NA
ENDBRANCH  12  32
TORSDOF 6
ENDMDL
MODEL 4
REMARK VINA RESULT:      -6.1      1.681      2.041
REMARK  Name = 
REMARK  10 active torsions:
REMARK  status: ('A' for Active; 'I' for Inactive)
REMARK    1  A    between atoms: C_1  and  C_2
REMARK    2  A    between atoms: C_2  and  C_3
REMARK    3  A    between atoms: C_2  and  O_4
REMARK    4  A    between atoms: O_4  and  C_5
REMARK    5  A    between atoms: C_5  and  C_7
REMARK    6  A    between atoms: C_10  and  C_12
REMARK    7  A    between atoms: C_16  and  C_17
REMARK    8  A    between atoms: C_23  and  C_24
REMARK    9  A    between atoms: C_23  and  C_25
REMARK   10  A    between atoms: C_28  and  C_29
REMARK                            x       y       z     vdW  Elec       q    Type
REMARK                         _______ _______ _______ _____ _____    ______ ____
ROOT
ATOM      1  C   UNL     1      -0.222  14.347  18.773  0.00  0.00    +0.000 C 
ATOM      2  C   UNL     1      -0.798  15.062  20.019  0.00  0.00    +0.000 C 
ATOM      3  N   UNL     1      -1.524  14.247  21.000  0.00  0.00    +0.000 N 
ATOM      4  C   UNL     1      -2.647  14.862  21.595  0.00  0.00    +0.000 C 
ATOM      5  O   UNL     1      -2.994  16.020  21.364  0.00  0.00    +0.000 OA
ATOM      6  C   UNL     1      -0.726  13.198  21.680  0.00  0.00    +0.000 C 
ATOM      7  C   UNL     1      -0.509  11.832  20.934  0.00  0.00    +0.000 C 
ATOM      8  C   UNL     1      -1.233  10.688  21.695  0.00  0.00    +0.000 C 
ATOM      9  C   UNL     1       0.992  11.466  21.015  0.00  0.00    +0.000 C 
ATOM     10  C   UNL     1      -0.911  11.878  19.465  0.00  0.00    +0.000 A 
ATOM     11  C   UNL     1      -1.551  10.833  18.724  0.00  0.00    +0.000 A 
ATOM     12  C   UNL     1      -1.759  11.278  17.439  0.00  0.00    +0.000 A 
ATOM     13  N   UNL     1      -1.251  12.548  17.358  0.00  0.00    +0.000 N 
ATOM     14  C   UNL     1      -0.735  12.938  18.576  0.00  0.00    +0.000 A 
ATOM     15  H   UNL     1      -1.293  13.122  16.525  0.00  0.00    +0.000 HD
ENDROOT
BRANCH   4  16
ATOM     16  C   UNL     1      -3.484  14.077  22.530  0.00  0.00    +0.000 A 
ATOM     17  C   UNL     1      -2.955  13.682  23.756  0.00  0.00    +0.000 A 
ATOM     18  C   UNL     1      -3.763  13.072  24.710  0.00  0.00    +0.000 A 
ATOM     19  C   UNL     1      -5.079  12.747  24.391  0.00  0.00    +0.000 A 
ATOM     20  C   UNL     1      -5.587  13.002  23.108  0.00  0.00    +0.000 A 
ATOM     21  C   UNL     1      -4.782  13.690  22.179  0.00  0.00    +0.000 A 
BRANCH  20  22
ATOM     22  C   UNL     1      -6.966  12.525  22.720  0.00  0.00    +0.000 C 
ATOM     23  F   UNL     1      -7.564  11.768  23.683  0.00  0.00    +0.000 F 
ATOM     24  F   UNL     1      -7.825  13.551  22.469  0.00  0.00    +0.000 F 
ATOM     25  F   UNL     1      -6.955  11.756  21.598  0.00  0.00    +0.000 F 
ENDBRANCH  20  22
ENDBRANCH   4  16
BRANCH   1  26
ATOM     26  C   UNL     1       1.291  14.544  18.745  0.00  0.00    +0.000 C 
ATOM     27  O   UNL     1       2.051  13.623  18.447  0.00  0.00    +0.000 OA
BRANCH  26  28
ATOM     28  O   UNL     1       1.741  15.763  19.152  0.00  0.00    +0.000 OA
BRANCH  28  30
ATOM     29  C   UNL     1       1.301  18.126  18.745  0.00  0.00    +0.000 C 
ATOM     30  C   UNL     1       1.678  16.782  18.123  0.00  0.00    +0.000 C 
ATOM     31  C   UNL     1       3.026  16.885  17.421  0.00  0.00    +0.000 C 
ENDBRANCH  28  30
ENDBRANCH  26  28
ENDBRANCH   1  26
BRANCH  12  32
ATOM     32  C   UNL     1      -2.379  10.600  16.357  0.00  0.00    +0.000 C 
ATOM     33  N   UNL     1      -2.895  10.035  15.484  0.00  0.00    +0.000 NA
ENDBRANCH  12  32
TORSDOF 6
ENDMDL
MODEL 5
REMARK VINA RESULT:      -6.0      3.937      6.880
REMARK  Name = 
REMARK  10 active torsions:
REMARK  status: ('A' for Active; 'I' for Inactive)
REMARK    1  A    between atoms: C_1  and  C_2
REMARK    2  A    between atoms: C_2  and  C_3
REMARK    3  A    between atoms: C_2  and  O_4
REMARK    4  A    between atoms: O_4  and  C_5
REMARK    5  A    between atoms: C_5  and  C_7
REMARK    6  A    between atoms: C_10  and  C_12
REMARK    7  A    between atoms: C_16  and  C_17
REMARK    8  A    between atoms: C_23  and  C_24
REMARK    9  A    between atoms: C_23  and  C_25
REMARK   10  A    between atoms: C_28  and  C_29
REMARK                            x       y       z     vdW  Elec       q    Type
REMARK                         _______ _______ _______ _____ _____    ______ ____
ROOT
ATOM      1  C   UNL     1      -1.768  12.276  23.127  0.00  0.00    +0.000 C 
ATOM      2  C   UNL     1      -1.407  13.781  23.122  0.00  0.00    +0.000 C 
ATOM      3  N   UNL     1      -0.767  14.326  21.919  0.00  0.00    +0.000 N 
ATOM      4  C   UNL     1       0.227  15.302  22.144  0.00  0.00    +0.000 C 
ATOM      5  O   UNL     1       0.528  15.726  23.260  0.00  0.00    +0.000 OA
ATOM      6  C   UNL     1      -1.581  14.275  20.680  0.00  0.00    +0.000 C 
ATOM      7  C   UNL     1      -1.612  12.931  19.868  0.00  0.00    +0.000 C 
ATOM      8  C   UNL     1      -0.924  13.124  18.489  0.00  0.00    +0.000 C 
ATOM      9  C   UNL     1      -3.084  12.601  19.526  0.00  0.00    +0.000 C 
ATOM     10  C   UNL     1      -1.023  11.752  20.634  0.00  0.00    +0.000 A 
ATOM     11  C   UNL     1      -0.227  10.694  20.087  0.00  0.00    +0.000 A 
ATOM     12  C   UNL     1       0.120   9.842  21.110  0.00  0.00    +0.000 A 
ATOM     13  N   UNL     1      -0.451  10.324  22.258  0.00  0.00    +0.000 N 
ATOM     14  C   UNL     1      -1.147  11.486  21.997  0.00  0.00    +0.000 A 
ATOM     15  H   UNL     1      -0.335   9.899  23.170  0.00  0.00    +0.000 HD
ENDROOT
BRANCH   4  16
ATOM     16  C   UNL     1       0.981  15.839  20.989  0.00  0.00    +0.000 A 
ATOM     17  C   UNL     1       0.949  17.207  20.727  0.00  0.00    +0.000 A 
ATOM     18  C   UNL     1       1.761  17.754  19.739  0.00  0.00    +0.000 A 
ATOM     19  C   UNL     1       2.522  16.916  18.929  0.00  0.00    +0.000 A 
ATOM     20  C   UNL     1       2.454  15.522  19.081  0.00  0.00    +0.000 A 
ATOM     21  C   UNL     1       1.687  14.986  20.134  0.00  0.00    +0.000 A 
BRANCH  20  22
ATOM     22  C   UNL     1       3.171  14.609  18.115  0.00  0.00    +0.000 C 
ATOM     23  F   UNL     1       3.549  15.234  16.964  0.00  0.00    +0.000 F 
ATOM     24  F   UNL     1       4.308  14.079  18.640  0.00  0.00    +0.000 F 
ATOM     25  F   UNL     1       2.403  13.555  17.728  0.00  0.00    +0.000 F 
ENDBRANCH  20  22
ENDBRANCH   4  16
BRANCH   1  26
ATOM     26  C   UNL     1      -3.273  12.128  23.329  0.00  0.00    +0.000 C 
ATOM     27  O   UNL     1      -3.743  11.773  24.409  0.00  0.00    +0.000 OA
BRANCH  26  28
ATOM     28  O   UNL     1      -4.045  12.327  22.224  0.00  0.00    +0.000 OA
BRANCH  28  30
ATOM     29  C   UNL     1      -5.003  14.569  22.226  0.00  0.00    +0.000 C 
ATOM     30  C   UNL     1      -5.254  13.083  22.485  0.00  0.00    +0.000 C 
ATOM     31  C   UNL     1      -6.379  12.574  21.593  0.00  0.00    +0.000 C 
ENDBRANCH  28  30
ENDBRANCH  26  28
ENDBRANCH   1  26
BRANCH  12  32
ATOM     32  C   UNL     1       0.919   8.669  21.052  0.00  0.00    +0.000 C 
ATOM     33  N   UNL     1       1.556   7.700  21.003  0.00  0.00    +0.000 NA
ENDBRANCH  12  32
TORSDOF 6
ENDMDL
MODEL 6
REMARK VINA RESULT:      -5.9      3.225      5.836
REMARK  Name = 
REMARK  10 active torsions:
REMARK  status: ('A' for Active; 'I' for Inactive)
REMARK    1  A    between atoms: C_1  and  C_2
REMARK    2  A    between atoms: C_2  and  C_3
REMARK    3  A    between atoms: C_2  and  O_4
REMARK    4  A    between atoms: O_4  and  C_5
REMARK    5  A    between atoms: C_5  and  C_7
REMARK    6  A    between atoms: C_10  and  C_12
REMARK    7  A    between atoms: C_16  and  C_17
REMARK    8  A    between atoms: C_23  and  C_24
REMARK    9  A    between atoms: C_23  and  C_25
REMARK   10  A    between atoms: C_28  and  C_29
REMARK                            x       y       z     vdW  Elec       q    Type
REMARK                         _______ _______ _______ _____ _____    ______ ____
ROOT
ATOM      1  C   UNL     1       0.523   9.431  18.456  0.00  0.00    +0.000 C 
ATOM      2  C   UNL     1      -0.658   9.669  17.484  0.00  0.00    +0.000 C 
ATOM      3  N   UNL     1      -1.628  10.714  17.832  0.00  0.00    +0.000 N 
ATOM      4  C   UNL     1      -2.975  10.428  17.517  0.00  0.00    +0.000 C 
ATOM      5  O   UNL     1      -3.338   9.401  16.944  0.00  0.00    +0.000 OA
ATOM      6  C   UNL     1      -1.091  12.095  17.893  0.00  0.00    +0.000 C 
ATOM      7  C   UNL     1      -0.362  12.549  19.208  0.00  0.00    +0.000 C 
ATOM      8  C   UNL     1      -1.182  13.662  19.916  0.00  0.00    +0.000 C 
ATOM      9  C   UNL     1       0.968  13.235  18.816  0.00  0.00    +0.000 C 
ATOM     10  C   UNL     1      -0.045  11.394  20.150  0.00  0.00    +0.000 A 
ATOM     11  C   UNL     1      -0.115  11.418  21.581  0.00  0.00    +0.000 A 
ATOM     12  C   UNL     1       0.231  10.172  22.051  0.00  0.00    +0.000 A 
ATOM     13  N   UNL     1       0.531   9.392  20.966  0.00  0.00    +0.000 N 
ATOM     14  C   UNL     1       0.366  10.109  19.798  0.00  0.00    +0.000 A 
ATOM     15  H   UNL     1       0.794   8.416  21.025  0.00  0.00    +0.000 HD
ENDROOT
BRANCH   4  16
ATOM     16  C   UNL     1      -4.025  11.392  17.913  0.00  0.00    +0.000 A 
ATOM     17  C   UNL     1      -4.910  11.874  16.951  0.00  0.00    +0.000 A 
ATOM     18  C   UNL     1      -5.993  12.665  17.322  0.00  0.00    +0.000 A 
ATOM     19  C   UNL     1      -6.125  13.075  18.647  0.00  0.00    +0.000 A 
ATOM     20  C   UNL     1      -5.160  12.721  19.603  0.00  0.00    +0.000 A 
ATOM     21  C   UNL     1      -4.112  11.857  19.230  0.00  0.00    +0.000 A 
BRANCH  20  22
ATOM     22  C   UNL     1      -5.230  13.279  21.005  0.00  0.00    +0.000 C 
ATOM     23  F   UNL     1      -4.755  14.553  21.102  0.00  0.00    +0.000 F 
ATOM     24  F   UNL     1      -6.501  13.319  21.491  0.00  0.00    +0.000 F 
ATOM     25  F   UNL     1      -4.506  12.545  21.893  0.00  0.00    +0.000 F 
ENDBRANCH  20  22
ENDBRANCH   4  16
BRANCH   1  26
ATOM     26  C   UNL     1       1.833   9.665  17.710  0.00  0.00    +0.000 C 
ATOM     27  O   UNL     1       2.338  10.785  17.638  0.00  0.00    +0.000 OA
BRANCH  26  28
ATOM     28  O   UNL     1       2.352   8.584  17.063  0.00  0.00    +0.000 OA
BRANCH  28  30
ATOM     29  C   UNL     1       2.285   6.492  18.313  0.00  0.00    +0.000 C 
ATOM     30  C   UNL     1       3.125   7.707  17.919  0.00  0.00    +0.000 C 
ATOM     31  C   UNL     1       4.388   7.263  17.192  0.00  0.00    +0.000 C 
ENDBRANCH  28  30
ENDBRANCH  26  28
ENDBRANCH   1  26
BRANCH  12  32
ATOM     32  C   UNL     1       0.283   9.717  23.395  0.00  0.00    +0.000 C 
ATOM     33  N   UNL     1       0.308   9.349  24.496  0.00  0.00    +0.000 NA
ENDBRANCH  12  32
TORSDOF 6
ENDMDL
MODEL 7
REMARK VINA RESULT:      -5.9      2.608      4.620
REMARK  Name = 
REMARK  10 active torsions:
REMARK  status: ('A' for Active; 'I' for Inactive)
REMARK    1  A    between atoms: C_1  and  C_2
REMARK    2  A    between atoms: C_2  and  C_3
REMARK    3  A    between atoms: C_2  and  O_4
REMARK    4  A    between atoms: O_4  and  C_5
REMARK    5  A    between atoms: C_5  and  C_7
REMARK    6  A    between atoms: C_10  and  C_12
REMARK    7  A    between atoms: C_16  and  C_17
REMARK    8  A    between atoms: C_23  and  C_24
REMARK    9  A    between atoms: C_23  and  C_25
REMARK   10  A    between atoms: C_28  and  C_29
REMARK                            x       y       z     vdW  Elec       q    Type
REMARK                         _______ _______ _______ _____ _____    ______ ____
ROOT
ATOM      1  C   UNL     1       1.492  10.792  19.695  0.00  0.00    +0.000 C 
ATOM      2  C   UNL     1       0.492  10.390  20.806  0.00  0.00    +0.000 C 
ATOM      3  N   UNL     1      -0.488  11.393  21.239  0.00  0.00    +0.000 N 
ATOM      4  C   UNL     1      -0.787  11.400  22.619  0.00  0.00    +0.000 C 
ATOM      5  O   UNL     1      -0.311  10.601  23.425  0.00  0.00    +0.000 OA
ATOM      6  C   UNL     1      -1.452  11.838  20.204  0.00  0.00    +0.000 C 
ATOM      7  C   UNL     1      -0.993  12.947  19.191  0.00  0.00    +0.000 C 
ATOM      8  C   UNL     1      -1.814  14.246  19.414  0.00  0.00    +0.000 C 
ATOM      9  C   UNL     1      -1.369  12.489  17.762  0.00  0.00    +0.000 C 
ATOM     10  C   UNL     1       0.507  13.213  19.229  0.00  0.00    +0.000 A 
ATOM     11  C   UNL     1       1.150  14.486  19.097  0.00  0.00    +0.000 A 
ATOM     12  C   UNL     1       2.509  14.297  19.206  0.00  0.00    +0.000 A 
ATOM     13  N   UNL     1       2.725  12.956  19.377  0.00  0.00    +0.000 N 
ATOM     14  C   UNL     1       1.525  12.275  19.400  0.00  0.00    +0.000 A 
ATOM     15  H   UNL     1       3.639  12.541  19.509  0.00  0.00    +0.000 HD
ENDROOT
BRANCH   4  16
ATOM     16  C   UNL     1      -1.699  12.437  23.151  0.00  0.00    +0.000 A 
ATOM     17  C   UNL     1      -1.180  13.667  23.549  0.00  0.00    +0.000 A 
ATOM     18  C   UNL     1      -2.030  14.706  23.914  0.00  0.00    +0.000 A 
ATOM     19  C   UNL     1      -3.401  14.478  23.997  0.00  0.00    +0.000 A 
ATOM     20  C   UNL     1      -3.929  13.203  23.744  0.00  0.00    +0.000 A 
ATOM     21  C   UNL     1      -3.066  12.182  23.300  0.00  0.00    +0.000 A 
BRANCH  20  22
ATOM     22  C   UNL     1      -5.396  12.922  23.968  0.00  0.00    +0.000 C 
ATOM     23  F   UNL     1      -5.627  12.036  24.977  0.00  0.00    +0.000 F 
ATOM     24  F   UNL     1      -6.101  14.041  24.288  0.00  0.00    +0.000 F 
ATOM     25  F   UNL     1      -5.998  12.395  22.867  0.00  0.00    +0.000 F 
ENDBRANCH  20  22
ENDBRANCH   4  16
BRANCH   1  26
ATOM     26  C   UNL     1       1.317   9.852  18.507  0.00  0.00    +0.000 C 
ATOM     27  O   UNL     1       0.206   9.619  18.033  0.00  0.00    +0.000 OA
BRANCH  26  28
ATOM     28  O   UNL     1       2.446   9.229  18.069  0.00  0.00    +0.000 OA
BRANCH  28  30
ATOM     29  C   UNL     1       3.633   7.173  17.515  0.00  0.00    +0.000 C 
ATOM     30  C   UNL     1       2.383   7.783  18.149  0.00  0.00    +0.000 C 
ATOM     31  C   UNL     1       2.265   7.354  19.605  0.00  0.00    +0.000 C 
ENDBRANCH  28  30
ENDBRANCH  26  28
ENDBRANCH   1  26
BRANCH  12  32
ATOM     32  C   UNL     1       3.543  15.269  19.161  0.00  0.00    +0.000 C 
ATOM     33  N   UNL     1       4.387  16.064  19.105  0.00  0.00    +0.000 NA
ENDBRANCH  12  32
TORSDOF 6
ENDMDL
MODEL 8
REMARK VINA RESULT:      -5.9      7.763     11.550
REMARK  Name = 
REMARK  10 active torsions:
REMARK  status: ('A' for Active; 'I' for Inactive)
REMARK    1  A    between atoms: C_1  and  C_2
REMARK    2  A    between atoms: C_2  and  C_3
REMARK    3  A    between atoms: C_2  and  O_4
REMARK    4  A    between atoms: O_4  and  C_5
REMARK    5  A    between atoms: C_5  and  C_7
REMARK    6  A    between atoms: C_10  and  C_12
REMARK    7  A    between atoms: C_16  and  C_17
REMARK    8  A    between atoms: C_23  and  C_24
REMARK    9  A    between atoms: C_23  and  C_25
REMARK   10  A    between atoms: C_28  and  C_29
REMARK                            x       y       z     vdW  Elec       q    Type
REMARK                         _______ _______ _______ _____ _____    ______ ____
ROOT
ATOM      1  C   UNL     1       7.047  12.084  23.101  0.00  0.00    +0.000 C 
ATOM      2  C   UNL     1       8.239  11.462  22.335  0.00  0.00    +0.000 C 
ATOM      3  N   UNL     1       9.005  12.335  21.438  0.00  0.00    +0.000 N 
ATOM      4  C   UNL     1       9.457  11.739  20.240  0.00  0.00    +0.000 C 
ATOM      5  O   UNL     1       9.279  10.554  19.959  0.00  0.00    +0.000 OA
ATOM      6  C   UNL     1       9.709  13.466  22.089  0.00  0.00    +0.000 C 
ATOM      7  C   UNL     1       8.888  14.768  22.405  0.00  0.00    +0.000 C 
ATOM      8  C   UNL     1       9.407  15.949  21.542  0.00  0.00    +0.000 C 
ATOM      9  C   UNL     1       9.186  15.190  23.864  0.00  0.00    +0.000 C 
ATOM     10  C   UNL     1       7.383  14.579  22.260  0.00  0.00    +0.000 A 
ATOM     11  C   UNL     1       6.452  15.534  21.737  0.00  0.00    +0.000 A 
ATOM     12  C   UNL     1       5.197  14.971  21.759  0.00  0.00    +0.000 A 
ATOM     13  N   UNL     1       5.319  13.717  22.296  0.00  0.00    +0.000 N 
ATOM     14  C   UNL     1       6.638  13.452  22.604  0.00  0.00    +0.000 A 
ATOM     15  H   UNL     1       4.548  13.070  22.406  0.00  0.00    +0.000 HD
ENDROOT
BRANCH   4  16
ATOM     16  C   UNL     1      10.161  12.574  19.243  0.00  0.00    +0.000 A 
ATOM     17  C   UNL     1      11.365  12.127  18.703  0.00  0.00    +0.000 A 
ATOM     18  C   UNL     1      11.972  12.820  17.661  0.00  0.00    +0.000 A 
ATOM     19  C   UNL     1      11.435  14.033  17.236  0.00  0.00    +0.000 A 
ATOM     20  C   UNL     1      10.306  14.575  17.869  0.00  0.00    +0.000 A 
ATOM     21  C   UNL     1       9.657  13.825  18.869  0.00  0.00    +0.000 A 
BRANCH  20  22
ATOM     22  C   UNL     1       9.807  15.952  17.501  0.00  0.00    +0.000 C 
ATOM     23  F   UNL     1       8.453  16.014  17.358  0.00  0.00    +0.000 F 
ATOM     24  F   UNL     1      10.126  16.891  18.432  0.00  0.00    +0.000 F 
ATOM     25  F   UNL     1      10.325  16.394  16.323  0.00  0.00    +0.000 F 
ENDBRANCH  20  22
ENDBRANCH   4  16
BRANCH   1  26
ATOM     26  C   UNL     1       7.292  11.936  24.600  0.00  0.00    +0.000 C 
ATOM     27  O   UNL     1       8.410  12.102  25.086  0.00  0.00    +0.000 OA
BRANCH  26  28
ATOM     28  O   UNL     1       6.224  11.527  25.340  0.00  0.00    +0.000 OA
BRANCH  28  30
ATOM     29  C   UNL     1       5.561  13.772  26.019  0.00  0.00    +0.000 C 
ATOM     30  C   UNL     1       5.951  12.370  26.487  0.00  0.00    +0.000 C 
ATOM     31  C   UNL     1       4.830  11.759  27.317  0.00  0.00    +0.000 C 
ENDBRANCH  28  30
ENDBRANCH  26  28
ENDBRANCH   1  26
BRANCH  12  32
ATOM     32  C   UNL     1       3.968  15.531  21.320  0.00  0.00    +0.000 C 
ATOM     33  N   UNL     1       2.955  15.982  20.977  0.00  0.00    +0.000 NA
ENDBRANCH  12  32
TORSDOF 6
ENDMDL
MODEL 9
REMARK VINA RESULT:      -5.9      3.903      5.705
REMARK  Name = 
REMARK  10 active torsions:
REMARK  status: ('A' for Active; 'I' for Inactive)
REMARK    1  A    between atoms: C_1  and  C_2
REMARK    2  A    between atoms: C_2  and  C_3
REMARK    3  A    between atoms: C_2  and  O_4
REMARK    4  A    between atoms: O_4  and  C_5
REMARK    5  A    between atoms: C_5  and  C_7
REMARK    6  A    between atoms: C_10  and  C_12
REMARK    7  A    between atoms: C_16  and  C_17
REMARK    8  A    between atoms: C_23  and  C_24
REMARK    9  A    between atoms: C_23  and  C_25
REMARK   10  A    between atoms: C_28  and  C_29
REMARK                            x       y       z     vdW  Elec       q    Type
REMARK                         _______ _______ _______ _____ _____    ______ ____
ROOT
ATOM      1  C   UNL     1       1.351   9.784  18.010  0.00  0.00    +0.000 C 
ATOM      2  C   UNL     1       2.304  10.922  18.450  0.00  0.00    +0.000 C 
ATOM      3  N   UNL     1       1.721  12.065  19.161  0.00  0.00    +0.000 N 
ATOM      4  C   UNL     1       2.276  13.326  18.852  0.00  0.00    +0.000 C 
ATOM      5  O   UNL     1       3.221  13.485  18.079  0.00  0.00    +0.000 OA
ATOM      6  C   UNL     1       1.101  11.758  20.472  0.00  0.00    +0.000 C 
ATOM      7  C   UNL     1      -0.367  11.198  20.485  0.00  0.00    +0.000 C 
ATOM      8  C   UNL     1      -1.326  12.227  21.142  0.00  0.00    +0.000 C 
ATOM      9  C   UNL     1      -0.412   9.969  21.425  0.00  0.00    +0.000 C 
ATOM     10  C   UNL     1      -0.858  10.765  19.109  0.00  0.00    +0.000 A 
ATOM     11  C   UNL     1      -2.181  10.931  18.586  0.00  0.00    +0.000 A 
ATOM     12  C   UNL     1      -2.206  10.425  17.307  0.00  0.00    +0.000 A 
ATOM     13  N   UNL     1      -0.957   9.935  17.034  0.00  0.00    +0.000 N 
ATOM     14  C   UNL     1      -0.117  10.134  18.110  0.00  0.00    +0.000 A 
ATOM     15  H   UNL     1      -0.690   9.526  16.147  0.00  0.00    +0.000 HD
ENDROOT
BRANCH   4  16
ATOM     16  C   UNL     1       1.687  14.540  19.460  0.00  0.00    +0.000 A 
ATOM     17  C   UNL     1       0.488  15.043  18.960  0.00  0.00    +0.000 A 
ATOM     18  C   UNL     1      -0.159  16.092  19.604  0.00  0.00    +0.000 A 
ATOM     19  C   UNL     1       0.454  16.721  20.685  0.00  0.00    +0.000 A 
ATOM     20  C   UNL     1       1.731  16.324  21.111  0.00  0.00    +0.000 A 
ATOM     21  C   UNL     1       2.340  15.211  20.500  0.00  0.00    +0.000 A 
BRANCH  20  22
ATOM     22  C   UNL     1       2.452  17.094  22.191  0.00  0.00    +0.000 C 
ATOM     23  F   UNL     1       1.625  17.885  22.933  0.00  0.00    +0.000 F 
ATOM     24  F   UNL     1       3.085  16.282  23.081  0.00  0.00    +0.000 F 
ATOM     25  F   UNL     1       3.406  17.924  21.690  0.00  0.00    +0.000 F 
ENDBRANCH  20  22
ENDBRANCH   4  16
BRANCH   1  26
ATOM     26  C   UNL     1       1.799   8.481  18.665  0.00  0.00    +0.000 C 
ATOM     27  O   UNL     1       1.832   8.358  19.889  0.00  0.00    +0.000 OA
BRANCH  26  28
ATOM     28  O   UNL     1       2.239   7.510  17.818  0.00  0.00    +0.000 OA
BRANCH  28  30
ATOM     29  C   UNL     1       2.211   5.140  18.391  0.00  0.00    +0.000 C 
ATOM     30  C   UNL     1       2.985   6.455  18.476  0.00  0.00    +0.000 C 
ATOM     31  C   UNL     1       4.352   6.308  17.821  0.00  0.00    +0.000 C 
ENDBRANCH  28  30
ENDBRANCH  26  28
ENDBRANCH   1  26
BRANCH  12  32
ATOM     32  C   UNL     1      -3.291  10.390  16.390  0.00  0.00    +0.000 C 
ATOM     33  N   UNL     1      -4.165  10.357  15.628  0.00  0.00    +0.000 NA
ENDBRANCH  12  32
TORSDOF 6
ENDMDL
