MODEL 1
REMARK VINA RESULT:      -7.4      0.000      0.000
REMARK  Name = 
REMARK  5 active torsions:
REMARK  status: ('A' for Active; 'I' for Inactive)
REMARK    1  A    between atoms: C_1  and  O_2
REMARK    2  A    between atoms: O_2  and  C_3
REMARK    3  A    between atoms: C_5  and  O_6
REMARK    4  A    between atoms: C_11  and  O_12
REMARK    5  A    between atoms: C_14  and  O_15
REMARK                            x       y       z     vdW  Elec       q    Type
REMARK                         _______ _______ _______ _____ _____    ______ ____
ROOT
ATOM      1  C   UNL     1       2.258   5.583  19.775  0.00  0.00    +0.000 A 
ATOM      2  C   UNL     1       1.524   4.865  20.738  0.00  0.00    +0.000 A 
ATOM      3  C   UNL     1       1.527   3.461  20.751  0.00  0.00    +0.000 A 
ATOM      4  C   UNL     1       2.247   2.731  19.820  0.00  0.00    +0.000 A 
ATOM      5  C   UNL     1       2.962   3.457  18.888  0.00  0.00    +0.000 A 
ATOM      6  C   UNL     1       2.997   4.865  18.834  0.00  0.00    +0.000 A 
ATOM      7  C   UNL     1       3.860   5.265  17.721  0.00  0.00    +0.000 A 
ATOM      8  C   UNL     1       4.267   6.486  17.208  0.00  0.00    +0.000 A 
ATOM      9  C   UNL     1       5.129   6.528  16.102  0.00  0.00    +0.000 A 
ATOM     10  C   UNL     1       5.580   5.342  15.507  0.00  0.00    +0.000 A 
ATOM     11  C   UNL     1       5.193   4.103  15.993  0.00  0.00    +0.000 A 
ATOM     12  C   UNL     1       4.347   4.102  17.089  0.00  0.00    +0.000 A 
ATOM     13  C   UNL     1       3.801   2.932  17.797  0.00  0.00    +0.000 C 
ATOM     14  O   UNL     1       4.001   1.765  17.536  0.00  0.00    +0.000 OA
ENDROOT
BRANCH   1  16
ATOM     15  C   UNL     1       1.570   7.683  20.678  0.00  0.00    +0.000 C 
ATOM     16  O   UNL     1       2.300   6.949  19.698  0.00  0.00    +0.000 OA
ENDBRANCH   1  16
BRANCH   3  17
ATOM     17  O   UNL     1       0.815   2.763  21.683  0.00  0.00    +0.000 OA
ATOM     18  H   UNL     1       0.725   3.294  22.491  0.00  0.00    +0.000 HD
ENDBRANCH   3  17
BRANCH   8  19
ATOM     19  O   UNL     1       3.884   7.693  17.710  0.00  0.00    +0.000 OA
ATOM     20  H   UNL     1       3.082   7.553  18.249  0.00  0.00    +0.000 HD
ENDBRANCH   8  19
BRANCH  10  21
ATOM     21  O   UNL     1       6.416   5.368  14.429  0.00  0.00    +0.000 OA
ATOM     22  H   UNL     1       7.069   6.077  14.555  0.00  0.00    +0.000 HD
ENDBRANCH  10  21
TORSDOF 4
ENDMDL
MODEL 2
REMARK VINA RESULT:      -7.1      0.707      4.951
REMARK  Name = 
REMARK  5 active torsions:
REMARK  status: ('A' for Active; 'I' for Inactive)
REMARK    1  A    between atoms: C_1  and  O_2
REMARK    2  A    between atoms: O_2  and  C_3
REMARK    3  A    between atoms: C_5  and  O_6
REMARK    4  A    between atoms: C_11  and  O_12
REMARK    5  A    between atoms: C_14  and  O_15
REMARK                            x       y       z     vdW  Elec       q    Type
REMARK                         _______ _______ _______ _____ _____    ______ ____
ROOT
ATOM      1  C   UNL     1       4.138   6.474  17.505  0.00  0.00    +0.000 A 
ATOM      2  C   UNL     1       4.888   6.568  16.317  0.00  0.00    +0.000 A 
ATOM      3  C   UNL     1       5.322   5.415  15.643  0.00  0.00    +0.000 A 
ATOM      4  C   UNL     1       5.032   4.146  16.119  0.00  0.00    +0.000 A 
ATOM      5  C   UNL     1       4.293   4.081  17.284  0.00  0.00    +0.000 A 
ATOM      6  C   UNL     1       3.830   5.205  17.996  0.00  0.00    +0.000 A 
ATOM      7  C   UNL     1       3.085   4.737  19.166  0.00  0.00    +0.000 A 
ATOM      8  C   UNL     1       2.409   5.373  20.196  0.00  0.00    +0.000 A 
ATOM      9  C   UNL     1       1.776   4.614  21.191  0.00  0.00    +0.000 A 
ATOM     10  C   UNL     1       1.824   3.215  21.156  0.00  0.00    +0.000 A 
ATOM     11  C   UNL     1       2.492   2.545  20.142  0.00  0.00    +0.000 A 
ATOM     12  C   UNL     1       3.099   3.327  19.175  0.00  0.00    +0.000 A 
ATOM     13  C   UNL     1       3.856   2.869  17.999  0.00  0.00    +0.000 C 
ATOM     14  O   UNL     1       4.077   1.721  17.677  0.00  0.00    +0.000 OA
ENDROOT
BRANCH   1  16
ATOM     15  C   UNL     1       2.671   8.354  17.620  0.00  0.00    +0.000 C 
ATOM     16  O   UNL     1       3.686   7.551  18.219  0.00  0.00    +0.000 OA
ENDBRANCH   1  16
BRANCH   3  17
ATOM     17  O   UNL     1       6.048   5.503  14.491  0.00  0.00    +0.000 OA
ATOM     18  H   UNL     1       6.772   4.856  14.510  0.00  0.00    +0.000 HD
ENDBRANCH   3  17
BRANCH   8  19
ATOM     19  O   UNL     1       2.306   6.725  20.323  0.00  0.00    +0.000 OA
ATOM     20  H   UNL     1       2.057   6.922  21.247  0.00  0.00    +0.000 HD
ENDBRANCH   8  19
BRANCH  10  21
ATOM     21  O   UNL     1       1.216   2.464  22.118  0.00  0.00    +0.000 OA
ATOM     22  H   UNL     1       0.264   2.659  22.115  0.00  0.00    +0.000 HD
ENDBRANCH  10  21
TORSDOF 4
ENDMDL
MODEL 3
REMARK VINA RESULT:      -6.5      1.860      4.514
REMARK  Name = 
REMARK  5 active torsions:
REMARK  status: ('A' for Active; 'I' for Inactive)
REMARK    1  A    between atoms: C_1  and  O_2
REMARK    2  A    between atoms: O_2  and  C_3
REMARK    3  A    between atoms: C_5  and  O_6
REMARK    4  A    between atoms: C_11  and  O_12
REMARK    5  A    between atoms: C_14  and  O_15
REMARK                            x       y       z     vdW  Elec       q    Type
REMARK                         _______ _______ _______ _____ _____    ______ ____
ROOT
ATOM      1  C   UNL     1       1.837   7.597  19.814  0.00  0.00    +0.000 A 
ATOM      2  C   UNL     1       1.595   8.835  19.190  0.00  0.00    +0.000 A 
ATOM      3  C   UNL     1       2.179   9.148  17.952  0.00  0.00    +0.000 A 
ATOM      4  C   UNL     1       3.013   8.255  17.300  0.00  0.00    +0.000 A 
ATOM      5  C   UNL     1       3.233   7.046  17.930  0.00  0.00    +0.000 A 
ATOM      6  C   UNL     1       2.668   6.681  19.170  0.00  0.00    +0.000 A 
ATOM      7  C   UNL     1       3.126   5.332  19.507  0.00  0.00    +0.000 A 
ATOM      8  C   UNL     1       2.894   4.474  20.571  0.00  0.00    +0.000 A 
ATOM      9  C   UNL     1       3.498   3.208  20.593  0.00  0.00    +0.000 A 
ATOM     10  C   UNL     1       4.339   2.804  19.548  0.00  0.00    +0.000 A 
ATOM     11  C   UNL     1       4.594   3.636  18.469  0.00  0.00    +0.000 A 
ATOM     12  C   UNL     1       3.977   4.874  18.480  0.00  0.00    +0.000 A 
ATOM     13  C   UNL     1       4.073   5.931  17.459  0.00  0.00    +0.000 C 
ATOM     14  O   UNL     1       4.715   5.894  16.432  0.00  0.00    +0.000 OA
ENDROOT
BRANCH   1  16
ATOM     15  C   UNL     1       0.468   8.165  21.686  0.00  0.00    +0.000 C 
ATOM     16  O   UNL     1       1.308   7.225  21.021  0.00  0.00    +0.000 OA
ENDBRANCH   1  16
BRANCH   3  17
ATOM     17  O   UNL     1       1.945  10.348  17.346  0.00  0.00    +0.000 OA
ATOM     18  H   UNL     1       1.925  10.229  16.382  0.00  0.00    +0.000 HD
ENDBRANCH   3  17
BRANCH   8  19
ATOM     19  O   UNL     1       2.098   4.772  21.634  0.00  0.00    +0.000 OA
ATOM     20  H   UNL     1       1.297   5.217  21.295  0.00  0.00    +0.000 HD
ENDBRANCH   8  19
BRANCH  10  21
ATOM     21  O   UNL     1       4.936   1.577  19.558  0.00  0.00    +0.000 OA
ATOM     22  H   UNL     1       5.458   1.475  18.744  0.00  0.00    +0.000 HD
ENDBRANCH  10  21
TORSDOF 4
ENDMDL
MODEL 4
REMARK VINA RESULT:      -6.4      1.338      4.666
REMARK  Name = 
REMARK  5 active torsions:
REMARK  status: ('A' for Active; 'I' for Inactive)
REMARK    1  A    between atoms: C_1  and  O_2
REMARK    2  A    between atoms: O_2  and  C_3
REMARK    3  A    between atoms: C_5  and  O_6
REMARK    4  A    between atoms: C_11  and  O_12
REMARK    5  A    between atoms: C_14  and  O_15
REMARK                            x       y       z     vdW  Elec       q    Type
REMARK                         _______ _______ _______ _____ _____    ______ ____
ROOT
ATOM      1  C   UNL     1       3.871   4.273  17.516  0.00  0.00    +0.000 A 
ATOM      2  C   UNL     1       4.180   2.906  17.380  0.00  0.00    +0.000 A 
ATOM      3  C   UNL     1       3.757   1.970  18.337  0.00  0.00    +0.000 A 
ATOM      4  C   UNL     1       3.022   2.352  19.447  0.00  0.00    +0.000 A 
ATOM      5  C   UNL     1       2.728   3.697  19.557  0.00  0.00    +0.000 A 
ATOM      6  C   UNL     1       3.125   4.677  18.623  0.00  0.00    +0.000 A 
ATOM      7  C   UNL     1       2.625   5.976  19.076  0.00  0.00    +0.000 A 
ATOM      8  C   UNL     1       2.695   7.265  18.570  0.00  0.00    +0.000 A 
ATOM      9  C   UNL     1       2.089   8.323  19.263  0.00  0.00    +0.000 A 
ATOM     10  C   UNL     1       1.414   8.088  20.468  0.00  0.00    +0.000 A 
ATOM     11  C   UNL     1       1.324   6.813  21.004  0.00  0.00    +0.000 A 
ATOM     12  C   UNL     1       1.930   5.794  20.289  0.00  0.00    +0.000 A 
ATOM     13  C   UNL     1       1.972   4.363  20.631  0.00  0.00    +0.000 C 
ATOM     14  O   UNL     1       1.481   3.832  21.604  0.00  0.00    +0.000 OA
ENDROOT
BRANCH   1  16
ATOM     15  C   UNL     1       5.381   4.966  15.801  0.00  0.00    +0.000 C 
ATOM     16  O   UNL     1       4.253   5.243  16.628  0.00  0.00    +0.000 OA
ENDBRANCH   1  16
BRANCH   3  17
ATOM     17  O   UNL     1       4.057   0.645  18.207  0.00  0.00    +0.000 OA
ATOM     18  H   UNL     1       4.238   0.263  19.081  0.00  0.00    +0.000 HD
ENDBRANCH   3  17
BRANCH   8  19
ATOM     19  O   UNL     1       3.328   7.598  17.411  0.00  0.00    +0.000 OA
ATOM     20  H   UNL     1       4.223   7.206  17.434  0.00  0.00    +0.000 HD
ENDBRANCH   8  19
BRANCH  10  21
ATOM     21  O   UNL     1       0.822   9.107  21.155  0.00  0.00    +0.000 OA
ATOM     22  H   UNL     1       1.506   9.744  21.424  0.00  0.00    +0.000 HD
ENDBRANCH  10  21
TORSDOF 4
ENDMDL
MODEL 5
REMARK VINA RESULT:      -6.4      1.299      3.432
REMARK  Name = 
REMARK  5 active torsions:
REMARK  status: ('A' for Active; 'I' for Inactive)
REMARK    1  A    between atoms: C_1  and  O_2
REMARK    2  A    between atoms: O_2  and  C_3
REMARK    3  A    between atoms: C_5  and  O_6
REMARK    4  A    between atoms: C_11  and  O_12
REMARK    5  A    between atoms: C_14  and  O_15
REMARK                            x       y       z     vdW  Elec       q    Type
REMARK                         _______ _______ _______ _____ _____    ______ ____
ROOT
ATOM      1  C   UNL     1       2.768   4.863  19.994  0.00  0.00    +0.000 A 
ATOM      2  C   UNL     1       1.874   5.511  20.867  0.00  0.00    +0.000 A 
ATOM      3  C   UNL     1       1.500   6.848  20.657  0.00  0.00    +0.000 A 
ATOM      4  C   UNL     1       1.994   7.578  19.588  0.00  0.00    +0.000 A 
ATOM      5  C   UNL     1       2.866   6.919  18.744  0.00  0.00    +0.000 A 
ATOM      6  C   UNL     1       3.271   5.579  18.907  0.00  0.00    +0.000 A 
ATOM      7  C   UNL     1       4.189   5.237  17.820  0.00  0.00    +0.000 A 
ATOM      8  C   UNL     1       4.878   4.088  17.466  0.00  0.00    +0.000 A 
ATOM      9  C   UNL     1       5.698   4.086  16.327  0.00  0.00    +0.000 A 
ATOM     10  C   UNL     1       5.831   5.241  15.546  0.00  0.00    +0.000 A 
ATOM     11  C   UNL     1       5.157   6.408  15.870  0.00  0.00    +0.000 A 
ATOM     12  C   UNL     1       4.354   6.370  16.996  0.00  0.00    +0.000 A 
ATOM     13  C   UNL     1       3.533   7.461  17.547  0.00  0.00    +0.000 C 
ATOM     14  O   UNL     1       3.423   8.584  17.105  0.00  0.00    +0.000 OA
ENDROOT
BRANCH   1  16
ATOM     15  C   UNL     1       2.577   2.796  21.174  0.00  0.00    +0.000 C 
ATOM     16  O   UNL     1       3.182   3.566  20.137  0.00  0.00    +0.000 OA
ENDBRANCH   1  16
BRANCH   3  17
ATOM     17  O   UNL     1       0.634   7.479  21.503  0.00  0.00    +0.000 OA
ATOM     18  H   UNL     1      -0.072   6.865  21.765  0.00  0.00    +0.000 HD
ENDBRANCH   3  17
BRANCH   8  19
ATOM     19  O   UNL     1       4.819   2.917  18.159  0.00  0.00    +0.000 OA
ATOM     20  H   UNL     1       5.548   2.346  17.846  0.00  0.00    +0.000 HD
ENDBRANCH   8  19
BRANCH  10  21
ATOM     21  O   UNL     1       6.627   5.254  14.438  0.00  0.00    +0.000 OA
ATOM     22  H   UNL     1       6.068   5.167  13.648  0.00  0.00    +0.000 HD
ENDBRANCH  10  21
TORSDOF 4
ENDMDL
MODEL 6
REMARK VINA RESULT:      -6.4      1.563      3.824
REMARK  Name = 
REMARK  5 active torsions:
REMARK  status: ('A' for Active; 'I' for Inactive)
REMARK    1  A    between atoms: C_1  and  O_2
REMARK    2  A    between atoms: O_2  and  C_3
REMARK    3  A    between atoms: C_5  and  O_6
REMARK    4  A    between atoms: C_11  and  O_12
REMARK    5  A    between atoms: C_14  and  O_15
REMARK                            x       y       z     vdW  Elec       q    Type
REMARK                         _______ _______ _______ _____ _____    ______ ____
ROOT
ATOM      1  C   UNL     1       2.706   3.545  19.996  0.00  0.00    +0.000 A 
ATOM      2  C   UNL     1       3.166   2.229  19.794  0.00  0.00    +0.000 A 
ATOM      3  C   UNL     1       3.934   1.897  18.667  0.00  0.00    +0.000 A 
ATOM      4  C   UNL     1       4.268   2.845  17.714  0.00  0.00    +0.000 A 
ATOM      5  C   UNL     1       3.809   4.128  17.936  0.00  0.00    +0.000 A 
ATOM      6  C   UNL     1       3.038   4.515  19.051  0.00  0.00    +0.000 A 
ATOM      7  C   UNL     1       2.749   5.946  18.939  0.00  0.00    +0.000 A 
ATOM      8  C   UNL     1       2.060   6.854  19.728  0.00  0.00    +0.000 A 
ATOM      9  C   UNL     1       1.968   8.197  19.331  0.00  0.00    +0.000 A 
ATOM     10  C   UNL     1       2.564   8.628  18.139  0.00  0.00    +0.000 A 
ATOM     11  C   UNL     1       3.260   7.747  17.325  0.00  0.00    +0.000 A 
ATOM     12  C   UNL     1       3.335   6.433  17.752  0.00  0.00    +0.000 A 
ATOM     13  C   UNL     1       4.016   5.312  17.084  0.00  0.00    +0.000 C 
ATOM     14  O   UNL     1       4.629   5.352  16.039  0.00  0.00    +0.000 OA
ENDROOT
BRANCH   1  16
ATOM     15  C   UNL     1       1.384   2.920  21.883  0.00  0.00    +0.000 C 
ATOM     16  O   UNL     1       1.950   3.942  21.066  0.00  0.00    +0.000 OA
ENDBRANCH   1  16
BRANCH   3  17
ATOM     17  O   UNL     1       4.380   0.622  18.469  0.00  0.00    +0.000 OA
ATOM     18  H   UNL     1       3.743  -0.009  18.842  0.00  0.00    +0.000 HD
ENDBRANCH   3  17
BRANCH   8  19
ATOM     19  O   UNL     1       1.444   6.537  20.900  0.00  0.00    +0.000 OA
ATOM     20  H   UNL     1       2.126   6.211  21.519  0.00  0.00    +0.000 HD
ENDBRANCH   8  19
BRANCH  10  21
ATOM     21  O   UNL     1       2.479   9.929  17.739  0.00  0.00    +0.000 OA
ATOM     22  H   UNL     1       3.222  10.124  17.144  0.00  0.00    +0.000 HD
ENDBRANCH  10  21
TORSDOF 4
ENDMDL
MODEL 7
REMARK VINA RESULT:      -6.3      2.023      3.520
REMARK  Name = 
REMARK  5 active torsions:
REMARK  status: ('A' for Active; 'I' for Inactive)
REMARK    1  A    between atoms: C_1  and  O_2
REMARK    2  A    between atoms: O_2  and  C_3
REMARK    3  A    between atoms: C_5  and  O_6
REMARK    4  A    between atoms: C_11  and  O_12
REMARK    5  A    between atoms: C_14  and  O_15
REMARK                            x       y       z     vdW  Elec       q    Type
REMARK                         _______ _______ _______ _____ _____    ______ ____
ROOT
ATOM      1  C   UNL     1       3.693   3.031  19.410  0.00  0.00    +0.000 A 
ATOM      2  C   UNL     1       2.419   2.540  19.752  0.00  0.00    +0.000 A 
ATOM      3  C   UNL     1       1.266   3.315  19.548  0.00  0.00    +0.000 A 
ATOM      4  C   UNL     1       1.337   4.588  19.006  0.00  0.00    +0.000 A 
ATOM      5  C   UNL     1       2.598   5.046  18.675  0.00  0.00    +0.000 A 
ATOM      6  C   UNL     1       3.785   4.307  18.855  0.00  0.00    +0.000 A 
ATOM      7  C   UNL     1       4.909   5.118  18.386  0.00  0.00    +0.000 A 
ATOM      8  C   UNL     1       6.278   4.913  18.307  0.00  0.00    +0.000 A 
ATOM      9  C   UNL     1       7.107   5.918  17.786  0.00  0.00    +0.000 A 
ATOM     10  C   UNL     1       6.563   7.132  17.347  0.00  0.00    +0.000 A 
ATOM     11  C   UNL     1       5.199   7.372  17.412  0.00  0.00    +0.000 A 
ATOM     12  C   UNL     1       4.413   6.355  17.926  0.00  0.00    +0.000 A 
ATOM     13  C   UNL     1       2.950   6.353  18.093  0.00  0.00    +0.000 C 
ATOM     14  O   UNL     1       2.183   7.247  17.807  0.00  0.00    +0.000 OA
ENDROOT
BRANCH   1  16
ATOM     15  C   UNL     1       4.963   1.510  20.741  0.00  0.00    +0.000 C 
ATOM     16  O   UNL     1       4.860   2.336  19.583  0.00  0.00    +0.000 OA
ENDBRANCH   1  16
BRANCH   3  17
ATOM     17  O   UNL     1       0.030   2.841  19.879  0.00  0.00    +0.000 OA
ATOM     18  H   UNL     1      -0.614   3.104  19.201  0.00  0.00    +0.000 HD
ENDBRANCH   3  17
BRANCH   8  19
ATOM     19  O   UNL     1       6.905   3.773  18.708  0.00  0.00    +0.000 OA
ATOM     20  H   UNL     1       6.260   3.041  18.656  0.00  0.00    +0.000 HD
ENDBRANCH   8  19
BRANCH  10  21
ATOM     21  O   UNL     1       7.357   8.119  16.841  0.00  0.00    +0.000 OA
ATOM     22  H   UNL     1       8.053   8.325  17.488  0.00  0.00    +0.000 HD
ENDBRANCH  10  21
TORSDOF 4
ENDMDL
MODEL 8
REMARK VINA RESULT:      -6.2      1.041      1.041
REMARK  Name = 
REMARK  5 active torsions:
REMARK  status: ('A' for Active; 'I' for Inactive)
REMARK    1  A    between atoms: C_1  and  O_2
REMARK    2  A    between atoms: O_2  and  C_3
REMARK    3  A    between atoms: C_5  and  O_6
REMARK    4  A    between atoms: C_11  and  O_12
REMARK    5  A    between atoms: C_14  and  O_15
REMARK                            x       y       z     vdW  Elec       q    Type
REMARK                         _______ _______ _______ _____ _____    ______ ____
ROOT
ATOM      1  C   UNL     1       2.132   5.648  19.919  0.00  0.00    +0.000 A 
ATOM      2  C   UNL     1       1.382   4.925  20.865  0.00  0.00    +0.000 A 
ATOM      3  C   UNL     1       1.733   3.611  21.215  0.00  0.00    +0.000 A 
ATOM      4  C   UNL     1       2.826   2.979  20.646  0.00  0.00    +0.000 A 
ATOM      5  C   UNL     1       3.548   3.710  19.723  0.00  0.00    +0.000 A 
ATOM      6  C   UNL     1       3.241   5.031  19.340  0.00  0.00    +0.000 A 
ATOM      7  C   UNL     1       4.229   5.468  18.352  0.00  0.00    +0.000 A 
ATOM      8  C   UNL     1       4.434   6.645  17.649  0.00  0.00    +0.000 A 
ATOM      9  C   UNL     1       5.509   6.748  16.754  0.00  0.00    +0.000 A 
ATOM     10  C   UNL     1       6.378   5.666  16.561  0.00  0.00    +0.000 A 
ATOM     11  C   UNL     1       6.204   4.474  17.247  0.00  0.00    +0.000 A 
ATOM     12  C   UNL     1       5.136   4.412  18.125  0.00  0.00    +0.000 A 
ATOM     13  C   UNL     1       4.740   3.277  18.974  0.00  0.00    +0.000 C 
ATOM     14  O   UNL     1       5.285   2.196  19.045  0.00  0.00    +0.000 OA
ENDROOT
BRANCH   1  16
ATOM     15  C   UNL     1       1.585   7.886  20.548  0.00  0.00    +0.000 C 
ATOM     16  O   UNL     1       1.848   6.928  19.525  0.00  0.00    +0.000 OA
ENDBRANCH   1  16
BRANCH   3  17
ATOM     17  O   UNL     1       1.007   2.908  22.133  0.00  0.00    +0.000 OA
ATOM     18  H   UNL     1       0.227   3.423  22.397  0.00  0.00    +0.000 HD
ENDBRANCH   3  17
BRANCH   8  19
ATOM     19  O   UNL     1       3.646   7.750  17.762  0.00  0.00    +0.000 OA
ATOM     20  H   UNL     1       2.733   7.451  17.939  0.00  0.00    +0.000 HD
ENDBRANCH   8  19
BRANCH  10  21
ATOM     21  O   UNL     1       7.426   5.750  15.692  0.00  0.00    +0.000 OA
ATOM     22  H   UNL     1       7.373   5.011  15.063  0.00  0.00    +0.000 HD
ENDBRANCH  10  21
TORSDOF 4
ENDMDL
MODEL 9
REMARK VINA RESULT:      -6.2      1.706      5.507
REMARK  Name = 
REMARK  5 active torsions:
REMARK  status: ('A' for Active; 'I' for Inactive)
REMARK    1  A    between atoms: C_1  and  O_2
REMARK    2  A    between atoms: O_2  and  C_3
REMARK    3  A    between atoms: C_5  and  O_6
REMARK    4  A    between atoms: C_11  and  O_12
REMARK    5  A    between atoms: C_14  and  O_15
REMARK                            x       y       z     vdW  Elec       q    Type
REMARK                         _______ _______ _______ _____ _____    ______ ____
ROOT
ATOM      1  C   UNL     1       3.882   6.564  17.592  0.00  0.00    +0.000 A 
ATOM      2  C   UNL     1       3.579   7.857  17.124  0.00  0.00    +0.000 A 
ATOM      3  C   UNL     1       2.630   8.659  17.778  0.00  0.00    +0.000 A 
ATOM      4  C   UNL     1       1.957   8.212  18.903  0.00  0.00    +0.000 A 
ATOM      5  C   UNL     1       2.274   6.943  19.346  0.00  0.00    +0.000 A 
ATOM      6  C   UNL     1       3.221   6.099  18.729  0.00  0.00    +0.000 A 
ATOM      7  C   UNL     1       3.284   4.846  19.484  0.00  0.00    +0.000 A 
ATOM      8  C   UNL     1       4.025   3.682  19.356  0.00  0.00    +0.000 A 
ATOM      9  C   UNL     1       3.848   2.636  20.275  0.00  0.00    +0.000 A 
ATOM     10  C   UNL     1       2.924   2.758  21.321  0.00  0.00    +0.000 A 
ATOM     11  C   UNL     1       2.166   3.908  21.478  0.00  0.00    +0.000 A 
ATOM     12  C   UNL     1       2.371   4.919  20.556  0.00  0.00    +0.000 A 
ATOM     13  C   UNL     1       1.708   6.233  20.506  0.00  0.00    +0.000 C 
ATOM     14  O   UNL     1       0.863   6.651  21.267  0.00  0.00    +0.000 OA
ENDROOT
BRANCH   1  16
ATOM     15  C   UNL     1       5.261   6.074  15.706  0.00  0.00    +0.000 C 
ATOM     16  O   UNL     1       4.789   5.724  17.006  0.00  0.00    +0.000 OA
ENDBRANCH   1  16
BRANCH   3  17
ATOM     17  O   UNL     1       2.335   9.912  17.325  0.00  0.00    +0.000 OA
ATOM     18  H   UNL     1       2.168  10.502  18.079  0.00  0.00    +0.000 HD
ENDBRANCH   3  17
BRANCH   8  19
ATOM     19  O   UNL     1       4.944   3.463  18.376  0.00  0.00    +0.000 OA
ATOM     20  H   UNL     1       4.461   3.265  17.550  0.00  0.00    +0.000 HD
ENDBRANCH   8  19
BRANCH  10  21
ATOM     21  O   UNL     1       2.739   1.749  22.219  0.00  0.00    +0.000 OA
ATOM     22  H   UNL     1       2.001   1.981  22.807  0.00  0.00    +0.000 HD
ENDBRANCH  10  21
TORSDOF 4
ENDMDL
