MODEL 1
REMARK VINA RESULT:      -8.5      0.000      0.000
REMARK  Name = 
REMARK  4 active torsions:
REMARK  status: ('A' for Active; 'I' for Inactive)
REMARK    1  A    between atoms: N_2  and  C_4
REMARK    2  A    between atoms: C_9  and  C_10
REMARK    3  A    between atoms: C_11  and  C_12
REMARK    4  A    between atoms: C_21  and  O_22
REMARK                            x       y       z     vdW  Elec       q    Type
REMARK                         _______ _______ _______ _____ _____    ______ ____
ROOT
ATOM      1  C   UNL     1       2.204   8.015  18.733  0.00  0.00    +0.000 A 
ATOM      2  C   UNL     1       2.105   7.478  20.003  0.00  0.00    +0.000 A 
ATOM      3  C   UNL     1       1.340   8.123  20.962  0.00  0.00    +0.000 A 
ATOM      4  C   UNL     1       0.787   9.382  20.712  0.00  0.00    +0.000 A 
ATOM      5  C   UNL     1       0.104  10.101  21.732  0.00  0.00    +0.000 A 
ATOM      6 CL   UNL     1      -0.203   9.424  23.301  0.00  0.00    +0.000 Cl
ATOM      7  C   UNL     1      -0.301  11.410  21.536  0.00  0.00    +0.000 A 
ATOM      8  C   UNL     1      -0.063  11.998  20.307  0.00  0.00    +0.000 A 
ATOM      9 CL   UNL     1      -0.481  13.660  20.101  0.00  0.00    +0.000 Cl
ATOM     10  C   UNL     1       0.547  11.271  19.265  0.00  0.00    +0.000 A 
ATOM     11  C   UNL     1       1.004   9.942  19.429  0.00  0.00    +0.000 A 
ATOM     12  N   UNL     1       1.667   9.228  18.446  0.00  0.00    +0.000 NA
ENDROOT
BRANCH   1  14
ATOM     13  C   UNL     1       3.878   6.310  18.005  0.00  0.00    +0.000 C 
ATOM     14  C   UNL     1       3.047   7.334  17.709  0.00  0.00    +0.000 C 
BRANCH  13  20
ATOM     15  C   UNL     1       6.049   5.051  17.715  0.00  0.00    +0.000 A 
ATOM     16  C   UNL     1       7.099   4.540  16.933  0.00  0.00    +0.000 A 
ATOM     17  C   UNL     1       7.084   4.757  15.562  0.00  0.00    +0.000 A 
ATOM     18  C   UNL     1       6.026   5.471  14.988  0.00  0.00    +0.000 A 
ATOM     19  C   UNL     1       4.991   5.997  15.783  0.00  0.00    +0.000 A 
ATOM     20  C   UNL     1       4.991   5.810  17.170  0.00  0.00    +0.000 A 
BRANCH  15  22
ATOM     21  O   UNL     1       6.752   5.371  19.890  0.00  0.00    +0.000 OA
ATOM     22  N   UNL     1       6.045   4.694  19.125  0.00  0.00    +0.000 N 
ATOM     23  O   UNL     1       5.384   3.696  19.457  0.00  0.00    +0.000 OA
ENDBRANCH  15  22
ENDBRANCH  13  20
ENDBRANCH   1  14
BRANCH  10  24
ATOM     24  O   UNL     1       0.752  11.903  18.054  0.00  0.00    +0.000 OA
ATOM     25  H   UNL     1       1.368  12.645  18.203  0.00  0.00    +0.000 HD
ENDBRANCH  10  24
TORSDOF 4
ENDMDL
MODEL 2
REMARK VINA RESULT:      -8.1      1.419      1.619
REMARK  Name = 
REMARK  4 active torsions:
REMARK  status: ('A' for Active; 'I' for Inactive)
REMARK    1  A    between atoms: N_2  and  C_4
REMARK    2  A    between atoms: C_9  and  C_10
REMARK    3  A    between atoms: C_11  and  C_12
REMARK    4  A    between atoms: C_21  and  O_22
REMARK                            x       y       z     vdW  Elec       q    Type
REMARK                         _______ _______ _______ _____ _____    ______ ____
ROOT
ATOM      1  C   UNL     1       2.429   7.101  19.047  0.00  0.00    +0.000 A 
ATOM      2  C   UNL     1       1.978   6.805  20.319  0.00  0.00    +0.000 A 
ATOM      3  C   UNL     1       1.186   7.720  20.995  0.00  0.00    +0.000 A 
ATOM      4  C   UNL     1       0.956   8.996  20.473  0.00  0.00    +0.000 A 
ATOM      5  C   UNL     1       0.246   9.979  21.216  0.00  0.00    +0.000 A 
ATOM      6 CL   UNL     1      -0.491   9.632  22.750  0.00  0.00    +0.000 Cl
ATOM      7  C   UNL     1       0.158  11.287  20.773  0.00  0.00    +0.000 A 
ATOM      8  C   UNL     1       0.745  11.615  19.564  0.00  0.00    +0.000 A 
ATOM      9 CL   UNL     1       0.718  13.267  19.063  0.00  0.00    +0.000 Cl
ATOM     10  C   UNL     1       1.388  10.634  18.784  0.00  0.00    +0.000 A 
ATOM     11  C   UNL     1       1.528   9.291  19.210  0.00  0.00    +0.000 A 
ATOM     12  N   UNL     1       2.213   8.324  18.497  0.00  0.00    +0.000 NA
ENDROOT
BRANCH   1  14
ATOM     13  C   UNL     1       4.492   6.469  17.789  0.00  0.00    +0.000 C 
ATOM     14  C   UNL     1       3.302   6.128  18.330  0.00  0.00    +0.000 C 
BRANCH  13  20
ATOM     15  C   UNL     1       6.646   5.863  16.617  0.00  0.00    +0.000 A 
ATOM     16  C   UNL     1       7.392   5.121  15.685  0.00  0.00    +0.000 A 
ATOM     17  C   UNL     1       6.746   4.165  14.913  0.00  0.00    +0.000 A 
ATOM     18  C   UNL     1       5.373   3.955  15.082  0.00  0.00    +0.000 A 
ATOM     19  C   UNL     1       4.631   4.718  16.003  0.00  0.00    +0.000 A 
ATOM     20  C   UNL     1       5.254   5.703  16.780  0.00  0.00    +0.000 A 
BRANCH  15  22
ATOM     21  O   UNL     1       7.559   7.929  17.090  0.00  0.00    +0.000 OA
ATOM     22  N   UNL     1       7.388   6.764  17.485  0.00  0.00    +0.000 N 
ATOM     23  O   UNL     1       7.855   6.288  18.533  0.00  0.00    +0.000 OA
ENDBRANCH  15  22
ENDBRANCH  13  20
ENDBRANCH   1  14
BRANCH  10  24
ATOM     24  O   UNL     1       1.948  11.013  17.580  0.00  0.00    +0.000 OA
ATOM     25  H   UNL     1       2.312  10.215  17.153  0.00  0.00    +0.000 HD
ENDBRANCH  10  24
TORSDOF 4
ENDMDL
MODEL 3
REMARK VINA RESULT:      -8.1      1.443      1.637
REMARK  Name = 
REMARK  4 active torsions:
REMARK  status: ('A' for Active; 'I' for Inactive)
REMARK    1  A    between atoms: N_2  and  C_4
REMARK    2  A    between atoms: C_9  and  C_10
REMARK    3  A    between atoms: C_11  and  C_12
REMARK    4  A    between atoms: C_21  and  O_22
REMARK                            x       y       z     vdW  Elec       q    Type
REMARK                         _______ _______ _______ _____ _____    ______ ____
ROOT
ATOM      1  C   UNL     1       1.880   8.356  18.878  0.00  0.00    +0.000 A 
ATOM      2  C   UNL     1       1.835   7.874  20.173  0.00  0.00    +0.000 A 
ATOM      3  C   UNL     1       1.058   8.524  21.119  0.00  0.00    +0.000 A 
ATOM      4  C   UNL     1       0.436   9.741  20.825  0.00  0.00    +0.000 A 
ATOM      5  C   UNL     1      -0.261  10.472  21.827  0.00  0.00    +0.000 A 
ATOM      6 CL   UNL     1      -0.501   9.854  23.432  0.00  0.00    +0.000 Cl
ATOM      7  C   UNL     1      -0.736  11.748  21.581  0.00  0.00    +0.000 A 
ATOM      8  C   UNL     1      -0.554  12.289  20.321  0.00  0.00    +0.000 A 
ATOM      9 CL   UNL     1      -1.060  13.917  20.049  0.00  0.00    +0.000 Cl
ATOM     10  C   UNL     1       0.071  11.546  19.300  0.00  0.00    +0.000 A 
ATOM     11  C   UNL     1       0.598  10.250  19.513  0.00  0.00    +0.000 A 
ATOM     12  N   UNL     1       1.276   9.526  18.548  0.00  0.00    +0.000 NA
ENDROOT
BRANCH   1  14
ATOM     13  C   UNL     1       3.051   6.359  17.939  0.00  0.00    +0.000 C 
ATOM     14  C   UNL     1       2.736   7.671  17.867  0.00  0.00    +0.000 C 
BRANCH  13  20
ATOM     15  C   UNL     1       4.206   4.269  17.117  0.00  0.00    +0.000 A 
ATOM     16  C   UNL     1       5.221   3.601  16.410  0.00  0.00    +0.000 A 
ATOM     17  C   UNL     1       6.187   4.350  15.751  0.00  0.00    +0.000 A 
ATOM     18  C   UNL     1       6.128   5.747  15.799  0.00  0.00    +0.000 A 
ATOM     19  C   UNL     1       5.121   6.406  16.529  0.00  0.00    +0.000 A 
ATOM     20  C   UNL     1       4.145   5.675  17.218  0.00  0.00    +0.000 A 
BRANCH  15  22
ATOM     21  O   UNL     1       3.335   2.981  18.823  0.00  0.00    +0.000 OA
ATOM     22  N   UNL     1       3.150   3.446  17.685  0.00  0.00    +0.000 N 
ATOM     23  O   UNL     1       2.164   3.211  16.968  0.00  0.00    +0.000 OA
ENDBRANCH  15  22
ENDBRANCH  13  20
ENDBRANCH   1  14
BRANCH  10  24
ATOM     24  O   UNL     1       0.218  12.131  18.057  0.00  0.00    +0.000 OA
ATOM     25  H   UNL     1       0.692  12.975  18.177  0.00  0.00    +0.000 HD
ENDBRANCH  10  24
TORSDOF 4
ENDMDL
MODEL 4
REMARK VINA RESULT:      -8.0      2.389      3.354
REMARK  Name = 
REMARK  4 active torsions:
REMARK  status: ('A' for Active; 'I' for Inactive)
REMARK    1  A    between atoms: N_2  and  C_4
REMARK    2  A    between atoms: C_9  and  C_10
REMARK    3  A    between atoms: C_11  and  C_12
REMARK    4  A    between atoms: C_21  and  O_22
REMARK                            x       y       z     vdW  Elec       q    Type
REMARK                         _______ _______ _______ _____ _____    ______ ____
ROOT
ATOM      1  C   UNL     1       1.683   8.327  19.675  0.00  0.00    +0.000 A 
ATOM      2  C   UNL     1       1.625   9.152  18.568  0.00  0.00    +0.000 A 
ATOM      3  C   UNL     1       1.036  10.402  18.674  0.00  0.00    +0.000 A 
ATOM      4  C   UNL     1       0.370  10.785  19.841  0.00  0.00    +0.000 A 
ATOM      5  C   UNL     1      -0.340  12.016  19.914  0.00  0.00    +0.000 A 
ATOM      6 CL   UNL     1      -0.322  13.177  18.622  0.00  0.00    +0.000 Cl
ATOM      7  C   UNL     1      -1.132  12.323  21.006  0.00  0.00    +0.000 A 
ATOM      8  C   UNL     1      -1.191  11.420  22.052  0.00  0.00    +0.000 A 
ATOM      9 CL   UNL     1      -2.257  11.761  23.367  0.00  0.00    +0.000 Cl
ATOM     10  C   UNL     1      -0.436  10.231  22.024  0.00  0.00    +0.000 A 
ATOM     11  C   UNL     1       0.364   9.862  20.917  0.00  0.00    +0.000 A 
ATOM     12  N   UNL     1       1.062   8.670  20.833  0.00  0.00    +0.000 NA
ENDROOT
BRANCH   1  14
ATOM     13  C   UNL     1       2.382   6.309  18.380  0.00  0.00    +0.000 C 
ATOM     14  C   UNL     1       2.294   6.972  19.554  0.00  0.00    +0.000 C 
BRANCH  13  20
ATOM     15  C   UNL     1       3.940   4.341  18.099  0.00  0.00    +0.000 A 
ATOM     16  C   UNL     1       4.200   2.967  17.960  0.00  0.00    +0.000 A 
ATOM     17  C   UNL     1       3.135   2.076  17.959  0.00  0.00    +0.000 A 
ATOM     18  C   UNL     1       1.830   2.562  18.102  0.00  0.00    +0.000 A 
ATOM     19  C   UNL     1       1.579   3.942  18.218  0.00  0.00    +0.000 A 
ATOM     20  C   UNL     1       2.633   4.863  18.202  0.00  0.00    +0.000 A 
BRANCH  15  22
ATOM     21  O   UNL     1       5.534   5.731  17.173  0.00  0.00    +0.000 OA
ATOM     22  N   UNL     1       5.093   5.220  18.217  0.00  0.00    +0.000 N 
ATOM     23  O   UNL     1       5.597   5.348  19.344  0.00  0.00    +0.000 OA
ENDBRANCH  15  22
ENDBRANCH  13  20
ENDBRANCH   1  14
BRANCH  10  24
ATOM     24  O   UNL     1      -0.524   9.370  23.101  0.00  0.00    +0.000 OA
ATOM     25  H   UNL     1      -1.404   9.486  23.506  0.00  0.00    +0.000 HD
ENDBRANCH  10  24
TORSDOF 4
ENDMDL
MODEL 5
REMARK VINA RESULT:      -8.0      3.768      8.170
REMARK  Name = 
REMARK  4 active torsions:
REMARK  status: ('A' for Active; 'I' for Inactive)
REMARK    1  A    between atoms: N_2  and  C_4
REMARK    2  A    between atoms: C_9  and  C_10
REMARK    3  A    between atoms: C_11  and  C_12
REMARK    4  A    between atoms: C_21  and  O_22
REMARK                            x       y       z     vdW  Elec       q    Type
REMARK                         _______ _______ _______ _____ _____    ______ ____
ROOT
ATOM      1  C   UNL     1       2.524   7.856  18.469  0.00  0.00    +0.000 A 
ATOM      2  C   UNL     1       2.320   6.879  19.425  0.00  0.00    +0.000 A 
ATOM      3  C   UNL     1       3.130   5.754  19.439  0.00  0.00    +0.000 A 
ATOM      4  C   UNL     1       4.052   5.520  18.415  0.00  0.00    +0.000 A 
ATOM      5  C   UNL     1       4.799   4.311  18.359  0.00  0.00    +0.000 A 
ATOM      6 CL   UNL     1       4.719   3.109  19.610  0.00  0.00    +0.000 Cl
ATOM      7  C   UNL     1       5.589   4.007  17.264  0.00  0.00    +0.000 A 
ATOM      8  C   UNL     1       5.670   4.926  16.234  0.00  0.00    +0.000 A 
ATOM      9 CL   UNL     1       6.577   4.500  14.827  0.00  0.00    +0.000 Cl
ATOM     10  C   UNL     1       4.993   6.159  16.311  0.00  0.00    +0.000 A 
ATOM     11  C   UNL     1       4.151   6.500  17.396  0.00  0.00    +0.000 A 
ATOM     12  N   UNL     1       3.421   7.673  17.466  0.00  0.00    +0.000 NA
ENDROOT
BRANCH   1  14
ATOM     13  C   UNL     1       0.834   9.399  19.470  0.00  0.00    +0.000 C 
ATOM     14  C   UNL     1       1.636   9.053  18.439  0.00  0.00    +0.000 C 
BRANCH  13  20
ATOM     15  C   UNL     1      -0.536  11.296  20.421  0.00  0.00    +0.000 A 
ATOM     16  C   UNL     1      -1.604  12.208  20.375  0.00  0.00    +0.000 A 
ATOM     17  C   UNL     1      -2.462  12.185  19.284  0.00  0.00    +0.000 A 
ATOM     18  C   UNL     1      -2.244  11.263  18.254  0.00  0.00    +0.000 A 
ATOM     19  C   UNL     1      -1.184  10.339  18.321  0.00  0.00    +0.000 A 
ATOM     20  C   UNL     1      -0.315  10.328  19.419  0.00  0.00    +0.000 A 
BRANCH  15  22
ATOM     21  O   UNL     1       0.128  10.872  22.591  0.00  0.00    +0.000 OA
ATOM     22  N   UNL     1       0.405  11.440  21.522  0.00  0.00    +0.000 N 
ATOM     23  O   UNL     1       1.389  12.175  21.336  0.00  0.00    +0.000 OA
ENDBRANCH  15  22
ENDBRANCH  13  20
ENDBRANCH   1  14
BRANCH  10  24
ATOM     24  O   UNL     1       5.118   7.045  15.259  0.00  0.00    +0.000 OA
ATOM     25  H   UNL     1       5.182   7.945  15.630  0.00  0.00    +0.000 HD
ENDBRANCH  10  24
TORSDOF 4
ENDMDL
MODEL 6
REMARK VINA RESULT:      -7.9      0.884      1.140
REMARK  Name = 
REMARK  4 active torsions:
REMARK  status: ('A' for Active; 'I' for Inactive)
REMARK    1  A    between atoms: N_2  and  C_4
REMARK    2  A    between atoms: C_9  and  C_10
REMARK    3  A    between atoms: C_11  and  C_12
REMARK    4  A    between atoms: C_21  and  O_22
REMARK                            x       y       z     vdW  Elec       q    Type
REMARK                         _______ _______ _______ _____ _____    ______ ____
ROOT
ATOM      1  C   UNL     1       2.272   8.100  18.526  0.00  0.00    +0.000 A 
ATOM      2  C   UNL     1       1.783   7.743  19.769  0.00  0.00    +0.000 A 
ATOM      3  C   UNL     1       1.101   8.679  20.531  0.00  0.00    +0.000 A 
ATOM      4  C   UNL     1       1.025  10.015  20.129  0.00  0.00    +0.000 A 
ATOM      5  C   UNL     1       0.432  11.002  20.964  0.00  0.00    +0.000 A 
ATOM      6 CL   UNL     1      -0.348  10.605  22.464  0.00  0.00    +0.000 Cl
ATOM      7  C   UNL     1       0.501  12.347  20.643  0.00  0.00    +0.000 A 
ATOM      8  C   UNL     1       1.128  12.713  19.466  0.00  0.00    +0.000 A 
ATOM      9 CL   UNL     1       1.297  14.396  19.120  0.00  0.00    +0.000 Cl
ATOM     10  C   UNL     1       1.655  11.739  18.596  0.00  0.00    +0.000 A 
ATOM     11  C   UNL     1       1.634  10.356  18.896  0.00  0.00    +0.000 A 
ATOM     12  N   UNL     1       2.204   9.385  18.092  0.00  0.00    +0.000 NA
ENDROOT
BRANCH   1  14
ATOM     13  C   UNL     1       4.266   6.673  18.050  0.00  0.00    +0.000 C 
ATOM     14  C   UNL     1       3.028   7.101  17.718  0.00  0.00    +0.000 C 
BRANCH  13  20
ATOM     15  C   UNL     1       6.183   5.073  17.667  0.00  0.00    +0.000 A 
ATOM     16  C   UNL     1       7.083   4.381  16.838  0.00  0.00    +0.000 A 
ATOM     17  C   UNL     1       7.011   4.565  15.464  0.00  0.00    +0.000 A 
ATOM     18  C   UNL     1       6.044   5.428  14.934  0.00  0.00    +0.000 A 
ATOM     19  C   UNL     1       5.162   6.133  15.774  0.00  0.00    +0.000 A 
ATOM     20  C   UNL     1       5.226   5.980  17.164  0.00  0.00    +0.000 A 
BRANCH  15  22
ATOM     21  O   UNL     1       5.485   3.832  19.484  0.00  0.00    +0.000 OA
ATOM     22  N   UNL     1       6.217   4.754  19.086  0.00  0.00    +0.000 N 
ATOM     23  O   UNL     1       6.927   5.467  19.812  0.00  0.00    +0.000 OA
ENDBRANCH  15  22
ENDBRANCH  13  20
ENDBRANCH   1  14
BRANCH  10  24
ATOM     24  O   UNL     1       2.261  12.160  17.428  0.00  0.00    +0.000 OA
ATOM     25  H   UNL     1       2.704  11.389  17.025  0.00  0.00    +0.000 HD
ENDBRANCH  10  24
TORSDOF 4
ENDMDL
MODEL 7
REMARK VINA RESULT:      -7.9      2.154      2.611
REMARK  Name = 
REMARK  4 active torsions:
REMARK  status: ('A' for Active; 'I' for Inactive)
REMARK    1  A    between atoms: N_2  and  C_4
REMARK    2  A    between atoms: C_9  and  C_10
REMARK    3  A    between atoms: C_11  and  C_12
REMARK    4  A    between atoms: C_21  and  O_22
REMARK                            x       y       z     vdW  Elec       q    Type
REMARK                         _______ _______ _______ _____ _____    ______ ____
ROOT
ATOM      1  C   UNL     1       1.685   9.274  18.518  0.00  0.00    +0.000 A 
ATOM      2  C   UNL     1       1.110   9.008  19.746  0.00  0.00    +0.000 A 
ATOM      3  C   UNL     1       0.573  10.046  20.491  0.00  0.00    +0.000 A 
ATOM      4  C   UNL     1       0.732  11.376  20.090  0.00  0.00    +0.000 A 
ATOM      5  C   UNL     1       0.290  12.450  20.910  0.00  0.00    +0.000 A 
ATOM      6 CL   UNL     1      -0.586  12.193  22.387  0.00  0.00    +0.000 Cl
ATOM      7  C   UNL     1       0.591  13.763  20.594  0.00  0.00    +0.000 A 
ATOM      8  C   UNL     1       1.302  14.016  19.435  0.00  0.00    +0.000 A 
ATOM      9 CL   UNL     1       1.760  15.647  19.096  0.00  0.00    +0.000 Cl
ATOM     10  C   UNL     1       1.683  12.966  18.577  0.00  0.00    +0.000 A 
ATOM     11  C   UNL     1       1.423  11.607  18.874  0.00  0.00    +0.000 A 
ATOM     12  N   UNL     1       1.844  10.551  18.085  0.00  0.00    +0.000 NA
ENDROOT
BRANCH   1  14
ATOM     13  C   UNL     1       2.734   7.018  18.294  0.00  0.00    +0.000 C 
ATOM     14  C   UNL     1       2.285   8.161  17.729  0.00  0.00    +0.000 C 
BRANCH  13  20
ATOM     15  C   UNL     1       3.323   4.656  17.623  0.00  0.00    +0.000 A 
ATOM     16  C   UNL     1       4.159   3.704  17.015  0.00  0.00    +0.000 A 
ATOM     17  C   UNL     1       5.335   4.129  16.411  0.00  0.00    +0.000 A 
ATOM     18  C   UNL     1       5.658   5.491  16.414  0.00  0.00    +0.000 A 
ATOM     19  C   UNL     1       4.824   6.433  17.045  0.00  0.00    +0.000 A 
ATOM     20  C   UNL     1       3.643   6.028  17.679  0.00  0.00    +0.000 A 
BRANCH  15  22
ATOM     21  O   UNL     1       2.009   3.794  19.315  0.00  0.00    +0.000 OA
ATOM     22  N   UNL     1       2.047   4.179  18.134  0.00  0.00    +0.000 N 
ATOM     23  O   UNL     1       1.098   4.128  17.335  0.00  0.00    +0.000 OA
ENDBRANCH  15  22
ENDBRANCH  13  20
ENDBRANCH   1  14
BRANCH  10  24
ATOM     24  O   UNL     1       2.382  13.276  17.427  0.00  0.00    +0.000 OA
ATOM     25  H   UNL     1       2.543  14.238  17.424  0.00  0.00    +0.000 HD
ENDBRANCH  10  24
TORSDOF 4
ENDMDL
MODEL 8
REMARK VINA RESULT:      -7.9      1.494      2.389
REMARK  Name = 
REMARK  4 active torsions:
REMARK  status: ('A' for Active; 'I' for Inactive)
REMARK    1  A    between atoms: N_2  and  C_4
REMARK    2  A    between atoms: C_9  and  C_10
REMARK    3  A    between atoms: C_11  and  C_12
REMARK    4  A    between atoms: C_21  and  O_22
REMARK                            x       y       z     vdW  Elec       q    Type
REMARK                         _______ _______ _______ _____ _____    ______ ____
ROOT
ATOM      1  C   UNL     1       2.175   8.148  18.433  0.00  0.00    +0.000 A 
ATOM      2  C   UNL     1       1.548   8.896  17.455  0.00  0.00    +0.000 A 
ATOM      3  C   UNL     1       0.724   9.950  17.821  0.00  0.00    +0.000 A 
ATOM      4  C   UNL     1       0.402  10.177  19.161  0.00  0.00    +0.000 A 
ATOM      5  C   UNL     1      -0.537  11.179  19.533  0.00  0.00    +0.000 A 
ATOM      6 CL   UNL     1      -1.242  12.267  18.377  0.00  0.00    +0.000 Cl
ATOM      7  C   UNL     1      -0.979  11.297  20.839  0.00  0.00    +0.000 A 
ATOM      8  C   UNL     1      -0.458  10.441  21.792  0.00  0.00    +0.000 A 
ATOM      9 CL   UNL     1      -1.085  10.527  23.398  0.00  0.00    +0.000 Cl
ATOM     10  C   UNL     1       0.525   9.493  21.450  0.00  0.00    +0.000 A 
ATOM     11  C   UNL     1       0.986   9.316  20.123  0.00  0.00    +0.000 A 
ATOM     12  N   UNL     1       1.900   8.348  19.748  0.00  0.00    +0.000 NA
ENDROOT
BRANCH   1  14
ATOM     13  C   UNL     1       4.339   7.141  17.695  0.00  0.00    +0.000 C 
ATOM     14  C   UNL     1       3.040   6.999  18.040  0.00  0.00    +0.000 C 
BRANCH  13  20
ATOM     15  C   UNL     1       5.887   5.146  17.640  0.00  0.00    +0.000 A 
ATOM     16  C   UNL     1       6.659   4.185  16.964  0.00  0.00    +0.000 A 
ATOM     17  C   UNL     1       6.693   4.203  15.576  0.00  0.00    +0.000 A 
ATOM     18  C   UNL     1       5.958   5.171  14.881  0.00  0.00    +0.000 A 
ATOM     19  C   UNL     1       5.207   6.143  15.568  0.00  0.00    +0.000 A 
ATOM     20  C   UNL     1       5.170   6.159  16.968  0.00  0.00    +0.000 A 
BRANCH  15  22
ATOM     21  O   UNL     1       6.721   5.455  19.770  0.00  0.00    +0.000 OA
ATOM     22  N   UNL     1       5.785   5.010  19.084  0.00  0.00    +0.000 N 
ATOM     23  O   UNL     1       4.799   4.401  19.530  0.00  0.00    +0.000 OA
ENDBRANCH  15  22
ENDBRANCH  13  20
ENDBRANCH   1  14
BRANCH  10  24
ATOM     24  O   UNL     1       1.020   8.670  22.443  0.00  0.00    +0.000 OA
ATOM     25  H   UNL     1       1.284   7.826  22.030  0.00  0.00    +0.000 HD
ENDBRANCH  10  24
TORSDOF 4
ENDMDL
MODEL 9
REMARK VINA RESULT:      -7.9      1.028      1.124
REMARK  Name = 
REMARK  4 active torsions:
REMARK  status: ('A' for Active; 'I' for Inactive)
REMARK    1  A    between atoms: N_2  and  C_4
REMARK    2  A    between atoms: C_9  and  C_10
REMARK    3  A    between atoms: C_11  and  C_12
REMARK    4  A    between atoms: C_21  and  O_22
REMARK                            x       y       z     vdW  Elec       q    Type
REMARK                         _______ _______ _______ _____ _____    ______ ____
ROOT
ATOM      1  C   UNL     1       2.041   7.370  19.175  0.00  0.00    +0.000 A 
ATOM      2  C   UNL     1       1.682   7.099  20.481  0.00  0.00    +0.000 A 
ATOM      3  C   UNL     1       1.027   8.066  21.227  0.00  0.00    +0.000 A 
ATOM      4  C   UNL     1       0.853   9.361  20.730  0.00  0.00    +0.000 A 
ATOM      5  C   UNL     1       0.291  10.390  21.536  0.00  0.00    +0.000 A 
ATOM      6 CL   UNL     1      -0.333  10.087  23.128  0.00  0.00    +0.000 Cl
ATOM      7  C   UNL     1       0.268  11.705  21.106  0.00  0.00    +0.000 A 
ATOM      8  C   UNL     1       0.770  11.997  19.851  0.00  0.00    +0.000 A 
ATOM      9 CL   UNL     1       0.829  13.651  19.358  0.00  0.00    +0.000 Cl
ATOM     10  C   UNL     1       1.263  10.976  19.014  0.00  0.00    +0.000 A 
ATOM     11  C   UNL     1       1.333   9.623  19.423  0.00  0.00    +0.000 A 
ATOM     12  N   UNL     1       1.874   8.612  18.649  0.00  0.00    +0.000 NA
ENDROOT
BRANCH   1  14
ATOM     13  C   UNL     1       4.081   6.436  18.078  0.00  0.00    +0.000 C 
ATOM     14  C   UNL     1       2.768   6.339  18.381  0.00  0.00    +0.000 C 
BRANCH  13  20
ATOM     15  C   UNL     1       5.124   4.316  17.185  0.00  0.00    +0.000 A 
ATOM     16  C   UNL     1       5.781   3.574  16.189  0.00  0.00    +0.000 A 
ATOM     17  C   UNL     1       6.099   4.192  14.987  0.00  0.00    +0.000 A 
ATOM     18  C   UNL     1       5.756   5.535  14.791  0.00  0.00    +0.000 A 
ATOM     19  C   UNL     1       5.117   6.275  15.803  0.00  0.00    +0.000 A 
ATOM     20  C   UNL     1       4.802   5.681  17.031  0.00  0.00    +0.000 A 
BRANCH  15  22
ATOM     21  O   UNL     1       5.437   3.657  19.374  0.00  0.00    +0.000 OA
ATOM     22  N   UNL     1       4.703   3.592  18.374  0.00  0.00    +0.000 N 
ATOM     23  O   UNL     1       3.671   2.907  18.288  0.00  0.00    +0.000 OA
ENDBRANCH  15  22
ENDBRANCH  13  20
ENDBRANCH   1  14
BRANCH  10  24
ATOM     24  O   UNL     1       1.742  11.322  17.766  0.00  0.00    +0.000 OA
ATOM     25  H   UNL     1       2.455  10.696  17.534  0.00  0.00    +0.000 HD
ENDBRANCH  10  24
TORSDOF 4
ENDMDL
