MODEL 1
REMARK VINA RESULT:      -8.0      0.000      0.000
REMARK  Name = 
REMARK  5 active torsions:
REMARK  status: ('A' for Active; 'I' for Inactive)
REMARK    1  A    between atoms: C_2  and  C_4
REMARK    2  A    between atoms: C_8  and  C_9
REMARK    3  A    between atoms: C_18  and  C_19
REMARK    4  A    between atoms: C_19  and  O_20
REMARK    5  A    between atoms: O_20  and  C_21
REMARK                            x       y       z     vdW  Elec       q    Type
REMARK                         _______ _______ _______ _____ _____    ______ ____
ROOT
ATOM      1  C   UNL     1       2.525   2.641  20.507  0.00  0.00    +0.000 C 
ATOM      2  C   UNL     1       3.937   2.091  20.516  0.00  0.00    +0.000 C 
ATOM      3  S   UNL     1       4.696   2.790  19.019  0.00  0.00    +0.000 S 
ATOM      4  C   UNL     1       3.596   4.135  18.959  0.00  0.00    +0.000 A 
ATOM      5  C   UNL     1       3.698   5.226  18.165  0.00  0.00    +0.000 A 
ATOM      6  C   UNL     1       2.645   6.255  18.278  0.00  0.00    +0.000 A 
ATOM      7  C   UNL     1       1.586   6.055  19.084  0.00  0.00    +0.000 A 
ATOM      8  C   UNL     1       1.421   4.776  19.818  0.00  0.00    +0.000 A 
ATOM      9  O   UNL     1       0.348   4.521  20.372  0.00  0.00    +0.000 OA
ATOM     10  N   UNL     1       2.520   3.942  19.801  0.00  0.00    +0.000 N 
ENDROOT
BRANCH   5  11
ATOM     11  C   UNL     1       4.834   5.346  17.219  0.00  0.00    +0.000 A 
ATOM     12  C   UNL     1       5.975   6.092  17.595  0.00  0.00    +0.000 A 
ATOM     13  C   UNL     1       7.062   6.228  16.726  0.00  0.00    +0.000 A 
ATOM     14  C   UNL     1       6.984   5.601  15.503  0.00  0.00    +0.000 A 
ATOM     15  C   UNL     1       5.883   4.864  15.133  0.00  0.00    +0.000 A 
ATOM     16  C   UNL     1       4.790   4.719  15.963  0.00  0.00    +0.000 A 
ATOM     17  O   UNL     1       6.017   4.322  13.892  0.00  0.00    +0.000 OA
ATOM     18  C   UNL     1       7.311   4.834  13.509  0.00  0.00    +0.000 C 
ATOM     19  O   UNL     1       7.944   5.623  14.538  0.00  0.00    +0.000 OA
ENDBRANCH   5  11
BRANCH   1  21
ATOM     20  O   UNL     1       1.247   1.803  22.364  0.00  0.00    +0.000 OA
ATOM     21  C   UNL     1       1.992   2.710  21.949  0.00  0.00    +0.000 C 
ATOM     22  O   UNL     1       2.537   3.640  22.641  0.00  0.00    +0.000 OA
ENDBRANCH   1  21
BRANCH   6  23
ATOM     23  C   UNL     1       2.796   7.554  17.522  0.00  0.00    +0.000 C 
BRANCH  23  24
ATOM     24  O   UNL     1       2.737   8.639  18.455  0.00  0.00    +0.000 OA
BRANCH  24  25
ATOM     25  C   UNL     1       1.497   9.213  18.645  0.00  0.00    +0.000 A 
ATOM     26  C   UNL     1       0.671   9.605  17.586  0.00  0.00    +0.000 A 
ATOM     27  C   UNL     1      -0.590  10.143  17.829  0.00  0.00    +0.000 A 
ATOM     28  C   UNL     1      -1.047  10.285  19.134  0.00  0.00    +0.000 A 
ATOM     29  C   UNL     1      -0.252   9.888  20.218  0.00  0.00    +0.000 A 
ATOM     30  C   UNL     1      -0.735  10.024  21.528  0.00  0.00    +0.000 A 
ATOM     31  C   UNL     1       0.035   9.631  22.620  0.00  0.00    +0.000 A 
ATOM     32  C   UNL     1       1.304   9.100  22.413  0.00  0.00    +0.000 A 
ATOM     33  C   UNL     1       1.799   8.958  21.112  0.00  0.00    +0.000 A 
ATOM     34  C   UNL     1       1.038   9.343  19.985  0.00  0.00    +0.000 A 
ENDBRANCH  24  25
ENDBRANCH  23  24
ENDBRANCH   6  23
TORSDOF 5
ENDMDL
MODEL 2
REMARK VINA RESULT:      -7.8      1.127      1.397
REMARK  Name = 
REMARK  5 active torsions:
REMARK  status: ('A' for Active; 'I' for Inactive)
REMARK    1  A    between atoms: C_2  and  C_4
REMARK    2  A    between atoms: C_8  and  C_9
REMARK    3  A    between atoms: C_18  and  C_19
REMARK    4  A    between atoms: C_19  and  O_20
REMARK    5  A    between atoms: O_20  and  C_21
REMARK                            x       y       z     vdW  Elec       q    Type
REMARK                         _______ _______ _______ _____ _____    ______ ____
ROOT
ATOM      1  C   UNL     1       2.501   2.817  20.473  0.00  0.00    +0.000 C 
ATOM      2  C   UNL     1       3.853   2.139  20.382  0.00  0.00    +0.000 C 
ATOM      3  S   UNL     1       4.611   2.858  18.894  0.00  0.00    +0.000 S 
ATOM      4  C   UNL     1       3.644   4.300  18.965  0.00  0.00    +0.000 A 
ATOM      5  C   UNL     1       3.816   5.424  18.233  0.00  0.00    +0.000 A 
ATOM      6  C   UNL     1       2.871   6.538  18.456  0.00  0.00    +0.000 A 
ATOM      7  C   UNL     1       1.833   6.387  19.299  0.00  0.00    +0.000 A 
ATOM      8  C   UNL     1       1.578   5.085  19.964  0.00  0.00    +0.000 A 
ATOM      9  O   UNL     1       0.509   4.896  20.553  0.00  0.00    +0.000 OA
ATOM     10  N   UNL     1       2.590   4.155  19.846  0.00  0.00    +0.000 N 
ENDROOT
BRANCH   5  11
ATOM     11  C   UNL     1       4.917   5.498  17.242  0.00  0.00    +0.000 A 
ATOM     12  C   UNL     1       6.084   6.231  17.555  0.00  0.00    +0.000 A 
ATOM     13  C   UNL     1       7.140   6.323  16.642  0.00  0.00    +0.000 A 
ATOM     14  C   UNL     1       7.005   5.666  15.440  0.00  0.00    +0.000 A 
ATOM     15  C   UNL     1       5.877   4.941  15.132  0.00  0.00    +0.000 A 
ATOM     16  C   UNL     1       4.814   4.839  16.006  0.00  0.00    +0.000 A 
ATOM     17  O   UNL     1       5.954   4.363  13.902  0.00  0.00    +0.000 OA
ATOM     18  C   UNL     1       7.242   4.840  13.457  0.00  0.00    +0.000 C 
ATOM     19  O   UNL     1       7.927   5.644  14.440  0.00  0.00    +0.000 OA
ENDBRANCH   5  11
BRANCH   1  21
ATOM     20  O   UNL     1       2.544   3.674  22.719  0.00  0.00    +0.000 OA
ATOM     21  C   UNL     1       2.038   2.846  21.940  0.00  0.00    +0.000 C 
ATOM     22  O   UNL     1       1.019   2.101  22.159  0.00  0.00    +0.000 OA
ENDBRANCH   1  21
BRANCH   6  23
ATOM     23  C   UNL     1       3.114   7.862  17.771  0.00  0.00    +0.000 C 
BRANCH  23  24
ATOM     24  O   UNL     1       1.880   8.587  17.720  0.00  0.00    +0.000 OA
BRANCH  24  25
ATOM     25  C   UNL     1       1.915   9.883  18.190  0.00  0.00    +0.000 A 
ATOM     26  C   UNL     1       2.585  10.915  17.525  0.00  0.00    +0.000 A 
ATOM     27  C   UNL     1       2.557  12.217  18.018  0.00  0.00    +0.000 A 
ATOM     28  C   UNL     1       1.847  12.507  19.178  0.00  0.00    +0.000 A 
ATOM     29  C   UNL     1       1.150  11.500  19.861  0.00  0.00    +0.000 A 
ATOM     30  C   UNL     1       0.426  11.813  21.021  0.00  0.00    +0.000 A 
ATOM     31  C   UNL     1      -0.278  10.830  21.714  0.00  0.00    +0.000 A 
ATOM     32  C   UNL     1      -0.261   9.517  21.253  0.00  0.00    +0.000 A 
ATOM     33  C   UNL     1       0.457   9.191  20.098  0.00  0.00    +0.000 A 
ATOM     34  C   UNL     1       1.175  10.167  19.372  0.00  0.00    +0.000 A 
ENDBRANCH  24  25
ENDBRANCH  23  24
ENDBRANCH   6  23
TORSDOF 5
ENDMDL
MODEL 3
REMARK VINA RESULT:      -7.7      5.577     10.671
REMARK  Name = 
REMARK  5 active torsions:
REMARK  status: ('A' for Active; 'I' for Inactive)
REMARK    1  A    between atoms: C_2  and  C_4
REMARK    2  A    between atoms: C_8  and  C_9
REMARK    3  A    between atoms: C_18  and  C_19
REMARK    4  A    between atoms: C_19  and  O_20
REMARK    5  A    between atoms: O_20  and  C_21
REMARK                            x       y       z     vdW  Elec       q    Type
REMARK                         _______ _______ _______ _____ _____    ______ ____
ROOT
ATOM      1  C   UNL     1       2.266  16.436  20.169  0.00  0.00    +0.000 C 
ATOM      2  C   UNL     1       1.847  16.716  21.598  0.00  0.00    +0.000 C 
ATOM      3  S   UNL     1       0.265  15.836  21.778  0.00  0.00    +0.000 S 
ATOM      4  C   UNL     1       0.619  14.716  20.497  0.00  0.00    +0.000 A 
ATOM      5  C   UNL     1      -0.076  13.598  20.187  0.00  0.00    +0.000 A 
ATOM      6  C   UNL     1       0.404  12.785  19.052  0.00  0.00    +0.000 A 
ATOM      7  C   UNL     1       1.446  13.205  18.311  0.00  0.00    +0.000 A 
ATOM      8  C   UNL     1       2.085  14.518  18.575  0.00  0.00    +0.000 A 
ATOM      9  O   UNL     1       2.885  14.986  17.759  0.00  0.00    +0.000 OA
ATOM     10  N   UNL     1       1.701  15.134  19.748  0.00  0.00    +0.000 N 
ENDROOT
BRANCH   5  11
ATOM     11  C   UNL     1      -1.280  13.237  20.975  0.00  0.00    +0.000 A 
ATOM     12  C   UNL     1      -1.131  12.494  22.169  0.00  0.00    +0.000 A 
ATOM     13  C   UNL     1      -2.246  12.134  22.934  0.00  0.00    +0.000 A 
ATOM     14  C   UNL     1      -3.484  12.540  22.489  0.00  0.00    +0.000 A 
ATOM     15  C   UNL     1      -3.637  13.272  21.335  0.00  0.00    +0.000 A 
ATOM     16  C   UNL     1      -2.559  13.634  20.553  0.00  0.00    +0.000 A 
ATOM     17  O   UNL     1      -4.939  13.577  21.085  0.00  0.00    +0.000 OA
ATOM     18  C   UNL     1      -5.591  12.920  22.193  0.00  0.00    +0.000 C 
ATOM     19  O   UNL     1      -4.671  12.284  23.104  0.00  0.00    +0.000 OA
ENDBRANCH   5  11
BRANCH   1  21
ATOM     20  O   UNL     1       4.493  15.638  20.600  0.00  0.00    +0.000 OA
ATOM     21  C   UNL     1       3.798  16.517  20.058  0.00  0.00    +0.000 C 
ATOM     22  O   UNL     1       4.195  17.420  19.240  0.00  0.00    +0.000 OA
ENDBRANCH   1  21
BRANCH   6  23
ATOM     23  C   UNL     1      -0.251  11.454  18.765  0.00  0.00    +0.000 C 
BRANCH  23  24
ATOM     24  O   UNL     1       0.767  10.502  18.436  0.00  0.00    +0.000 OA
BRANCH  24  25
ATOM     25  C   UNL     1       0.970   9.488  19.349  0.00  0.00    +0.000 A 
ATOM     26  C   UNL     1       0.297   9.421  20.573  0.00  0.00    +0.000 A 
ATOM     27  C   UNL     1       0.507   8.354  21.444  0.00  0.00    +0.000 A 
ATOM     28  C   UNL     1       1.384   7.334  21.096  0.00  0.00    +0.000 A 
ATOM     29  C   UNL     1       2.063   7.361  19.870  0.00  0.00    +0.000 A 
ATOM     30  C   UNL     1       2.933   6.315  19.528  0.00  0.00    +0.000 A 
ATOM     31  C   UNL     1       3.615   6.318  18.313  0.00  0.00    +0.000 A 
ATOM     32  C   UNL     1       3.436   7.375  17.425  0.00  0.00    +0.000 A 
ATOM     33  C   UNL     1       2.571   8.424  17.753  0.00  0.00    +0.000 A 
ATOM     34  C   UNL     1       1.863   8.445  18.975  0.00  0.00    +0.000 A 
ENDBRANCH  24  25
ENDBRANCH  23  24
ENDBRANCH   6  23
TORSDOF 5
ENDMDL
MODEL 4
REMARK VINA RESULT:      -7.6      1.545      2.024
REMARK  Name = 
REMARK  5 active torsions:
REMARK  status: ('A' for Active; 'I' for Inactive)
REMARK    1  A    between atoms: C_2  and  C_4
REMARK    2  A    between atoms: C_8  and  C_9
REMARK    3  A    between atoms: C_18  and  C_19
REMARK    4  A    between atoms: C_19  and  O_20
REMARK    5  A    between atoms: O_20  and  C_21
REMARK                            x       y       z     vdW  Elec       q    Type
REMARK                         _______ _______ _______ _____ _____    ______ ____
ROOT
ATOM      1  C   UNL     1       2.407   2.858  20.493  0.00  0.00    +0.000 C 
ATOM      2  C   UNL     1       3.769   2.196  20.439  0.00  0.00    +0.000 C 
ATOM      3  S   UNL     1       4.546   2.898  18.953  0.00  0.00    +0.000 S 
ATOM      4  C   UNL     1       3.559   4.328  18.980  0.00  0.00    +0.000 A 
ATOM      5  C   UNL     1       3.730   5.441  18.232  0.00  0.00    +0.000 A 
ATOM      6  C   UNL     1       2.768   6.546  18.417  0.00  0.00    +0.000 A 
ATOM      7  C   UNL     1       1.716   6.396  19.243  0.00  0.00    +0.000 A 
ATOM      8  C   UNL     1       1.465   5.104  19.926  0.00  0.00    +0.000 A 
ATOM      9  O   UNL     1       0.388   4.911  20.499  0.00  0.00    +0.000 OA
ATOM     10  N   UNL     1       2.491   4.185  19.843  0.00  0.00    +0.000 N 
ENDROOT
BRANCH   5  11
ATOM     11  C   UNL     1       4.849   5.512  17.260  0.00  0.00    +0.000 A 
ATOM     12  C   UNL     1       6.019   6.229  17.600  0.00  0.00    +0.000 A 
ATOM     13  C   UNL     1       7.091   6.317  16.706  0.00  0.00    +0.000 A 
ATOM     14  C   UNL     1       6.970   5.673  15.496  0.00  0.00    +0.000 A 
ATOM     15  C   UNL     1       5.839   4.965  15.161  0.00  0.00    +0.000 A 
ATOM     16  C   UNL     1       4.760   4.866  16.016  0.00  0.00    +0.000 A 
ATOM     17  O   UNL     1       5.931   4.398  13.927  0.00  0.00    +0.000 OA
ATOM     18  C   UNL     1       7.231   4.864  13.509  0.00  0.00    +0.000 C 
ATOM     19  O   UNL     1       7.908   5.651  14.511  0.00  0.00    +0.000 OA
ENDBRANCH   5  11
BRANCH   1  21
ATOM     20  O   UNL     1       1.073   2.074  22.334  0.00  0.00    +0.000 OA
ATOM     21  C   UNL     1       1.916   2.906  21.951  0.00  0.00    +0.000 C 
ATOM     22  O   UNL     1       2.587   3.718  22.679  0.00  0.00    +0.000 OA
ENDBRANCH   1  21
BRANCH   6  23
ATOM     23  C   UNL     1       3.006   7.862  17.713  0.00  0.00    +0.000 C 
BRANCH  23  24
ATOM     24  O   UNL     1       1.741   8.459  17.414  0.00  0.00    +0.000 OA
BRANCH  24  25
ATOM     25  C   UNL     1       1.553   9.749  17.864  0.00  0.00    +0.000 A 
ATOM     26  C   UNL     1       2.615  10.610  18.165  0.00  0.00    +0.000 A 
ATOM     27  C   UNL     1       2.375  11.919  18.578  0.00  0.00    +0.000 A 
ATOM     28  C   UNL     1       1.070  12.387  18.684  0.00  0.00    +0.000 A 
ATOM     29  C   UNL     1      -0.016  11.556  18.375  0.00  0.00    +0.000 A 
ATOM     30  C   UNL     1      -1.326  12.050  18.473  0.00  0.00    +0.000 A 
ATOM     31  C   UNL     1      -2.420  11.244  18.167  0.00  0.00    +0.000 A 
ATOM     32  C   UNL     1      -2.215   9.929  17.761  0.00  0.00    +0.000 A 
ATOM     33  C   UNL     1      -0.915   9.423  17.659  0.00  0.00    +0.000 A 
ATOM     34  C   UNL     1       0.214  10.219  17.958  0.00  0.00    +0.000 A 
ENDBRANCH  24  25
ENDBRANCH  23  24
ENDBRANCH   6  23
TORSDOF 5
ENDMDL
MODEL 5
REMARK VINA RESULT:      -7.6      5.415      9.145
REMARK  Name = 
REMARK  5 active torsions:
REMARK  status: ('A' for Active; 'I' for Inactive)
REMARK    1  A    between atoms: C_2  and  C_4
REMARK    2  A    between atoms: C_8  and  C_9
REMARK    3  A    between atoms: C_18  and  C_19
REMARK    4  A    between atoms: C_19  and  O_20
REMARK    5  A    between atoms: O_20  and  C_21
REMARK                            x       y       z     vdW  Elec       q    Type
REMARK                         _______ _______ _______ _____ _____    ______ ____
ROOT
ATOM      1  C   UNL     1      -3.299  14.269  22.193  0.00  0.00    +0.000 C 
ATOM      2  C   UNL     1      -3.119  15.253  21.055  0.00  0.00    +0.000 C 
ATOM      3  S   UNL     1      -1.341  15.182  20.683  0.00  0.00    +0.000 S 
ATOM      4  C   UNL     1      -1.155  13.587  21.347  0.00  0.00    +0.000 A 
ATOM      5  C   UNL     1      -0.071  12.786  21.233  0.00  0.00    +0.000 A 
ATOM      6  C   UNL     1      -0.128  11.460  21.880  0.00  0.00    +0.000 A 
ATOM      7  C   UNL     1      -1.195  11.114  22.623  0.00  0.00    +0.000 A 
ATOM      8  C   UNL     1      -2.297  12.078  22.863  0.00  0.00    +0.000 A 
ATOM      9  O   UNL     1      -3.154  11.830  23.718  0.00  0.00    +0.000 OA
ATOM     10  N   UNL     1      -2.258  13.221  22.092  0.00  0.00    +0.000 N 
ENDROOT
BRANCH   5  11
ATOM     11  C   UNL     1       1.121  13.260  20.488  0.00  0.00    +0.000 A 
ATOM     12  C   UNL     1       1.177  13.086  19.085  0.00  0.00    +0.000 A 
ATOM     13  C   UNL     1       2.287  13.519  18.353  0.00  0.00    +0.000 A 
ATOM     14  C   UNL     1       3.310  14.129  19.043  0.00  0.00    +0.000 A 
ATOM     15  C   UNL     1       3.259  14.312  20.405  0.00  0.00    +0.000 A 
ATOM     16  C   UNL     1       2.184  13.888  21.158  0.00  0.00    +0.000 A 
ATOM     17  O   UNL     1       4.366  14.943  20.884  0.00  0.00    +0.000 OA
ATOM     18  C   UNL     1       5.135  15.101  19.672  0.00  0.00    +0.000 C 
ATOM     19  O   UNL     1       4.459  14.612  18.496  0.00  0.00    +0.000 OA
ENDBRANCH   5  11
BRANCH   1  21
ATOM     20  O   UNL     1      -5.083  12.950  21.267  0.00  0.00    +0.000 OA
ATOM     21  C   UNL     1      -4.738  13.724  22.178  0.00  0.00    +0.000 C 
ATOM     22  O   UNL     1      -5.391  14.001  23.245  0.00  0.00    +0.000 OA
ENDBRANCH   1  21
BRANCH   6  23
ATOM     23  C   UNL     1       0.997  10.477  21.654  0.00  0.00    +0.000 C 
BRANCH  23  24
ATOM     24  O   UNL     1       0.479   9.335  20.964  0.00  0.00    +0.000 OA
BRANCH  24  25
ATOM     25  C   UNL     1       1.167   8.941  19.835  0.00  0.00    +0.000 A 
ATOM     26  C   UNL     1       1.389   9.792  18.746  0.00  0.00    +0.000 A 
ATOM     27  C   UNL     1       2.125   9.360  17.645  0.00  0.00    +0.000 A 
ATOM     28  C   UNL     1       2.658   8.076  17.623  0.00  0.00    +0.000 A 
ATOM     29  C   UNL     1       2.468   7.204  18.704  0.00  0.00    +0.000 A 
ATOM     30  C   UNL     1       3.026   5.917  18.672  0.00  0.00    +0.000 A 
ATOM     31  C   UNL     1       2.854   5.035  19.737  0.00  0.00    +0.000 A 
ATOM     32  C   UNL     1       2.115   5.431  20.847  0.00  0.00    +0.000 A 
ATOM     33  C   UNL     1       1.553   6.711  20.893  0.00  0.00    +0.000 A 
ATOM     34  C   UNL     1       1.715   7.629  19.830  0.00  0.00    +0.000 A 
ENDBRANCH  24  25
ENDBRANCH  23  24
ENDBRANCH   6  23
TORSDOF 5
ENDMDL
MODEL 6
REMARK VINA RESULT:      -7.6      6.017     11.227
REMARK  Name = 
REMARK  5 active torsions:
REMARK  status: ('A' for Active; 'I' for Inactive)
REMARK    1  A    between atoms: C_2  and  C_4
REMARK    2  A    between atoms: C_8  and  C_9
REMARK    3  A    between atoms: C_18  and  C_19
REMARK    4  A    between atoms: C_19  and  O_20
REMARK    5  A    between atoms: O_20  and  C_21
REMARK                            x       y       z     vdW  Elec       q    Type
REMARK                         _______ _______ _______ _____ _____    ______ ____
ROOT
ATOM      1  C   UNL     1       1.323  16.992  20.799  0.00  0.00    +0.000 C 
ATOM      2  C   UNL     1       0.974  17.125  22.268  0.00  0.00    +0.000 C 
ATOM      3  S   UNL     1      -0.569  16.179  22.445  0.00  0.00    +0.000 S 
ATOM      4  C   UNL     1      -0.252  15.194  21.049  0.00  0.00    +0.000 A 
ATOM      5  C   UNL     1      -0.930  14.086  20.672  0.00  0.00    +0.000 A 
ATOM      6  C   UNL     1      -0.488  13.397  19.442  0.00  0.00    +0.000 A 
ATOM      7  C   UNL     1       0.500  13.920  18.692  0.00  0.00    +0.000 A 
ATOM      8  C   UNL     1       1.113  15.223  19.044  0.00  0.00    +0.000 A 
ATOM      9  O   UNL     1       1.853  15.792  18.236  0.00  0.00    +0.000 OA
ATOM     10  N   UNL     1       0.775  15.716  20.288  0.00  0.00    +0.000 N 
ENDROOT
BRANCH   5  11
ATOM     11  C   UNL     1      -2.078  13.612  21.483  0.00  0.00    +0.000 A 
ATOM     12  C   UNL     1      -1.844  12.758  22.585  0.00  0.00    +0.000 A 
ATOM     13  C   UNL     1      -2.904  12.292  23.369  0.00  0.00    +0.000 A 
ATOM     14  C   UNL     1      -4.175  12.703  23.036  0.00  0.00    +0.000 A 
ATOM     15  C   UNL     1      -4.411  13.543  21.971  0.00  0.00    +0.000 A 
ATOM     16  C   UNL     1      -3.388  14.013  21.173  0.00  0.00    +0.000 A 
ATOM     17  O   UNL     1      -5.732  13.833  21.825  0.00  0.00    +0.000 OA
ATOM     18  C   UNL     1      -6.304  13.050  22.894  0.00  0.00    +0.000 C 
ATOM     19  O   UNL     1      -5.319  12.353  23.685  0.00  0.00    +0.000 OA
ENDBRANCH   5  11
BRANCH   1  21
ATOM     20  O   UNL     1       3.583  16.178  20.912  0.00  0.00    +0.000 OA
ATOM     21  C   UNL     1       2.844  17.136  20.618  0.00  0.00    +0.000 C 
ATOM     22  O   UNL     1       3.177  18.205  19.996  0.00  0.00    +0.000 OA
ENDBRANCH   1  21
BRANCH   6  23
ATOM     23  C   UNL     1      -1.117  12.077  19.066  0.00  0.00    +0.000 C 
BRANCH  23  24
ATOM     24  O   UNL     1      -0.082  11.166  18.682  0.00  0.00    +0.000 OA
BRANCH  24  25
ATOM     25  C   UNL     1       0.248  10.194  19.604  0.00  0.00    +0.000 A 
ATOM     26  C   UNL     1      -0.314  10.140  20.884  0.00  0.00    +0.000 A 
ATOM     27  C   UNL     1       0.022   9.115  21.766  0.00  0.00    +0.000 A 
ATOM     28  C   UNL     1       0.914   8.124  21.373  0.00  0.00    +0.000 A 
ATOM     29  C   UNL     1       1.483   8.139  20.092  0.00  0.00    +0.000 A 
ATOM     30  C   UNL     1       2.370   7.122  19.708  0.00  0.00    +0.000 A 
ATOM     31  C   UNL     1       2.944   7.114  18.438  0.00  0.00    +0.000 A 
ATOM     32  C   UNL     1       2.638   8.130  17.538  0.00  0.00    +0.000 A 
ATOM     33  C   UNL     1       1.755   9.150  17.907  0.00  0.00    +0.000 A 
ATOM     34  C   UNL     1       1.154   9.181  19.186  0.00  0.00    +0.000 A 
ENDBRANCH  24  25
ENDBRANCH  23  24
ENDBRANCH   6  23
TORSDOF 5
ENDMDL
MODEL 7
REMARK VINA RESULT:      -7.5      2.599      6.872
REMARK  Name = 
REMARK  5 active torsions:
REMARK  status: ('A' for Active; 'I' for Inactive)
REMARK    1  A    between atoms: C_2  and  C_4
REMARK    2  A    between atoms: C_8  and  C_9
REMARK    3  A    between atoms: C_18  and  C_19
REMARK    4  A    between atoms: C_19  and  O_20
REMARK    5  A    between atoms: O_20  and  C_21
REMARK                            x       y       z     vdW  Elec       q    Type
REMARK                         _______ _______ _______ _____ _____    ______ ____
ROOT
ATOM      1  C   UNL     1       0.193   9.401  20.715  0.00  0.00    +0.000 C 
ATOM      2  C   UNL     1       0.343   8.432  21.871  0.00  0.00    +0.000 C 
ATOM      3  S   UNL     1       0.969   6.911  21.096  0.00  0.00    +0.000 S 
ATOM      4  C   UNL     1       1.639   7.753  19.731  0.00  0.00    +0.000 A 
ATOM      5  C   UNL     1       2.464   7.238  18.791  0.00  0.00    +0.000 A 
ATOM      6  C   UNL     1       2.917   8.138  17.711  0.00  0.00    +0.000 A 
ATOM      7  C   UNL     1       2.445   9.396  17.635  0.00  0.00    +0.000 A 
ATOM      8  C   UNL     1       1.415   9.879  18.587  0.00  0.00    +0.000 A 
ATOM      9  O   UNL     1       0.834  10.948  18.372  0.00  0.00    +0.000 OA
ATOM     10  N   UNL     1       1.172   9.051  19.663  0.00  0.00    +0.000 N 
ENDROOT
BRANCH   5  11
ATOM     11  C   UNL     1       2.872   5.814  18.867  0.00  0.00    +0.000 A 
ATOM     12  C   UNL     1       3.960   5.447  19.691  0.00  0.00    +0.000 A 
ATOM     13  C   UNL     1       4.371   4.113  19.784  0.00  0.00    +0.000 A 
ATOM     14  C   UNL     1       3.673   3.176  19.056  0.00  0.00    +0.000 A 
ATOM     15  C   UNL     1       2.606   3.524  18.260  0.00  0.00    +0.000 A 
ATOM     16  C   UNL     1       2.181   4.831  18.139  0.00  0.00    +0.000 A 
ATOM     17  O   UNL     1       2.052   2.447  17.639  0.00  0.00    +0.000 OA
ATOM     18  C   UNL     1       2.917   1.389  18.105  0.00  0.00    +0.000 C 
ATOM     19  O   UNL     1       3.930   1.841  19.027  0.00  0.00    +0.000 OA
ENDBRANCH   5  11
BRANCH   1  21
ATOM     20  O   UNL     1      -0.707  11.516  21.422  0.00  0.00    +0.000 OA
ATOM     21  C   UNL     1       0.324  10.844  21.235  0.00  0.00    +0.000 C 
ATOM     22  O   UNL     1       1.516  11.141  21.595  0.00  0.00    +0.000 OA
ENDBRANCH   1  21
BRANCH   6  23
ATOM     23  C   UNL     1       3.954   7.650  16.727  0.00  0.00    +0.000 C 
BRANCH  23  24
ATOM     24  O   UNL     1       5.256   7.926  17.255  0.00  0.00    +0.000 OA
BRANCH  24  25
ATOM     25  C   UNL     1       6.105   6.846  17.379  0.00  0.00    +0.000 A 
ATOM     26  C   UNL     1       6.950   6.666  18.479  0.00  0.00    +0.000 A 
ATOM     27  C   UNL     1       7.760   5.537  18.578  0.00  0.00    +0.000 A 
ATOM     28  C   UNL     1       7.726   4.567  17.583  0.00  0.00    +0.000 A 
ATOM     29  C   UNL     1       6.879   4.708  16.475  0.00  0.00    +0.000 A 
ATOM     30  C   UNL     1       6.847   3.711  15.488  0.00  0.00    +0.000 A 
ATOM     31  C   UNL     1       6.009   3.826  14.380  0.00  0.00    +0.000 A 
ATOM     32  C   UNL     1       5.196   4.947  14.246  0.00  0.00    +0.000 A 
ATOM     33  C   UNL     1       5.217   5.948  15.223  0.00  0.00    +0.000 A 
ATOM     34  C   UNL     1       6.052   5.856  16.359  0.00  0.00    +0.000 A 
ENDBRANCH  24  25
ENDBRANCH  23  24
ENDBRANCH   6  23
TORSDOF 5
ENDMDL
MODEL 8
REMARK VINA RESULT:      -7.5      8.665     11.302
REMARK  Name = 
REMARK  5 active torsions:
REMARK  status: ('A' for Active; 'I' for Inactive)
REMARK    1  A    between atoms: C_2  and  C_4
REMARK    2  A    between atoms: C_8  and  C_9
REMARK    3  A    between atoms: C_18  and  C_19
REMARK    4  A    between atoms: C_19  and  O_20
REMARK    5  A    between atoms: O_20  and  C_21
REMARK                            x       y       z     vdW  Elec       q    Type
REMARK                         _______ _______ _______ _____ _____    ______ ____
ROOT
ATOM      1  C   UNL     1       2.278  14.559  19.450  0.00  0.00    +0.000 C 
ATOM      2  C   UNL     1       2.644  14.380  17.991  0.00  0.00    +0.000 C 
ATOM      3  S   UNL     1       4.265  15.190  17.837  0.00  0.00    +0.000 S 
ATOM      4  C   UNL     1       4.639  15.005  19.524  0.00  0.00    +0.000 A 
ATOM      5  C   UNL     1       5.836  15.226  20.114  0.00  0.00    +0.000 A 
ATOM      6  C   UNL     1       5.932  15.005  21.571  0.00  0.00    +0.000 A 
ATOM      7  C   UNL     1       4.835  14.679  22.280  0.00  0.00    +0.000 A 
ATOM      8  C   UNL     1       3.505  14.603  21.629  0.00  0.00    +0.000 A 
ATOM      9  O   UNL     1       2.486  14.523  22.323  0.00  0.00    +0.000 OA
ATOM     10  N   UNL     1       3.520  14.649  20.250  0.00  0.00    +0.000 N 
ENDROOT
BRANCH   5  11
ATOM     11  C   UNL     1       6.987  15.685  19.299  0.00  0.00    +0.000 A 
ATOM     12  C   UNL     1       7.646  14.766  18.450  0.00  0.00    +0.000 A 
ATOM     13  C   UNL     1       8.736  15.166  17.670  0.00  0.00    +0.000 A 
ATOM     14  C   UNL     1       9.132  16.482  17.751  0.00  0.00    +0.000 A 
ATOM     15  C   UNL     1       8.489  17.385  18.566  0.00  0.00    +0.000 A 
ATOM     16  C   UNL     1       7.418  17.021  19.354  0.00  0.00    +0.000 A 
ATOM     17  O   UNL     1       9.032  18.630  18.486  0.00  0.00    +0.000 OA
ATOM     18  C   UNL     1      10.114  18.398  17.558  0.00  0.00    +0.000 C 
ATOM     19  O   UNL     1      10.165  17.043  17.065  0.00  0.00    +0.000 OA
ENDBRANCH   5  11
BRANCH   1  21
ATOM     20  O   UNL     1       0.160  13.696  20.192  0.00  0.00    +0.000 OA
ATOM     21  C   UNL     1       1.335  13.424  19.887  0.00  0.00    +0.000 C 
ATOM     22  O   UNL     1       1.838  12.259  19.711  0.00  0.00    +0.000 OA
ENDBRANCH   1  21
BRANCH   6  23
ATOM     23  C   UNL     1       7.280  15.095  22.246  0.00  0.00    +0.000 C 
BRANCH  23  24
ATOM     24  O   UNL     1       8.062  13.957  21.868  0.00  0.00    +0.000 OA
BRANCH  24  25
ATOM     25  C   UNL     1       9.276  14.223  21.270  0.00  0.00    +0.000 A 
ATOM     26  C   UNL     1       9.959  15.432  21.443  0.00  0.00    +0.000 A 
ATOM     27  C   UNL     1      11.203  15.637  20.851  0.00  0.00    +0.000 A 
ATOM     28  C   UNL     1      11.786  14.632  20.088  0.00  0.00    +0.000 A 
ATOM     29  C   UNL     1      11.136  13.403  19.908  0.00  0.00    +0.000 A 
ATOM     30  C   UNL     1      11.746  12.393  19.148  0.00  0.00    +0.000 A 
ATOM     31  C   UNL     1      11.122  11.162  18.960  0.00  0.00    +0.000 A 
ATOM     32  C   UNL     1       9.874  10.928  19.529  0.00  0.00    +0.000 A 
ATOM     33  C   UNL     1       9.254  11.925  20.289  0.00  0.00    +0.000 A 
ATOM     34  C   UNL     1       9.865  13.182  20.501  0.00  0.00    +0.000 A 
ENDBRANCH  24  25
ENDBRANCH  23  24
ENDBRANCH   6  23
TORSDOF 5
ENDMDL
MODEL 9
REMARK VINA RESULT:      -7.5      6.556      9.531
REMARK  Name = 
REMARK  5 active torsions:
REMARK  status: ('A' for Active; 'I' for Inactive)
REMARK    1  A    between atoms: C_2  and  C_4
REMARK    2  A    between atoms: C_8  and  C_9
REMARK    3  A    between atoms: C_18  and  C_19
REMARK    4  A    between atoms: C_19  and  O_20
REMARK    5  A    between atoms: O_20  and  C_21
REMARK                            x       y       z     vdW  Elec       q    Type
REMARK                         _______ _______ _______ _____ _____    ______ ____
ROOT
ATOM      1  C   UNL     1      -5.923  13.154  21.626  0.00  0.00    +0.000 C 
ATOM      2  C   UNL     1      -6.501  11.803  21.257  0.00  0.00    +0.000 C 
ATOM      3  S   UNL     1      -5.708  11.397  19.672  0.00  0.00    +0.000 S 
ATOM      4  C   UNL     1      -4.340  12.427  19.969  0.00  0.00    +0.000 A 
ATOM      5  C   UNL     1      -3.195  12.476  19.251  0.00  0.00    +0.000 A 
ATOM      6  C   UNL     1      -2.155  13.431  19.683  0.00  0.00    +0.000 A 
ATOM      7  C   UNL     1      -2.393  14.274  20.705  0.00  0.00    +0.000 A 
ATOM      8  C   UNL     1      -3.719  14.307  21.369  0.00  0.00    +0.000 A 
ATOM      9  O   UNL     1      -3.993  15.227  22.147  0.00  0.00    +0.000 OA
ATOM     10  N   UNL     1      -4.573  13.278  21.032  0.00  0.00    +0.000 N 
ENDROOT
BRANCH   5  11
ATOM     11  C   UNL     1      -3.028  11.595  18.069  0.00  0.00    +0.000 A 
ATOM     12  C   UNL     1      -2.210  10.447  18.169  0.00  0.00    +0.000 A 
ATOM     13  C   UNL     1      -2.029   9.597  17.074  0.00  0.00    +0.000 A 
ATOM     14  C   UNL     1      -2.684   9.912  15.905  0.00  0.00    +0.000 A 
ATOM     15  C   UNL     1      -3.491  11.021  15.801  0.00  0.00    +0.000 A 
ATOM     16  C   UNL     1      -3.683  11.885  16.860  0.00  0.00    +0.000 A 
ATOM     17  O   UNL     1      -4.050  11.140  14.566  0.00  0.00    +0.000 OA
ATOM     18  C   UNL     1      -3.472  10.001  13.894  0.00  0.00    +0.000 C 
ATOM     19  O   UNL     1      -2.626   9.201  14.746  0.00  0.00    +0.000 OA
ENDBRANCH   5  11
BRANCH   1  21
ATOM     20  O   UNL     1      -5.223  12.599  23.859  0.00  0.00    +0.000 OA
ATOM     21  C   UNL     1      -5.950  13.325  23.155  0.00  0.00    +0.000 C 
ATOM     22  O   UNL     1      -6.613  14.353  23.533  0.00  0.00    +0.000 OA
ENDBRANCH   1  21
BRANCH   6  23
ATOM     23  C   UNL     1      -0.806  13.415  19.003  0.00  0.00    +0.000 C 
BRANCH  23  24
ATOM     24  O   UNL     1       0.173  12.945  19.934  0.00  0.00    +0.000 OA
BRANCH  24  25
ATOM     25  C   UNL     1       0.496  11.606  19.855  0.00  0.00    +0.000 A 
ATOM     26  C   UNL     1       1.199  11.057  18.777  0.00  0.00    +0.000 A 
ATOM     27  C   UNL     1       1.538   9.706  18.763  0.00  0.00    +0.000 A 
ATOM     28  C   UNL     1       1.188   8.889  19.832  0.00  0.00    +0.000 A 
ATOM     29  C   UNL     1       0.498   9.410  20.935  0.00  0.00    +0.000 A 
ATOM     30  C   UNL     1       0.166   8.574  22.012  0.00  0.00    +0.000 A 
ATOM     31  C   UNL     1      -0.515   9.071  23.121  0.00  0.00    +0.000 A 
ATOM     32  C   UNL     1      -0.877  10.413  23.162  0.00  0.00    +0.000 A 
ATOM     33  C   UNL     1      -0.553  11.258  22.096  0.00  0.00    +0.000 A 
ATOM     34  C   UNL     1       0.142  10.784  20.960  0.00  0.00    +0.000 A 
ENDBRANCH  24  25
ENDBRANCH  23  24
ENDBRANCH   6  23
TORSDOF 5
ENDMDL
