MODEL 1
REMARK VINA RESULT:      -6.9      0.000      0.000
REMARK  Name = 
REMARK  5 active torsions:
REMARK  status: ('A' for Active; 'I' for Inactive)
REMARK    1  A    between atoms: C_1  and  O_2
REMARK    2  A    between atoms: O_2  and  C_3
REMARK    3  A    between atoms: C_3  and  C_5
REMARK    4  A    between atoms: C_6  and  C_7
REMARK    5  A    between atoms: N_10  and  C_11
REMARK                            x       y       z     vdW  Elec       q    Type
REMARK                         _______ _______ _______ _____ _____    ______ ____
ROOT
ATOM      1  C   UNL     1       6.252   5.564  17.180  0.00  0.00    +0.000 A 
ATOM      2  C   UNL     1       6.449   6.941  17.347  0.00  0.00    +0.000 A 
ATOM      3  C   UNL     1       7.689   7.737  17.155  0.00  0.00    +0.000 C 
ATOM      4  N   UNL     1       5.261   7.597  17.683  0.00  0.00    +0.000 NA
ATOM      5  C   UNL     1       4.374   6.642  17.742  0.00  0.00    +0.000 A 
ATOM      6  N   UNL     1       3.055   6.465  18.003  0.00  0.00    +0.000 N 
ATOM      7  C   UNL     1       2.101   7.495  18.294  0.00  0.00    +0.000 C 
ATOM      8  C   UNL     1       2.788   5.098  17.937  0.00  0.00    +0.000 A 
ATOM      9  C   UNL     1       1.630   4.380  18.128  0.00  0.00    +0.000 A 
ATOM     10  C   UNL     1       1.697   2.982  18.010  0.00  0.00    +0.000 A 
ATOM     11  C   UNL     1       2.910   2.323  17.715  0.00  0.00    +0.000 A 
ATOM     12  C   UNL     1       4.086   3.042  17.517  0.00  0.00    +0.000 A 
ATOM     13  C   UNL     1       3.983   4.408  17.619  0.00  0.00    +0.000 A 
ATOM     14  N   UNL     1       4.932   5.413  17.479  0.00  0.00    +0.000 N 
ENDROOT
BRANCH   1  15
ATOM     15  C   UNL     1       7.116   4.505  16.765  0.00  0.00    +0.000 C 
ATOM     16  O   UNL     1       8.129   4.145  17.347  0.00  0.00    +0.000 OA
BRANCH  15  18
ATOM     17  C   UNL     1       6.991   4.765  14.451  0.00  0.00    +0.000 C 
ATOM     18  O   UNL     1       6.680   3.965  15.593  0.00  0.00    +0.000 OA
ENDBRANCH  15  18
ENDBRANCH   1  15
TORSDOF 2
ENDMDL
MODEL 2
REMARK VINA RESULT:      -6.9      2.514      4.867
REMARK  Name = 
REMARK  5 active torsions:
REMARK  status: ('A' for Active; 'I' for Inactive)
REMARK    1  A    between atoms: C_1  and  O_2
REMARK    2  A    between atoms: O_2  and  C_3
REMARK    3  A    between atoms: C_3  and  C_5
REMARK    4  A    between atoms: C_6  and  C_7
REMARK    5  A    between atoms: N_10  and  C_11
REMARK                            x       y       z     vdW  Elec       q    Type
REMARK                         _______ _______ _______ _____ _____    ______ ____
ROOT
ATOM      1  C   UNL     1       3.106   4.425  18.359  0.00  0.00    +0.000 A 
ATOM      2  C   UNL     1       3.211   4.865  19.685  0.00  0.00    +0.000 A 
ATOM      3  C   UNL     1       2.178   4.866  20.754  0.00  0.00    +0.000 C 
ATOM      4  N   UNL     1       4.507   5.293  19.986  0.00  0.00    +0.000 NA
ATOM      5  C   UNL     1       5.163   5.138  18.869  0.00  0.00    +0.000 A 
ATOM      6  N   UNL     1       6.407   5.324  18.361  0.00  0.00    +0.000 N 
ATOM      7  C   UNL     1       7.557   5.788  19.081  0.00  0.00    +0.000 C 
ATOM      8  C   UNL     1       6.370   4.983  17.010  0.00  0.00    +0.000 A 
ATOM      9  C   UNL     1       7.339   4.998  16.034  0.00  0.00    +0.000 A 
ATOM     10  C   UNL     1       6.971   4.608  14.736  0.00  0.00    +0.000 A 
ATOM     11  C   UNL     1       5.649   4.221  14.428  0.00  0.00    +0.000 A 
ATOM     12  C   UNL     1       4.662   4.199  15.411  0.00  0.00    +0.000 A 
ATOM     13  C   UNL     1       5.059   4.567  16.674  0.00  0.00    +0.000 A 
ATOM     14  N   UNL     1       4.355   4.653  17.868  0.00  0.00    +0.000 N 
ENDROOT
BRANCH   1  15
ATOM     15  C   UNL     1       2.039   3.830  17.618  0.00  0.00    +0.000 C 
ATOM     16  O   UNL     1       1.080   4.429  17.150  0.00  0.00    +0.000 OA
BRANCH  15  18
ATOM     17  C   UNL     1       1.716   1.776  18.672  0.00  0.00    +0.000 C 
ATOM     18  O   UNL     1       2.210   2.483  17.533  0.00  0.00    +0.000 OA
ENDBRANCH  15  18
ENDBRANCH   1  15
TORSDOF 2
ENDMDL
MODEL 3
REMARK VINA RESULT:      -6.8      2.512      4.556
REMARK  Name = 
REMARK  5 active torsions:
REMARK  status: ('A' for Active; 'I' for Inactive)
REMARK    1  A    between atoms: C_1  and  O_2
REMARK    2  A    between atoms: O_2  and  C_3
REMARK    3  A    between atoms: C_3  and  C_5
REMARK    4  A    between atoms: C_6  and  C_7
REMARK    5  A    between atoms: N_10  and  C_11
REMARK                            x       y       z     vdW  Elec       q    Type
REMARK                         _______ _______ _______ _____ _____    ______ ____
ROOT
ATOM      1  C   UNL     1       3.291   3.353  19.908  0.00  0.00    +0.000 A 
ATOM      2  C   UNL     1       2.289   3.646  20.841  0.00  0.00    +0.000 A 
ATOM      3  C   UNL     1       1.708   2.773  21.895  0.00  0.00    +0.000 C 
ATOM      4  N   UNL     1       1.867   4.976  20.746  0.00  0.00    +0.000 NA
ATOM      5  C   UNL     1       2.577   5.467  19.768  0.00  0.00    +0.000 A 
ATOM      6  N   UNL     1       2.744   6.630  19.089  0.00  0.00    +0.000 N 
ATOM      7  C   UNL     1       2.083   7.874  19.359  0.00  0.00    +0.000 C 
ATOM      8  C   UNL     1       3.677   6.401  18.079  0.00  0.00    +0.000 A 
ATOM      9  C   UNL     1       4.194   7.225  17.105  0.00  0.00    +0.000 A 
ATOM     10  C   UNL     1       5.120   6.675  16.204  0.00  0.00    +0.000 A 
ATOM     11  C   UNL     1       5.507   5.319  16.277  0.00  0.00    +0.000 A 
ATOM     12  C   UNL     1       4.991   4.479  17.260  0.00  0.00    +0.000 A 
ATOM     13  C   UNL     1       4.103   5.053  18.139  0.00  0.00    +0.000 A 
ATOM     14  N   UNL     1       3.414   4.523  19.223  0.00  0.00    +0.000 N 
ENDROOT
BRANCH   1  15
ATOM     15  C   UNL     1       4.083   2.187  19.671  0.00  0.00    +0.000 C 
ATOM     16  O   UNL     1       5.015   1.809  20.367  0.00  0.00    +0.000 OA
BRANCH  15  18
ATOM     17  C   UNL     1       2.302   1.769  18.225  0.00  0.00    +0.000 C 
ATOM     18  O   UNL     1       3.683   1.563  18.529  0.00  0.00    +0.000 OA
ENDBRANCH  15  18
ENDBRANCH   1  15
TORSDOF 2
ENDMDL
MODEL 4
REMARK VINA RESULT:      -6.8      2.358      4.318
REMARK  Name = 
REMARK  5 active torsions:
REMARK  status: ('A' for Active; 'I' for Inactive)
REMARK    1  A    between atoms: C_1  and  O_2
REMARK    2  A    between atoms: O_2  and  C_3
REMARK    3  A    between atoms: C_3  and  C_5
REMARK    4  A    between atoms: C_6  and  C_7
REMARK    5  A    between atoms: N_10  and  C_11
REMARK                            x       y       z     vdW  Elec       q    Type
REMARK                         _______ _______ _______ _____ _____    ______ ____
ROOT
ATOM      1  C   UNL     1       3.530   3.555  19.490  0.00  0.00    +0.000 A 
ATOM      2  C   UNL     1       2.605   4.197  20.323  0.00  0.00    +0.000 A 
ATOM      3  C   UNL     1       1.919   3.676  21.534  0.00  0.00    +0.000 C 
ATOM      4  N   UNL     1       2.391   5.523  19.933  0.00  0.00    +0.000 NA
ATOM      5  C   UNL     1       3.147   5.672  18.881  0.00  0.00    +0.000 A 
ATOM      6  N   UNL     1       3.477   6.618  17.966  0.00  0.00    +0.000 N 
ATOM      7  C   UNL     1       3.022   7.978  17.948  0.00  0.00    +0.000 C 
ATOM      8  C   UNL     1       4.342   6.032  17.042  0.00  0.00    +0.000 A 
ATOM      9  C   UNL     1       4.959   6.533  15.919  0.00  0.00    +0.000 A 
ATOM     10  C   UNL     1       5.770   5.663  15.172  0.00  0.00    +0.000 A 
ATOM     11  C   UNL     1       5.945   4.313  15.546  0.00  0.00    +0.000 A 
ATOM     12  C   UNL     1       5.326   3.798  16.683  0.00  0.00    +0.000 A 
ATOM     13  C   UNL     1       4.557   4.680  17.403  0.00  0.00    +0.000 A 
ATOM     14  N   UNL     1       3.817   4.514  18.567  0.00  0.00    +0.000 N 
ENDROOT
BRANCH   1  15
ATOM     15  C   UNL     1       4.128   2.257  19.525  0.00  0.00    +0.000 C 
ATOM     16  O   UNL     1       5.007   1.901  20.296  0.00  0.00    +0.000 OA
BRANCH  15  18
ATOM     17  C   UNL     1       2.252   1.779  18.225  0.00  0.00    +0.000 C 
ATOM     18  O   UNL     1       3.609   1.467  18.545  0.00  0.00    +0.000 OA
ENDBRANCH  15  18
ENDBRANCH   1  15
TORSDOF 2
ENDMDL
MODEL 5
REMARK VINA RESULT:      -6.8      2.649      4.710
REMARK  Name = 
REMARK  5 active torsions:
REMARK  status: ('A' for Active; 'I' for Inactive)
REMARK    1  A    between atoms: C_1  and  O_2
REMARK    2  A    between atoms: O_2  and  C_3
REMARK    3  A    between atoms: C_3  and  C_5
REMARK    4  A    between atoms: C_6  and  C_7
REMARK    5  A    between atoms: N_10  and  C_11
REMARK                            x       y       z     vdW  Elec       q    Type
REMARK                         _______ _______ _______ _____ _____    ______ ____
ROOT
ATOM      1  C   UNL     1       3.174   3.305  19.724  0.00  0.00    +0.000 A 
ATOM      2  C   UNL     1       2.194   3.602  20.679  0.00  0.00    +0.000 A 
ATOM      3  C   UNL     1       1.602   2.718  21.718  0.00  0.00    +0.000 C 
ATOM      4  N   UNL     1       1.809   4.945  20.626  0.00  0.00    +0.000 NA
ATOM      5  C   UNL     1       2.520   5.442  19.651  0.00  0.00    +0.000 A 
ATOM      6  N   UNL     1       2.711   6.617  19.000  0.00  0.00    +0.000 N 
ATOM      7  C   UNL     1       2.090   7.871  19.312  0.00  0.00    +0.000 C 
ATOM      8  C   UNL     1       3.623   6.388  17.970  0.00  0.00    +0.000 A 
ATOM      9  C   UNL     1       4.151   7.223  17.012  0.00  0.00    +0.000 A 
ATOM     10  C   UNL     1       5.047   6.671  16.083  0.00  0.00    +0.000 A 
ATOM     11  C   UNL     1       5.396   5.303  16.114  0.00  0.00    +0.000 A 
ATOM     12  C   UNL     1       4.869   4.452  17.083  0.00  0.00    +0.000 A 
ATOM     13  C   UNL     1       4.011   5.027  17.989  0.00  0.00    +0.000 A 
ATOM     14  N   UNL     1       3.321   4.489  19.069  0.00  0.00    +0.000 N 
ENDROOT
BRANCH   1  15
ATOM     15  C   UNL     1       3.928   2.124  19.445  0.00  0.00    +0.000 C 
ATOM     16  O   UNL     1       3.581   1.219  18.700  0.00  0.00    +0.000 OA
BRANCH  15  18
ATOM     17  C   UNL     1       5.122   1.110  21.173  0.00  0.00    +0.000 C 
ATOM     18  O   UNL     1       5.087   2.118  20.161  0.00  0.00    +0.000 OA
ENDBRANCH  15  18
ENDBRANCH   1  15
TORSDOF 2
ENDMDL
MODEL 6
REMARK VINA RESULT:      -6.7      2.112      3.747
REMARK  Name = 
REMARK  5 active torsions:
REMARK  status: ('A' for Active; 'I' for Inactive)
REMARK    1  A    between atoms: C_1  and  O_2
REMARK    2  A    between atoms: O_2  and  C_3
REMARK    3  A    between atoms: C_3  and  C_5
REMARK    4  A    between atoms: C_6  and  C_7
REMARK    5  A    between atoms: N_10  and  C_11
REMARK                            x       y       z     vdW  Elec       q    Type
REMARK                         _______ _______ _______ _____ _____    ______ ____
ROOT
ATOM      1  C   UNL     1       4.754   5.338  16.793  0.00  0.00    +0.000 A 
ATOM      2  C   UNL     1       5.049   4.030  16.390  0.00  0.00    +0.000 A 
ATOM      3  C   UNL     1       5.950   3.568  15.301  0.00  0.00    +0.000 C 
ATOM      4  N   UNL     1       4.421   3.083  17.205  0.00  0.00    +0.000 NA
ATOM      5  C   UNL     1       3.746   3.797  18.063  0.00  0.00    +0.000 A 
ATOM      6  N   UNL     1       2.912   3.635  19.121  0.00  0.00    +0.000 N 
ATOM      7  C   UNL     1       2.520   2.387  19.709  0.00  0.00    +0.000 C 
ATOM      8  C   UNL     1       2.503   4.901  19.537  0.00  0.00    +0.000 A 
ATOM      9  C   UNL     1       1.659   5.305  20.545  0.00  0.00    +0.000 A 
ATOM     10  C   UNL     1       1.428   6.682  20.697  0.00  0.00    +0.000 A 
ATOM     11  C   UNL     1       2.030   7.630  19.841  0.00  0.00    +0.000 A 
ATOM     12  C   UNL     1       2.888   7.230  18.819  0.00  0.00    +0.000 A 
ATOM     13  C   UNL     1       3.109   5.878  18.711  0.00  0.00    +0.000 A 
ATOM     14  N   UNL     1       3.894   5.144  17.831  0.00  0.00    +0.000 N 
ENDROOT
BRANCH   1  15
ATOM     15  C   UNL     1       5.209   6.616  16.345  0.00  0.00    +0.000 C 
ATOM     16  O   UNL     1       4.993   7.099  15.242  0.00  0.00    +0.000 OA
BRANCH  15  18
ATOM     17  C   UNL     1       7.318   6.770  17.328  0.00  0.00    +0.000 C 
ATOM     18  O   UNL     1       5.961   7.219  17.306  0.00  0.00    +0.000 OA
ENDBRANCH  15  18
ENDBRANCH   1  15
TORSDOF 2
ENDMDL
MODEL 7
REMARK VINA RESULT:      -6.6      2.264      3.188
REMARK  Name = 
REMARK  5 active torsions:
REMARK  status: ('A' for Active; 'I' for Inactive)
REMARK    1  A    between atoms: C_1  and  O_2
REMARK    2  A    between atoms: O_2  and  C_3
REMARK    3  A    between atoms: C_3  and  C_5
REMARK    4  A    between atoms: C_6  and  C_7
REMARK    5  A    between atoms: N_10  and  C_11
REMARK                            x       y       z     vdW  Elec       q    Type
REMARK                         _______ _______ _______ _____ _____    ______ ____
ROOT
ATOM      1  C   UNL     1       5.125   5.777  17.961  0.00  0.00    +0.000 A 
ATOM      2  C   UNL     1       6.406   5.555  18.481  0.00  0.00    +0.000 A 
ATOM      3  C   UNL     1       7.635   6.375  18.322  0.00  0.00    +0.000 C 
ATOM      4  N   UNL     1       6.443   4.421  19.299  0.00  0.00    +0.000 NA
ATOM      5  C   UNL     1       5.225   3.957  19.257  0.00  0.00    +0.000 A 
ATOM      6  N   UNL     1       4.487   2.931  19.750  0.00  0.00    +0.000 N 
ATOM      7  C   UNL     1       4.939   1.922  20.663  0.00  0.00    +0.000 C 
ATOM      8  C   UNL     1       3.205   3.032  19.211  0.00  0.00    +0.000 A 
ATOM      9  C   UNL     1       2.082   2.252  19.367  0.00  0.00    +0.000 A 
ATOM     10  C   UNL     1       0.927   2.614  18.654  0.00  0.00    +0.000 A 
ATOM     11  C   UNL     1       0.911   3.734  17.794  0.00  0.00    +0.000 A 
ATOM     12  C   UNL     1       2.042   4.530  17.633  0.00  0.00    +0.000 A 
ATOM     13  C   UNL     1       3.149   4.161  18.360  0.00  0.00    +0.000 A 
ATOM     14  N   UNL     1       4.418   4.718  18.445  0.00  0.00    +0.000 N 
ENDROOT
BRANCH   1  15
ATOM     15  C   UNL     1       4.573   6.824  17.161  0.00  0.00    +0.000 C 
ATOM     16  O   UNL     1       3.619   7.524  17.469  0.00  0.00    +0.000 OA
BRANCH  15  18
ATOM     17  C   UNL     1       5.310   5.676  15.271  0.00  0.00    +0.000 C 
ATOM     18  O   UNL     1       5.233   6.917  15.975  0.00  0.00    +0.000 OA
ENDBRANCH  15  18
ENDBRANCH   1  15
TORSDOF 2
ENDMDL
MODEL 8
REMARK VINA RESULT:      -6.5      2.207      4.524
REMARK  Name = 
REMARK  5 active torsions:
REMARK  status: ('A' for Active; 'I' for Inactive)
REMARK    1  A    between atoms: C_1  and  O_2
REMARK    2  A    between atoms: O_2  and  C_3
REMARK    3  A    between atoms: C_3  and  C_5
REMARK    4  A    between atoms: C_6  and  C_7
REMARK    5  A    between atoms: N_10  and  C_11
REMARK                            x       y       z     vdW  Elec       q    Type
REMARK                         _______ _______ _______ _____ _____    ______ ____
ROOT
ATOM      1  C   UNL     1       3.403   3.560  19.444  0.00  0.00    +0.000 A 
ATOM      2  C   UNL     1       2.096   3.986  19.710  0.00  0.00    +0.000 A 
ATOM      3  C   UNL     1       1.003   3.267  20.416  0.00  0.00    +0.000 C 
ATOM      4  N   UNL     1       1.881   5.298  19.274  0.00  0.00    +0.000 NA
ATOM      5  C   UNL     1       3.018   5.647  18.739  0.00  0.00    +0.000 A 
ATOM      6  N   UNL     1       3.590   6.707  18.115  0.00  0.00    +0.000 N 
ATOM      7  C   UNL     1       2.981   7.984  17.882  0.00  0.00    +0.000 C 
ATOM      8  C   UNL     1       4.880   6.335  17.742  0.00  0.00    +0.000 A 
ATOM      9  C   UNL     1       5.875   7.017  17.078  0.00  0.00    +0.000 A 
ATOM     10  C   UNL     1       7.080   6.342  16.828  0.00  0.00    +0.000 A 
ATOM     11  C   UNL     1       7.274   5.002  17.231  0.00  0.00    +0.000 A 
ATOM     12  C   UNL     1       6.274   4.305  17.906  0.00  0.00    +0.000 A 
ATOM     13  C   UNL     1       5.115   5.001  18.153  0.00  0.00    +0.000 A 
ATOM     14  N   UNL     1       3.940   4.628  18.793  0.00  0.00    +0.000 N 
ENDROOT
BRANCH   1  15
ATOM     15  C   UNL     1       4.115   2.363  19.764  0.00  0.00    +0.000 C 
ATOM     16  O   UNL     1       5.030   2.275  20.570  0.00  0.00    +0.000 OA
BRANCH  15  18
ATOM     17  C   UNL     1       3.484   1.655  17.634  0.00  0.00    +0.000 C 
ATOM     18  O   UNL     1       3.661   1.322  19.012  0.00  0.00    +0.000 OA
ENDBRANCH  15  18
ENDBRANCH   1  15
TORSDOF 2
ENDMDL
MODEL 9
REMARK VINA RESULT:      -6.5      2.319      3.644
REMARK  Name = 
REMARK  5 active torsions:
REMARK  status: ('A' for Active; 'I' for Inactive)
REMARK    1  A    between atoms: C_1  and  O_2
REMARK    2  A    between atoms: O_2  and  C_3
REMARK    3  A    between atoms: C_3  and  C_5
REMARK    4  A    between atoms: C_6  and  C_7
REMARK    5  A    between atoms: N_10  and  C_11
REMARK                            x       y       z     vdW  Elec       q    Type
REMARK                         _______ _______ _______ _____ _____    ______ ____
ROOT
ATOM      1  C   UNL     1       4.913   5.799  18.023  0.00  0.00    +0.000 A 
ATOM      2  C   UNL     1       6.230   5.574  18.445  0.00  0.00    +0.000 A 
ATOM      3  C   UNL     1       7.432   6.428  18.254  0.00  0.00    +0.000 C 
ATOM      4  N   UNL     1       6.340   4.397  19.192  0.00  0.00    +0.000 NA
ATOM      5  C   UNL     1       5.129   3.911  19.201  0.00  0.00    +0.000 A 
ATOM      6  N   UNL     1       4.443   2.843  19.681  0.00  0.00    +0.000 N 
ATOM      7  C   UNL     1       4.972   1.794  20.503  0.00  0.00    +0.000 C 
ATOM      8  C   UNL     1       3.127   2.948  19.234  0.00  0.00    +0.000 A 
ATOM      9  C   UNL     1       2.030   2.137  19.416  0.00  0.00    +0.000 A 
ATOM     10  C   UNL     1       0.825   2.515  18.802  0.00  0.00    +0.000 A 
ATOM     11  C   UNL     1       0.733   3.681  18.011  0.00  0.00    +0.000 A 
ATOM     12  C   UNL     1       1.837   4.509  17.824  0.00  0.00    +0.000 A 
ATOM     13  C   UNL     1       2.996   4.122  18.455  0.00  0.00    +0.000 A 
ATOM     14  N   UNL     1       4.258   4.700  18.489  0.00  0.00    +0.000 N 
ENDROOT
BRANCH   1  15
ATOM     15  C   UNL     1       4.292   6.878  17.323  0.00  0.00    +0.000 C 
ATOM     16  O   UNL     1       4.433   7.128  16.134  0.00  0.00    +0.000 OA
BRANCH  15  18
ATOM     17  C   UNL     1       2.415   8.243  17.543  0.00  0.00    +0.000 C 
ATOM     18  O   UNL     1       3.540   7.628  18.174  0.00  0.00    +0.000 OA
ENDBRANCH  15  18
ENDBRANCH   1  15
TORSDOF 2
ENDMDL
