MODEL 1
REMARK VINA RESULT:      -8.1      0.000      0.000
REMARK  Name = 
REMARK  9 active torsions:
REMARK  status: ('A' for Active; 'I' for Inactive)
REMARK    1  A    between atoms: C_2  and  O_3
REMARK    2  A    between atoms: C_2  and  C_4
REMARK    3  A    between atoms: C_5  and  C_6
REMARK    4  A    between atoms: C_6  and  C_7
REMARK    5  A    between atoms: C_22  and  C_24
REMARK    6  A    between atoms: C_24  and  C_25
REMARK    7  A    between atoms: C_25  and  C_26
REMARK    8  A    between atoms: C_26  and  C_27
REMARK    9  A    between atoms: C_27  and  C_28
REMARK                            x       y       z     vdW  Elec       q    Type
REMARK                         _______ _______ _______ _____ _____    ______ ____
ROOT
ATOM      1  C   UNL     1      -2.168  11.667  19.693  0.00  0.00    +0.000 C 
ATOM      2  C   UNL     1      -2.999  12.907  20.129  0.00  0.00    +0.000 C 
ATOM      3  C   UNL     1      -1.997  12.998  21.280  0.00  0.00    +0.000 C 
ATOM      4  O   UNL     1      -1.864  13.745  22.224  0.00  0.00    +0.000 OA
ATOM      5  N   UNL     1      -1.158  12.067  20.723  0.00  0.00    +0.000 N 
ATOM      6  C   UNL     1      -0.511  11.178  21.557  0.00  0.00    +0.000 C 
ATOM      7  O   UNL     1      -0.824  11.036  22.739  0.00  0.00    +0.000 OA
ATOM      8  N   UNL     1       0.470  10.387  20.988  0.00  0.00    +0.000 N 
ATOM      9  C   UNL     1       1.129   9.351  21.801  0.00  0.00    +0.000 C 
ATOM     10  C   UNL     1       1.215   8.017  21.043  0.00  0.00    +0.000 C 
ATOM     11  N   UNL     1       1.736   8.193  19.676  0.00  0.00    +0.000 N 
ATOM     12  C   UNL     1       2.615   7.260  19.166  0.00  0.00    +0.000 C 
ATOM     13  O   UNL     1       3.018   6.306  19.832  0.00  0.00    +0.000 OA
ATOM     14  C   UNL     1       1.077   9.257  18.901  0.00  0.00    +0.000 C 
ATOM     15  C   UNL     1       1.095  10.576  19.681  0.00  0.00    +0.000 C 
ENDROOT
BRANCH   1  17
ATOM     16  O   UNL     1      -1.712  10.682  17.427  0.00  0.00    +0.000 OA
ATOM     17  C   UNL     1      -1.684  11.628  18.207  0.00  0.00    +0.000 C 
BRANCH  17  18
ATOM     18  O   UNL     1      -1.170  12.798  17.754  0.00  0.00    +0.000 OA
ATOM     19  H   UNL     1      -1.798  13.488  18.061  0.00  0.00    +0.000 HD
ENDBRANCH  17  18
ENDBRANCH   1  17
BRANCH   2  20
ATOM     20  C   UNL     1      -4.473  12.611  20.410  0.00  0.00    +0.000 C 
BRANCH  20  21
ATOM     21  C   UNL     1      -5.402  13.011  19.240  0.00  0.00    +0.000 C 
ATOM     22  C   UNL     1      -6.900  12.993  19.573  0.00  0.00    +0.000 C 
ATOM     23  C   UNL     1      -7.446  11.577  19.757  0.00  0.00    +0.000 C 
ATOM     24  N   UNL     1      -7.196  10.737  18.582  0.00  0.00    +0.000 NA
ATOM     25  C   UNL     1      -5.780  10.700  18.219  0.00  0.00    +0.000 C 
ATOM     26  C   UNL     1      -5.186  12.097  18.020  0.00  0.00    +0.000 C 
ATOM     27  H   UNL     1      -7.736  11.100  17.796  0.00  0.00    +0.000 HD
ENDBRANCH  20  21
ENDBRANCH   2  20
BRANCH  12  28
ATOM     28  C   UNL     1       3.088   7.482  17.736  0.00  0.00    +0.000 C 
BRANCH  28  29
ATOM     29  C   UNL     1       4.536   7.050  17.524  0.00  0.00    +0.000 C 
BRANCH  29  30
ATOM     30  C   UNL     1       4.695   6.331  16.188  0.00  0.00    +0.000 C 
BRANCH  30  31
ATOM     31  C   UNL     1       5.276   4.930  16.375  0.00  0.00    +0.000 C 
BRANCH  31  32
ATOM     32  C   UNL     1       4.472   4.161  17.394  0.00  0.00    +0.000 A 
ATOM     33  C   UNL     1       5.036   3.821  18.631  0.00  0.00    +0.000 A 
ATOM     34  C   UNL     1       4.322   3.044  19.543  0.00  0.00    +0.000 A 
ATOM     35  C   UNL     1       3.039   2.598  19.225  0.00  0.00    +0.000 A 
ATOM     36  C   UNL     1       2.466   2.939  18.000  0.00  0.00    +0.000 A 
ATOM     37  C   UNL     1       3.180   3.716  17.087  0.00  0.00    +0.000 A 
ENDBRANCH  31  32
ENDBRANCH  30  31
ENDBRANCH  29  30
ENDBRANCH  28  29
ENDBRANCH  12  28
TORSDOF 9
ENDMDL
MODEL 2
REMARK VINA RESULT:      -7.8      1.816      2.401
REMARK  Name = 
REMARK  9 active torsions:
REMARK  status: ('A' for Active; 'I' for Inactive)
REMARK    1  A    between atoms: C_2  and  O_3
REMARK    2  A    between atoms: C_2  and  C_4
REMARK    3  A    between atoms: C_5  and  C_6
REMARK    4  A    between atoms: C_6  and  C_7
REMARK    5  A    between atoms: C_22  and  C_24
REMARK    6  A    between atoms: C_24  and  C_25
REMARK    7  A    between atoms: C_25  and  C_26
REMARK    8  A    between atoms: C_26  and  C_27
REMARK    9  A    between atoms: C_27  and  C_28
REMARK                            x       y       z     vdW  Elec       q    Type
REMARK                         _______ _______ _______ _____ _____    ______ ____
ROOT
ATOM      1  C   UNL     1      -2.048  11.964  20.480  0.00  0.00    +0.000 C 
ATOM      2  C   UNL     1      -2.770  13.207  21.074  0.00  0.00    +0.000 C 
ATOM      3  C   UNL     1      -1.706  13.125  22.169  0.00  0.00    +0.000 C 
ATOM      4  O   UNL     1      -1.475  13.769  23.168  0.00  0.00    +0.000 OA
ATOM      5  N   UNL     1      -0.962  12.200  21.482  0.00  0.00    +0.000 N 
ATOM      6  C   UNL     1      -0.335  11.197  22.192  0.00  0.00    +0.000 C 
ATOM      7  O   UNL     1      -0.596  10.963  23.372  0.00  0.00    +0.000 OA
ATOM      8  N   UNL     1       0.559  10.403  21.498  0.00  0.00    +0.000 N 
ATOM      9  C   UNL     1       1.187   9.255  22.174  0.00  0.00    +0.000 C 
ATOM     10  C   UNL     1       1.143   7.997  21.294  0.00  0.00    +0.000 C 
ATOM     11  N   UNL     1       1.604   8.269  19.921  0.00  0.00    +0.000 N 
ATOM     12  C   UNL     1       2.390   7.335  19.277  0.00  0.00    +0.000 C 
ATOM     13  O   UNL     1       2.760   6.299  19.830  0.00  0.00    +0.000 OA
ATOM     14  C   UNL     1       0.980   9.441  19.285  0.00  0.00    +0.000 C 
ATOM     15  C   UNL     1       1.128  10.676  20.181  0.00  0.00    +0.000 C 
ENDROOT
BRANCH   1  17
ATOM     16  O   UNL     1      -1.795  11.181  18.106  0.00  0.00    +0.000 OA
ATOM     17  C   UNL     1      -1.645  12.036  18.971  0.00  0.00    +0.000 C 
BRANCH  17  18
ATOM     18  O   UNL     1      -1.053  13.200  18.603  0.00  0.00    +0.000 OA
ATOM     19  H   UNL     1      -1.227  13.820  19.345  0.00  0.00    +0.000 HD
ENDBRANCH  17  18
ENDBRANCH   1  17
BRANCH   2  20
ATOM     20  C   UNL     1      -4.244  12.979  21.410  0.00  0.00    +0.000 C 
BRANCH  20  21
ATOM     21  C   UNL     1      -5.077  14.282  21.385  0.00  0.00    +0.000 C 
ATOM     22  C   UNL     1      -4.531  15.413  22.268  0.00  0.00    +0.000 C 
ATOM     23  C   UNL     1      -4.695  15.127  23.760  0.00  0.00    +0.000 C 
ATOM     24  N   UNL     1      -6.091  14.859  24.116  0.00  0.00    +0.000 NA
ATOM     25  C   UNL     1      -6.668  13.778  23.318  0.00  0.00    +0.000 C 
ATOM     26  C   UNL     1      -6.533  14.020  21.813  0.00  0.00    +0.000 C 
ATOM     27  H   UNL     1      -6.636  15.710  23.976  0.00  0.00    +0.000 HD
ENDBRANCH  20  21
ENDBRANCH   2  20
BRANCH  12  28
ATOM     28  C   UNL     1       2.803   7.661  17.850  0.00  0.00    +0.000 C 
BRANCH  28  29
ATOM     29  C   UNL     1       4.268   7.334  17.574  0.00  0.00    +0.000 C 
BRANCH  29  30
ATOM     30  C   UNL     1       4.386   6.172  16.593  0.00  0.00    +0.000 C 
BRANCH  30  31
ATOM     31  C   UNL     1       5.248   5.046  17.164  0.00  0.00    +0.000 C 
BRANCH  31  32
ATOM     32  C   UNL     1       4.379   4.004  17.824  0.00  0.00    +0.000 A 
ATOM     33  C   UNL     1       3.199   3.571  17.206  0.00  0.00    +0.000 A 
ATOM     34  C   UNL     1       2.355   2.667  17.851  0.00  0.00    +0.000 A 
ATOM     35  C   UNL     1       2.683   2.190  19.120  0.00  0.00    +0.000 A 
ATOM     36  C   UNL     1       3.860   2.609  19.739  0.00  0.00    +0.000 A 
ATOM     37  C   UNL     1       4.704   3.514  19.095  0.00  0.00    +0.000 A 
ENDBRANCH  31  32
ENDBRANCH  30  31
ENDBRANCH  29  30
ENDBRANCH  28  29
ENDBRANCH  12  28
TORSDOF 9
ENDMDL
MODEL 3
REMARK VINA RESULT:      -7.7      1.391      1.938
REMARK  Name = 
REMARK  9 active torsions:
REMARK  status: ('A' for Active; 'I' for Inactive)
REMARK    1  A    between atoms: C_2  and  O_3
REMARK    2  A    between atoms: C_2  and  C_4
REMARK    3  A    between atoms: C_5  and  C_6
REMARK    4  A    between atoms: C_6  and  C_7
REMARK    5  A    between atoms: C_22  and  C_24
REMARK    6  A    between atoms: C_24  and  C_25
REMARK    7  A    between atoms: C_25  and  C_26
REMARK    8  A    between atoms: C_26  and  C_27
REMARK    9  A    between atoms: C_27  and  C_28
REMARK                            x       y       z     vdW  Elec       q    Type
REMARK                         _______ _______ _______ _____ _____    ______ ____
ROOT
ATOM      1  C   UNL     1      -1.994  11.904  19.803  0.00  0.00    +0.000 C 
ATOM      2  C   UNL     1      -2.733  13.214  20.195  0.00  0.00    +0.000 C 
ATOM      3  C   UNL     1      -1.700  13.294  21.320  0.00  0.00    +0.000 C 
ATOM      4  O   UNL     1      -1.498  14.074  22.223  0.00  0.00    +0.000 OA
ATOM      5  N   UNL     1      -0.936  12.284  20.791  0.00  0.00    +0.000 N 
ATOM      6  C   UNL     1      -0.328  11.396  21.654  0.00  0.00    +0.000 C 
ATOM      7  O   UNL     1      -0.622  11.330  22.847  0.00  0.00    +0.000 OA
ATOM      8  N   UNL     1       0.586  10.516  21.104  0.00  0.00    +0.000 N 
ATOM      9  C   UNL     1       1.196   9.479  21.953  0.00  0.00    +0.000 C 
ATOM     10  C   UNL     1       1.178   8.108  21.259  0.00  0.00    +0.000 C 
ATOM     11  N   UNL     1       1.677   8.185  19.875  0.00  0.00    +0.000 N 
ATOM     12  C   UNL     1       2.482   7.174  19.392  0.00  0.00    +0.000 C 
ATOM     13  O   UNL     1       2.838   6.228  20.096  0.00  0.00    +0.000 OA
ATOM     14  C   UNL     1       1.069   9.252  19.063  0.00  0.00    +0.000 C 
ATOM     15  C   UNL     1       1.191  10.602  19.777  0.00  0.00    +0.000 C 
ENDROOT
BRANCH   1  17
ATOM     16  O   UNL     1      -1.604  10.769  17.595  0.00  0.00    +0.000 OA
ATOM     17  C   UNL     1      -1.548  11.763  18.311  0.00  0.00    +0.000 C 
BRANCH  17  18
ATOM     18  O   UNL     1      -1.036  12.896  17.769  0.00  0.00    +0.000 OA
ATOM     19  H   UNL     1      -0.586  12.604  16.946  0.00  0.00    +0.000 HD
ENDBRANCH  17  18
ENDBRANCH   1  17
BRANCH   2  20
ATOM     20  C   UNL     1      -4.216  13.029  20.519  0.00  0.00    +0.000 C 
BRANCH  20  21
ATOM     21  C   UNL     1      -4.630  13.694  21.853  0.00  0.00    +0.000 C 
ATOM     22  C   UNL     1      -5.681  12.919  22.660  0.00  0.00    +0.000 C 
ATOM     23  C   UNL     1      -7.064  12.951  22.009  0.00  0.00    +0.000 C 
ATOM     24  N   UNL     1      -7.532  14.321  21.784  0.00  0.00    +0.000 NA
ATOM     25  C   UNL     1      -6.578  15.111  21.007  0.00  0.00    +0.000 C 
ATOM     26  C   UNL     1      -5.176  15.115  21.620  0.00  0.00    +0.000 C 
ATOM     27  H   UNL     1      -7.684  14.770  22.688  0.00  0.00    +0.000 HD
ENDBRANCH  20  21
ENDBRANCH   2  20
BRANCH  12  28
ATOM     28  C   UNL     1       2.934   7.296  17.945  0.00  0.00    +0.000 C 
BRANCH  28  29
ATOM     29  C   UNL     1       4.334   6.731  17.718  0.00  0.00    +0.000 C 
BRANCH  29  30
ATOM     30  C   UNL     1       4.346   5.779  16.526  0.00  0.00    +0.000 C 
BRANCH  30  31
ATOM     31  C   UNL     1       4.857   4.395  16.924  0.00  0.00    +0.000 C 
BRANCH  31  32
ATOM     32  C   UNL     1       3.860   3.707  17.824  0.00  0.00    +0.000 A 
ATOM     33  C   UNL     1       2.518   3.593  17.437  0.00  0.00    +0.000 A 
ATOM     34  C   UNL     1       1.580   3.027  18.301  0.00  0.00    +0.000 A 
ATOM     35  C   UNL     1       1.976   2.573  19.559  0.00  0.00    +0.000 A 
ATOM     36  C   UNL     1       3.311   2.675  19.949  0.00  0.00    +0.000 A 
ATOM     37  C   UNL     1       4.249   3.241  19.086  0.00  0.00    +0.000 A 
ENDBRANCH  31  32
ENDBRANCH  30  31
ENDBRANCH  29  30
ENDBRANCH  28  29
ENDBRANCH  12  28
TORSDOF 9
ENDMDL
MODEL 4
REMARK VINA RESULT:      -7.6      2.289      3.856
REMARK  Name = 
REMARK  9 active torsions:
REMARK  status: ('A' for Active; 'I' for Inactive)
REMARK    1  A    between atoms: C_2  and  O_3
REMARK    2  A    between atoms: C_2  and  C_4
REMARK    3  A    between atoms: C_5  and  C_6
REMARK    4  A    between atoms: C_6  and  C_7
REMARK    5  A    between atoms: C_22  and  C_24
REMARK    6  A    between atoms: C_24  and  C_25
REMARK    7  A    between atoms: C_25  and  C_26
REMARK    8  A    between atoms: C_26  and  C_27
REMARK    9  A    between atoms: C_27  and  C_28
REMARK                            x       y       z     vdW  Elec       q    Type
REMARK                         _______ _______ _______ _____ _____    ______ ____
ROOT
ATOM      1  C   UNL     1       0.416   9.860  18.728  0.00  0.00    +0.000 C 
ATOM      2  C   UNL     1      -0.139  11.270  19.077  0.00  0.00    +0.000 C 
ATOM      3  C   UNL     1      -0.020  10.802  20.529  0.00  0.00    +0.000 C 
ATOM      4  O   UNL     1      -0.268  11.309  21.599  0.00  0.00    +0.000 OA
ATOM      5  N   UNL     1       0.695   9.682  20.188  0.00  0.00    +0.000 N 
ATOM      6  C   UNL     1       0.462   8.513  20.882  0.00  0.00    +0.000 C 
ATOM      7  O   UNL     1      -0.507   8.372  21.629  0.00  0.00    +0.000 OA
ATOM      8  N   UNL     1       1.331   7.463  20.649  0.00  0.00    +0.000 N 
ATOM      9  C   UNL     1       1.079   6.158  21.285  0.00  0.00    +0.000 C 
ATOM     10  C   UNL     1       1.226   5.008  20.276  0.00  0.00    +0.000 C 
ATOM     11  N   UNL     1       2.471   5.117  19.496  0.00  0.00    +0.000 N 
ATOM     12  C   UNL     1       3.190   3.973  19.212  0.00  0.00    +0.000 C 
ATOM     13  O   UNL     1       2.850   2.866  19.629  0.00  0.00    +0.000 OA
ATOM     14  C   UNL     1       2.708   6.442  18.900  0.00  0.00    +0.000 C 
ATOM     15  C   UNL     1       2.624   7.533  19.973  0.00  0.00    +0.000 C 
ENDROOT
BRANCH   1  17
ATOM     16  O   UNL     1       2.037   8.854  17.093  0.00  0.00    +0.000 OA
ATOM     17  C   UNL     1       1.644   9.803  17.762  0.00  0.00    +0.000 C 
BRANCH  17  18
ATOM     18  O   UNL     1       2.346  10.961  17.679  0.00  0.00    +0.000 OA
ATOM     19  H   UNL     1       2.059  11.490  18.456  0.00  0.00    +0.000 HD
ENDBRANCH  17  18
ENDBRANCH   1  17
BRANCH   2  20
ATOM     20  C   UNL     1      -1.510  11.575  18.474  0.00  0.00    +0.000 C 
BRANCH  20  21
ATOM     21  C   UNL     1      -2.281  10.302  18.052  0.00  0.00    +0.000 C 
ATOM     22  C   UNL     1      -2.129   9.917  16.575  0.00  0.00    +0.000 C 
ATOM     23  C   UNL     1      -2.853  10.883  15.637  0.00  0.00    +0.000 C 
ATOM     24  N   UNL     1      -4.276  11.003  15.966  0.00  0.00    +0.000 NA
ATOM     25  C   UNL     1      -4.490  11.383  17.362  0.00  0.00    +0.000 C 
ATOM     26  C   UNL     1      -3.787  10.442  18.344  0.00  0.00    +0.000 C 
ATOM     27  H   UNL     1      -4.733  10.108  15.787  0.00  0.00    +0.000 HD
ENDBRANCH  20  21
ENDBRANCH   2  20
BRANCH  12  28
ATOM     28  C   UNL     1       4.446   4.150  18.372  0.00  0.00    +0.000 C 
BRANCH  28  29
ATOM     29  C   UNL     1       4.375   3.400  17.045  0.00  0.00    +0.000 C 
BRANCH  29  30
ATOM     30  C   UNL     1       4.965   4.241  15.917  0.00  0.00    +0.000 C 
BRANCH  30  31
ATOM     31  C   UNL     1       6.490   4.141  15.887  0.00  0.00    +0.000 C 
BRANCH  31  32
ATOM     32  C   UNL     1       7.098   5.131  16.849  0.00  0.00    +0.000 A 
ATOM     33  C   UNL     1       7.680   4.690  18.045  0.00  0.00    +0.000 A 
ATOM     34  C   UNL     1       8.172   5.610  18.972  0.00  0.00    +0.000 A 
ATOM     35  C   UNL     1       8.086   6.977  18.710  0.00  0.00    +0.000 A 
ATOM     36  C   UNL     1       7.516   7.424  17.519  0.00  0.00    +0.000 A 
ATOM     37  C   UNL     1       7.023   6.506  16.593  0.00  0.00    +0.000 A 
ENDBRANCH  31  32
ENDBRANCH  30  31
ENDBRANCH  29  30
ENDBRANCH  28  29
ENDBRANCH  12  28
TORSDOF 9
ENDMDL
MODEL 5
REMARK VINA RESULT:      -7.6      1.460      1.951
REMARK  Name = 
REMARK  9 active torsions:
REMARK  status: ('A' for Active; 'I' for Inactive)
REMARK    1  A    between atoms: C_2  and  O_3
REMARK    2  A    between atoms: C_2  and  C_4
REMARK    3  A    between atoms: C_5  and  C_6
REMARK    4  A    between atoms: C_6  and  C_7
REMARK    5  A    between atoms: C_22  and  C_24
REMARK    6  A    between atoms: C_24  and  C_25
REMARK    7  A    between atoms: C_25  and  C_26
REMARK    8  A    between atoms: C_26  and  C_27
REMARK    9  A    between atoms: C_27  and  C_28
REMARK                            x       y       z     vdW  Elec       q    Type
REMARK                         _______ _______ _______ _____ _____    ______ ____
ROOT
ATOM      1  C   UNL     1      -1.599  12.792  20.119  0.00  0.00    +0.000 C 
ATOM      2  C   UNL     1      -2.167  14.128  20.678  0.00  0.00    +0.000 C 
ATOM      3  C   UNL     1      -1.221  13.875  21.852  0.00  0.00    +0.000 C 
ATOM      4  O   UNL     1      -0.975  14.468  22.878  0.00  0.00    +0.000 OA
ATOM      5  N   UNL     1      -0.575  12.850  21.209  0.00  0.00    +0.000 N 
ATOM      6  C   UNL     1      -0.170  11.757  21.947  0.00  0.00    +0.000 C 
ATOM      7  O   UNL     1      -0.559  11.559  23.098  0.00  0.00    +0.000 OA
ATOM      8  N   UNL     1       0.645  10.839  21.311  0.00  0.00    +0.000 N 
ATOM      9  C   UNL     1       1.031   9.603  22.013  0.00  0.00    +0.000 C 
ATOM     10  C   UNL     1       0.866   8.372  21.107  0.00  0.00    +0.000 C 
ATOM     11  N   UNL     1       1.473   8.579  19.781  0.00  0.00    +0.000 N 
ATOM     12  C   UNL     1       2.156   7.539  19.184  0.00  0.00    +0.000 C 
ATOM     13  O   UNL     1       2.315   6.454  19.744  0.00  0.00    +0.000 OA
ATOM     14  C   UNL     1       1.090   9.837  19.120  0.00  0.00    +0.000 C 
ATOM     15  C   UNL     1       1.354  11.029  20.048  0.00  0.00    +0.000 C 
ENDROOT
BRANCH   1  17
ATOM     16  O   UNL     1      -0.008  13.265  18.233  0.00  0.00    +0.000 OA
ATOM     17  C   UNL     1      -1.068  12.811  18.649  0.00  0.00    +0.000 C 
BRANCH  17  18
ATOM     18  O   UNL     1      -1.909  12.252  17.741  0.00  0.00    +0.000 OA
ATOM     19  H   UNL     1      -2.644  11.876  18.273  0.00  0.00    +0.000 HD
ENDBRANCH  17  18
ENDBRANCH   1  17
BRANCH   2  20
ATOM     20  C   UNL     1      -3.681  14.130  20.892  0.00  0.00    +0.000 C 
BRANCH  20  21
ATOM     21  C   UNL     1      -4.214  12.785  21.440  0.00  0.00    +0.000 C 
ATOM     22  C   UNL     1      -5.534  12.313  20.814  0.00  0.00    +0.000 C 
ATOM     23  C   UNL     1      -6.728  13.166  21.241  0.00  0.00    +0.000 C 
ATOM     24  N   UNL     1      -6.869  13.218  22.699  0.00  0.00    +0.000 NA
ATOM     25  C   UNL     1      -5.647  13.676  23.358  0.00  0.00    +0.000 C 
ATOM     26  C   UNL     1      -4.420  12.849  22.965  0.00  0.00    +0.000 C 
ATOM     27  H   UNL     1      -7.108  12.287  23.041  0.00  0.00    +0.000 HD
ENDBRANCH  20  21
ENDBRANCH   2  20
BRANCH  12  28
ATOM     28  C   UNL     1       2.728   7.806  17.800  0.00  0.00    +0.000 C 
BRANCH  28  29
ATOM     29  C   UNL     1       4.207   7.444  17.698  0.00  0.00    +0.000 C 
BRANCH  29  30
ATOM     30  C   UNL     1       4.408   6.248  16.774  0.00  0.00    +0.000 C 
BRANCH  30  31
ATOM     31  C   UNL     1       5.217   5.145  17.458  0.00  0.00    +0.000 C 
BRANCH  31  32
ATOM     32  C   UNL     1       4.297   4.067  17.977  0.00  0.00    +0.000 A 
ATOM     33  C   UNL     1       4.585   3.410  19.181  0.00  0.00    +0.000 A 
ATOM     34  C   UNL     1       3.779   2.361  19.622  0.00  0.00    +0.000 A 
ATOM     35  C   UNL     1       2.681   1.959  18.863  0.00  0.00    +0.000 A 
ATOM     36  C   UNL     1       2.382   2.612  17.668  0.00  0.00    +0.000 A 
ATOM     37  C   UNL     1       3.187   3.661  17.226  0.00  0.00    +0.000 A 
ENDBRANCH  31  32
ENDBRANCH  30  31
ENDBRANCH  29  30
ENDBRANCH  28  29
ENDBRANCH  12  28
TORSDOF 9
ENDMDL
MODEL 6
REMARK VINA RESULT:      -7.5      1.504      2.522
REMARK  Name = 
REMARK  9 active torsions:
REMARK  status: ('A' for Active; 'I' for Inactive)
REMARK    1  A    between atoms: C_2  and  O_3
REMARK    2  A    between atoms: C_2  and  C_4
REMARK    3  A    between atoms: C_5  and  C_6
REMARK    4  A    between atoms: C_6  and  C_7
REMARK    5  A    between atoms: C_22  and  C_24
REMARK    6  A    between atoms: C_24  and  C_25
REMARK    7  A    between atoms: C_25  and  C_26
REMARK    8  A    between atoms: C_26  and  C_27
REMARK    9  A    between atoms: C_27  and  C_28
REMARK                            x       y       z     vdW  Elec       q    Type
REMARK                         _______ _______ _______ _____ _____    ______ ____
ROOT
ATOM      1  C   UNL     1      -1.970  11.437  19.661  0.00  0.00    +0.000 C 
ATOM      2  C   UNL     1      -2.764  12.724  20.020  0.00  0.00    +0.000 C 
ATOM      3  C   UNL     1      -1.702  12.907  21.105  0.00  0.00    +0.000 C 
ATOM      4  O   UNL     1      -1.513  13.736  21.966  0.00  0.00    +0.000 OA
ATOM      5  N   UNL     1      -0.903  11.915  20.595  0.00  0.00    +0.000 N 
ATOM      6  C   UNL     1      -0.223  11.098  21.474  0.00  0.00    +0.000 C 
ATOM      7  O   UNL     1      -0.476  11.071  22.679  0.00  0.00    +0.000 OA
ATOM      8  N   UNL     1       0.719  10.242  20.933  0.00  0.00    +0.000 N 
ATOM      9  C   UNL     1       1.409   9.277  21.805  0.00  0.00    +0.000 C 
ATOM     10  C   UNL     1       1.441   7.877  21.172  0.00  0.00    +0.000 C 
ATOM     11  N   UNL     1       1.891   7.917  19.770  0.00  0.00    +0.000 N 
ATOM     12  C   UNL     1       2.733   6.927  19.304  0.00  0.00    +0.000 C 
ATOM     13  O   UNL     1       3.159   6.034  20.036  0.00  0.00    +0.000 OA
ATOM     14  C   UNL     1       1.203   8.914  18.933  0.00  0.00    +0.000 C 
ATOM     15  C   UNL     1       1.276  10.300  19.584  0.00  0.00    +0.000 C 
ENDROOT
BRANCH   1  17
ATOM     16  O   UNL     1      -1.728  10.268  17.450  0.00  0.00    +0.000 OA
ATOM     17  C   UNL     1      -1.565  11.252  18.162  0.00  0.00    +0.000 C 
BRANCH  17  18
ATOM     18  O   UNL     1      -0.955  12.330  17.609  0.00  0.00    +0.000 OA
ATOM     19  H   UNL     1      -0.080  12.001  17.308  0.00  0.00    +0.000 HD
ENDBRANCH  17  18
ENDBRANCH   1  17
BRANCH   2  20
ATOM     20  C   UNL     1      -4.224  12.478  20.402  0.00  0.00    +0.000 C 
BRANCH  20  21
ATOM     21  C   UNL     1      -5.220  12.937  19.310  0.00  0.00    +0.000 C 
ATOM     22  C   UNL     1      -6.690  12.958  19.748  0.00  0.00    +0.000 C 
ATOM     23  C   UNL     1      -7.269  11.556  19.937  0.00  0.00    +0.000 C 
ATOM     24  N   UNL     1      -7.130  10.739  18.729  0.00  0.00    +0.000 NA
ATOM     25  C   UNL     1      -5.745  10.667  18.266  0.00  0.00    +0.000 C 
ATOM     26  C   UNL     1      -5.120  12.048  18.057  0.00  0.00    +0.000 C 
ATOM     27  H   UNL     1      -7.711  11.139  17.992  0.00  0.00    +0.000 HD
ENDBRANCH  20  21
ENDBRANCH   2  20
BRANCH  12  28
ATOM     28  C   UNL     1       3.132   7.008  17.838  0.00  0.00    +0.000 C 
BRANCH  28  29
ATOM     29  C   UNL     1       3.712   5.696  17.316  0.00  0.00    +0.000 C 
BRANCH  29  30
ATOM     30  C   UNL     1       4.883   5.960  16.375  0.00  0.00    +0.000 C 
BRANCH  30  31
ATOM     31  C   UNL     1       5.822   4.756  16.303  0.00  0.00    +0.000 C 
BRANCH  31  32
ATOM     32  C   UNL     1       6.270   4.527  14.880  0.00  0.00    +0.000 A 
ATOM     33  C   UNL     1       7.360   5.235  14.358  0.00  0.00    +0.000 A 
ATOM     34  C   UNL     1       7.726   5.082  13.021  0.00  0.00    +0.000 A 
ATOM     35  C   UNL     1       7.005   4.222  12.195  0.00  0.00    +0.000 A 
ATOM     36  C   UNL     1       5.924   3.506  12.707  0.00  0.00    +0.000 A 
ATOM     37  C   UNL     1       5.557   3.658  14.044  0.00  0.00    +0.000 A 
ENDBRANCH  31  32
ENDBRANCH  30  31
ENDBRANCH  29  30
ENDBRANCH  28  29
ENDBRANCH  12  28
TORSDOF 9
ENDMDL
MODEL 7
REMARK VINA RESULT:      -7.4      1.685      2.684
REMARK  Name = 
REMARK  9 active torsions:
REMARK  status: ('A' for Active; 'I' for Inactive)
REMARK    1  A    between atoms: C_2  and  O_3
REMARK    2  A    between atoms: C_2  and  C_4
REMARK    3  A    between atoms: C_5  and  C_6
REMARK    4  A    between atoms: C_6  and  C_7
REMARK    5  A    between atoms: C_22  and  C_24
REMARK    6  A    between atoms: C_24  and  C_25
REMARK    7  A    between atoms: C_25  and  C_26
REMARK    8  A    between atoms: C_26  and  C_27
REMARK    9  A    between atoms: C_27  and  C_28
REMARK                            x       y       z     vdW  Elec       q    Type
REMARK                         _______ _______ _______ _____ _____    ______ ____
ROOT
ATOM      1  C   UNL     1      -2.027  12.723  20.184  0.00  0.00    +0.000 C 
ATOM      2  C   UNL     1      -2.607  14.115  20.565  0.00  0.00    +0.000 C 
ATOM      3  C   UNL     1      -1.592  14.069  21.707  0.00  0.00    +0.000 C 
ATOM      4  O   UNL     1      -1.312  14.819  22.615  0.00  0.00    +0.000 OA
ATOM      5  N   UNL     1      -0.948  12.973  21.191  0.00  0.00    +0.000 N 
ATOM      6  C   UNL     1      -0.468  12.018  22.062  0.00  0.00    +0.000 C 
ATOM      7  O   UNL     1      -0.788  11.990  23.251  0.00  0.00    +0.000 OA
ATOM      8  N   UNL     1       0.342  11.033  21.528  0.00  0.00    +0.000 N 
ATOM      9  C   UNL     1       0.806   9.930  22.386  0.00  0.00    +0.000 C 
ATOM     10  C   UNL     1       0.633   8.570  21.690  0.00  0.00    +0.000 C 
ATOM     11  N   UNL     1       1.161   8.585  20.315  0.00  0.00    +0.000 N 
ATOM     12  C   UNL     1       1.845   7.482  19.845  0.00  0.00    +0.000 C 
ATOM     13  O   UNL     1       2.071   6.501  20.554  0.00  0.00    +0.000 OA
ATOM     14  C   UNL     1       0.702   9.717  19.493  0.00  0.00    +0.000 C 
ATOM     15  C   UNL     1       0.976  11.043  20.212  0.00  0.00    +0.000 C 
ENDROOT
BRANCH   1  17
ATOM     16  O   UNL     1      -1.856  11.608  17.939  0.00  0.00    +0.000 OA
ATOM     17  C   UNL     1      -1.576  12.528  18.700  0.00  0.00    +0.000 C 
BRANCH  17  18
ATOM     18  O   UNL     1      -0.773  13.512  18.223  0.00  0.00    +0.000 OA
ATOM     19  H   UNL     1       0.112  13.327  18.608  0.00  0.00    +0.000 HD
ENDBRANCH  17  18
ENDBRANCH   1  17
BRANCH   2  20
ATOM     20  C   UNL     1      -4.107  14.112  20.863  0.00  0.00    +0.000 C 
BRANCH  20  21
ATOM     21  C   UNL     1      -4.590  12.797  21.519  0.00  0.00    +0.000 C 
ATOM     22  C   UNL     1      -5.934  12.273  20.997  0.00  0.00    +0.000 C 
ATOM     23  C   UNL     1      -7.115  13.136  21.440  0.00  0.00    +0.000 C 
ATOM     24  N   UNL     1      -7.177  13.273  22.898  0.00  0.00    +0.000 NA
ATOM     25  C   UNL     1      -5.926  13.783  23.459  0.00  0.00    +0.000 C 
ATOM     26  C   UNL     1      -4.711  12.949  23.047  0.00  0.00    +0.000 C 
ATOM     27  H   UNL     1      -7.382  12.361  23.306  0.00  0.00    +0.000 HD
ENDBRANCH  20  21
ENDBRANCH   2  20
BRANCH  12  28
ATOM     28  C   UNL     1       2.334   7.547  18.406  0.00  0.00    +0.000 C 
BRANCH  28  29
ATOM     29  C   UNL     1       3.393   6.493  18.098  0.00  0.00    +0.000 C 
BRANCH  29  30
ATOM     30  C   UNL     1       2.742   5.162  17.736  0.00  0.00    +0.000 C 
BRANCH  30  31
ATOM     31  C   UNL     1       3.734   4.005  17.853  0.00  0.00    +0.000 C 
BRANCH  31  32
ATOM     32  C   UNL     1       4.974   4.296  17.044  0.00  0.00    +0.000 A 
ATOM     33  C   UNL     1       4.918   4.319  15.645  0.00  0.00    +0.000 A 
ATOM     34  C   UNL     1       6.079   4.510  14.895  0.00  0.00    +0.000 A 
ATOM     35  C   UNL     1       7.305   4.678  15.538  0.00  0.00    +0.000 A 
ATOM     36  C   UNL     1       7.369   4.665  16.931  0.00  0.00    +0.000 A 
ATOM     37  C   UNL     1       6.209   4.474  17.682  0.00  0.00    +0.000 A 
ENDBRANCH  31  32
ENDBRANCH  30  31
ENDBRANCH  29  30
ENDBRANCH  28  29
ENDBRANCH  12  28
TORSDOF 9
ENDMDL
MODEL 8
REMARK VINA RESULT:      -7.4      2.578      4.440
REMARK  Name = 
REMARK  9 active torsions:
REMARK  status: ('A' for Active; 'I' for Inactive)
REMARK    1  A    between atoms: C_2  and  O_3
REMARK    2  A    between atoms: C_2  and  C_4
REMARK    3  A    between atoms: C_5  and  C_6
REMARK    4  A    between atoms: C_6  and  C_7
REMARK    5  A    between atoms: C_22  and  C_24
REMARK    6  A    between atoms: C_24  and  C_25
REMARK    7  A    between atoms: C_25  and  C_26
REMARK    8  A    between atoms: C_26  and  C_27
REMARK    9  A    between atoms: C_27  and  C_28
REMARK                            x       y       z     vdW  Elec       q    Type
REMARK                         _______ _______ _______ _____ _____    ______ ____
ROOT
ATOM      1  C   UNL     1      -0.331  11.538  22.063  0.00  0.00    +0.000 C 
ATOM      2  C   UNL     1      -1.426  12.525  22.559  0.00  0.00    +0.000 C 
ATOM      3  C   UNL     1      -1.985  12.397  21.141  0.00  0.00    +0.000 C 
ATOM      4  O   UNL     1      -2.931  12.880  20.563  0.00  0.00    +0.000 OA
ATOM      5  N   UNL     1      -1.158  11.347  20.830  0.00  0.00    +0.000 N 
ATOM      6  C   UNL     1      -0.637  11.273  19.555  0.00  0.00    +0.000 C 
ATOM      7  O   UNL     1      -0.695  12.214  18.763  0.00  0.00    +0.000 OA
ATOM      8  N   UNL     1       0.028  10.108  19.217  0.00  0.00    +0.000 N 
ATOM      9  C   UNL     1       0.690  10.005  17.906  0.00  0.00    +0.000 C 
ATOM     10  C   UNL     1       2.108   9.426  18.041  0.00  0.00    +0.000 C 
ATOM     11  N   UNL     1       2.128   8.210  18.873  0.00  0.00    +0.000 N 
ATOM     12  C   UNL     1       2.937   7.155  18.502  0.00  0.00    +0.000 C 
ATOM     13  O   UNL     1       3.610   7.176  17.471  0.00  0.00    +0.000 OA
ATOM     14  C   UNL     1       1.431   8.337  20.163  0.00  0.00    +0.000 C 
ATOM     15  C   UNL     1       0.001   8.844  19.949  0.00  0.00    +0.000 C 
ENDROOT
BRANCH   1  17
ATOM     16  O   UNL     1       1.006   9.799  23.289  0.00  0.00    +0.000 OA
ATOM     17  C   UNL     1      -0.072  10.272  22.942  0.00  0.00    +0.000 C 
BRANCH  17  18
ATOM     18  O   UNL     1      -1.196   9.634  23.354  0.00  0.00    +0.000 OA
ATOM     19  H   UNL     1      -1.350   8.932  22.684  0.00  0.00    +0.000 HD
ENDBRANCH  17  18
ENDBRANCH   1  17
BRANCH   2  20
ATOM     20  C   UNL     1      -0.887  13.865  23.059  0.00  0.00    +0.000 C 
BRANCH  20  21
ATOM     21  C   UNL     1      -1.678  14.422  24.266  0.00  0.00    +0.000 C 
ATOM     22  C   UNL     1      -3.203  14.418  24.093  0.00  0.00    +0.000 C 
ATOM     23  C   UNL     1      -3.684  15.451  23.074  0.00  0.00    +0.000 C 
ATOM     24  N   UNL     1      -3.234  16.804  23.412  0.00  0.00    +0.000 NA
ATOM     25  C   UNL     1      -1.783  16.879  23.577  0.00  0.00    +0.000 C 
ATOM     26  C   UNL     1      -1.251  15.865  24.593  0.00  0.00    +0.000 C 
ATOM     27  H   UNL     1      -3.687  17.095  24.278  0.00  0.00    +0.000 HD
ENDBRANCH  20  21
ENDBRANCH   2  20
BRANCH  12  28
ATOM     28  C   UNL     1       2.940   5.944  19.423  0.00  0.00    +0.000 C 
BRANCH  28  29
ATOM     29  C   UNL     1       1.954   4.867  18.977  0.00  0.00    +0.000 C 
BRANCH  29  30
ATOM     30  C   UNL     1       2.518   4.071  17.805  0.00  0.00    +0.000 C 
BRANCH  30  31
ATOM     31  C   UNL     1       3.839   3.396  18.174  0.00  0.00    +0.000 C 
BRANCH  31  32
ATOM     32  C   UNL     1       4.972   3.988  17.372  0.00  0.00    +0.000 A 
ATOM     33  C   UNL     1       6.125   4.459  18.014  0.00  0.00    +0.000 A 
ATOM     34  C   UNL     1       7.138   5.078  17.281  0.00  0.00    +0.000 A 
ATOM     35  C   UNL     1       7.005   5.233  15.902  0.00  0.00    +0.000 A 
ATOM     36  C   UNL     1       5.865   4.761  15.253  0.00  0.00    +0.000 A 
ATOM     37  C   UNL     1       4.852   4.142  15.984  0.00  0.00    +0.000 A 
ENDBRANCH  31  32
ENDBRANCH  30  31
ENDBRANCH  29  30
ENDBRANCH  28  29
ENDBRANCH  12  28
TORSDOF 9
ENDMDL
MODEL 9
REMARK VINA RESULT:      -7.4      2.525      4.210
REMARK  Name = 
REMARK  9 active torsions:
REMARK  status: ('A' for Active; 'I' for Inactive)
REMARK    1  A    between atoms: C_2  and  O_3
REMARK    2  A    between atoms: C_2  and  C_4
REMARK    3  A    between atoms: C_5  and  C_6
REMARK    4  A    between atoms: C_6  and  C_7
REMARK    5  A    between atoms: C_22  and  C_24
REMARK    6  A    between atoms: C_24  and  C_25
REMARK    7  A    between atoms: C_25  and  C_26
REMARK    8  A    between atoms: C_26  and  C_27
REMARK    9  A    between atoms: C_27  and  C_28
REMARK                            x       y       z     vdW  Elec       q    Type
REMARK                         _______ _______ _______ _____ _____    ______ ____
ROOT
ATOM      1  C   UNL     1       0.505   9.831  18.636  0.00  0.00    +0.000 C 
ATOM      2  C   UNL     1      -0.132  11.218  18.932  0.00  0.00    +0.000 C 
ATOM      3  C   UNL     1      -0.088  10.769  20.393  0.00  0.00    +0.000 C 
ATOM      4  O   UNL     1      -0.426  11.274  21.440  0.00  0.00    +0.000 OA
ATOM      5  N   UNL     1       0.696   9.679  20.113  0.00  0.00    +0.000 N 
ATOM      6  C   UNL     1       0.469   8.507  20.804  0.00  0.00    +0.000 C 
ATOM      7  O   UNL     1      -0.540   8.330  21.488  0.00  0.00    +0.000 OA
ATOM      8  N   UNL     1       1.395   7.493  20.640  0.00  0.00    +0.000 N 
ATOM      9  C   UNL     1       1.159   6.185  21.273  0.00  0.00    +0.000 C 
ATOM     10  C   UNL     1       1.421   5.033  20.290  0.00  0.00    +0.000 C 
ATOM     11  N   UNL     1       2.708   5.190  19.590  0.00  0.00    +0.000 N 
ATOM     12  C   UNL     1       3.492   4.076  19.366  0.00  0.00    +0.000 C 
ATOM     13  O   UNL     1       3.174   2.959  19.774  0.00  0.00    +0.000 OA
ATOM     14  C   UNL     1       2.926   6.519  18.995  0.00  0.00    +0.000 C 
ATOM     15  C   UNL     1       2.725   7.614  20.048  0.00  0.00    +0.000 C 
ENDROOT
BRANCH   1  17
ATOM     16  O   UNL     1       2.267   8.885  17.116  0.00  0.00    +0.000 OA
ATOM     17  C   UNL     1       1.794   9.820  17.752  0.00  0.00    +0.000 C 
BRANCH  17  18
ATOM     18  O   UNL     1       2.453  11.005  17.706  0.00  0.00    +0.000 OA
ATOM     19  H   UNL     1       2.620  11.240  18.645  0.00  0.00    +0.000 HD
ENDBRANCH  17  18
ENDBRANCH   1  17
BRANCH   2  20
ATOM     20  C   UNL     1      -1.473  11.458  18.238  0.00  0.00    +0.000 C 
BRANCH  20  21
ATOM     21  C   UNL     1      -2.148  10.151  17.761  0.00  0.00    +0.000 C 
ATOM     22  C   UNL     1      -2.101   9.918  16.245  0.00  0.00    +0.000 C 
ATOM     23  C   UNL     1      -3.007  10.878  15.473  0.00  0.00    +0.000 C 
ATOM     24  N   UNL     1      -4.396  10.811  15.935  0.00  0.00    +0.000 NA
ATOM     25  C   UNL     1      -4.512  11.039  17.375  0.00  0.00    +0.000 C 
ATOM     26  C   UNL     1      -3.625  10.098  18.194  0.00  0.00    +0.000 C 
ATOM     27  H   UNL     1      -4.775   9.891  15.708  0.00  0.00    +0.000 HD
ENDBRANCH  20  21
ENDBRANCH   2  20
BRANCH  12  28
ATOM     28  C   UNL     1       4.792   4.300  18.608  0.00  0.00    +0.000 C 
BRANCH  28  29
ATOM     29  C   UNL     1       4.740   3.757  17.183  0.00  0.00    +0.000 C 
BRANCH  29  30
ATOM     30  C   UNL     1       4.733   4.897  16.170  0.00  0.00    +0.000 C 
BRANCH  30  31
ATOM     31  C   UNL     1       6.154   5.299  15.773  0.00  0.00    +0.000 C 
BRANCH  31  32
ATOM     32  C   UNL     1       6.478   4.783  14.393  0.00  0.00    +0.000 A 
ATOM     33  C   UNL     1       7.557   5.314  13.674  0.00  0.00    +0.000 A 
ATOM     34  C   UNL     1       7.810   4.893  12.368  0.00  0.00    +0.000 A 
ATOM     35  C   UNL     1       6.985   3.941  11.770  0.00  0.00    +0.000 A 
ATOM     36  C   UNL     1       5.914   3.401  12.481  0.00  0.00    +0.000 A 
ATOM     37  C   UNL     1       5.660   3.821  13.787  0.00  0.00    +0.000 A 
ENDBRANCH  31  32
ENDBRANCH  30  31
ENDBRANCH  29  30
ENDBRANCH  28  29
ENDBRANCH  12  28
TORSDOF 9
ENDMDL
