MODEL 1
REMARK VINA RESULT:      -7.1      0.000      0.000
REMARK  Name = 
REMARK  6 active torsions:
REMARK  status: ('A' for Active; 'I' for Inactive)
REMARK    1  A    between atoms: C_1  and  S_2
REMARK    2  A    between atoms: S_2  and  O_5
REMARK    3  A    between atoms: O_5  and  C_6
REMARK    4  A    between atoms: C_7  and  C_8
REMARK    5  A    between atoms: N_10  and  C_11
REMARK    6  A    between atoms: C_11  and  C_12
REMARK                            x       y       z     vdW  Elec       q    Type
REMARK                         _______ _______ _______ _____ _____    ______ ____
ROOT
ATOM      1  C   UNL     1       0.218  10.919  19.762  0.00  0.00    +0.000 A 
ATOM      2  C   UNL     1       1.280  10.701  18.890  0.00  0.00    +0.000 A 
ATOM      3  N   UNL     1       2.087  11.690  18.435  0.00  0.00    +0.000 NA
ATOM      4  C   UNL     1       1.763  12.954  18.744  0.00  0.00    +0.000 A 
ATOM      5 BR   UNL     1       2.991  14.273  18.120  0.00  0.00    +0.000 Br
ATOM      6  C   UNL     1       0.587  13.301  19.423  0.00  0.00    +0.000 A 
ATOM      7  C   UNL     1       0.107  14.623  19.585  0.00  0.00    +0.000 A 
ATOM      8  C   UNL     1      -1.115  14.860  20.192  0.00  0.00    +0.000 A 
ATOM      9  C   UNL     1      -1.807  13.773  20.676  0.00  0.00    +0.000 A 
ATOM     10  N   UNL     1      -1.357  12.498  20.594  0.00  0.00    +0.000 NA
ATOM     11  C   UNL     1      -0.193  12.245  19.953  0.00  0.00    +0.000 A 
ENDROOT
BRANCH   2  12
ATOM     12  C   UNL     1       1.497   9.403  18.172  0.00  0.00    +0.000 C 
ATOM     13  O   UNL     1       0.861   9.111  17.170  0.00  0.00    +0.000 OA
ATOM     14  N   UNL     1       2.418   8.557  18.761  0.00  0.00    +0.000 N 
ATOM     15  H   UNL     1       2.941   8.835  19.582  0.00  0.00    +0.000 HD
BRANCH  14  16
ATOM     16  C   UNL     1       2.890   7.382  18.065  0.00  0.00    +0.000 C 
BRANCH  16  17
ATOM     17  C   UNL     1       2.341   6.138  18.705  0.00  0.00    +0.000 A 
ATOM     18  C   UNL     1       2.129   6.106  20.092  0.00  0.00    +0.000 A 
ATOM     19  C   UNL     1       1.580   4.979  20.700  0.00  0.00    +0.000 A 
ATOM     20  C   UNL     1       1.239   3.883  19.918  0.00  0.00    +0.000 A 
ATOM     21  F   UNL     1       0.688   2.809  20.497  0.00  0.00    +0.000 F 
ATOM     22  C   UNL     1       1.455   3.884  18.544  0.00  0.00    +0.000 A 
ATOM     23  C   UNL     1       2.012   5.010  17.936  0.00  0.00    +0.000 A 
ENDBRANCH  16  17
ENDBRANCH  14  16
ENDBRANCH   2  12
BRANCH   1  24
ATOM     24  O   UNL     1      -0.537   9.953  20.402  0.00  0.00    +0.000 OA
BRANCH  24  26
ATOM     25  C   UNL     1      -0.606  10.104  23.002  0.00  0.00    +0.000 C 
ATOM     26  S   UNL     1      -0.000   9.085  21.685  0.00  0.00    +0.000 S 
ATOM     27  O   UNL     1       1.443   9.138  21.765  0.00  0.00    +0.000 OA
ATOM     28  O   UNL     1      -0.738   7.846  21.728  0.00  0.00    +0.000 OA
ENDBRANCH  24  26
ENDBRANCH   1  24
TORSDOF 5
ENDMDL
MODEL 2
REMARK VINA RESULT:      -6.9      2.759      3.501
REMARK  Name = 
REMARK  6 active torsions:
REMARK  status: ('A' for Active; 'I' for Inactive)
REMARK    1  A    between atoms: C_1  and  S_2
REMARK    2  A    between atoms: S_2  and  O_5
REMARK    3  A    between atoms: O_5  and  C_6
REMARK    4  A    between atoms: C_7  and  C_8
REMARK    5  A    between atoms: N_10  and  C_11
REMARK    6  A    between atoms: C_11  and  C_12
REMARK                            x       y       z     vdW  Elec       q    Type
REMARK                         _______ _______ _______ _____ _____    ______ ____
ROOT
ATOM      1  C   UNL     1       0.094  11.474  19.192  0.00  0.00    +0.000 A 
ATOM      2  C   UNL     1       0.168  10.389  18.325  0.00  0.00    +0.000 A 
ATOM      3  N   UNL     1      -0.878   9.960  17.576  0.00  0.00    +0.000 NA
ATOM      4  C   UNL     1      -2.071  10.536  17.779  0.00  0.00    +0.000 A 
ATOM      5 BR   UNL     1      -3.467   9.919  16.636  0.00  0.00    +0.000 Br
ATOM      6  C   UNL     1      -2.306  11.479  18.790  0.00  0.00    +0.000 A 
ATOM      7  C   UNL     1      -3.584  11.952  19.172  0.00  0.00    +0.000 A 
ATOM      8  C   UNL     1      -3.723  12.816  20.245  0.00  0.00    +0.000 A 
ATOM      9  C   UNL     1      -2.575  13.234  20.880  0.00  0.00    +0.000 A 
ATOM     10  N   UNL     1      -1.330  12.852  20.510  0.00  0.00    +0.000 NA
ATOM     11  C   UNL     1      -1.181  11.964  19.501  0.00  0.00    +0.000 A 
ENDROOT
BRANCH   2  12
ATOM     12  C   UNL     1       1.322   9.432  18.304  0.00  0.00    +0.000 C 
ATOM     13  O   UNL     1       2.197   9.501  17.453  0.00  0.00    +0.000 OA
ATOM     14  N   UNL     1       1.284   8.450  19.277  0.00  0.00    +0.000 N 
ATOM     15  H   UNL     1       0.554   8.430  19.978  0.00  0.00    +0.000 HD
BRANCH  14  16
ATOM     16  C   UNL     1       2.431   7.606  19.517  0.00  0.00    +0.000 C 
BRANCH  16  17
ATOM     17  C   UNL     1       2.051   6.157  19.395  0.00  0.00    +0.000 A 
ATOM     18  C   UNL     1       2.130   5.521  18.146  0.00  0.00    +0.000 A 
ATOM     19  C   UNL     1       1.824   4.168  18.019  0.00  0.00    +0.000 A 
ATOM     20  C   UNL     1       1.441   3.449  19.144  0.00  0.00    +0.000 A 
ATOM     21  F   UNL     1       1.171   2.142  19.028  0.00  0.00    +0.000 F 
ATOM     22  C   UNL     1       1.338   4.061  20.389  0.00  0.00    +0.000 A 
ATOM     23  C   UNL     1       1.637   5.418  20.514  0.00  0.00    +0.000 A 
ENDBRANCH  16  17
ENDBRANCH  14  16
ENDBRANCH   2  12
BRANCH   1  24
ATOM     24  O   UNL     1       1.150  12.075  19.853  0.00  0.00    +0.000 OA
BRANCH  24  26
ATOM     25  C   UNL     1       2.992  13.741  20.641  0.00  0.00    +0.000 C 
ATOM     26  S   UNL     1       2.061  13.275  19.206  0.00  0.00    +0.000 S 
ATOM     27  O   UNL     1       1.236  14.415  18.872  0.00  0.00    +0.000 OA
ATOM     28  O   UNL     1       2.985  12.681  18.271  0.00  0.00    +0.000 OA
ENDBRANCH  24  26
ENDBRANCH   1  24
TORSDOF 5
ENDMDL
MODEL 3
REMARK VINA RESULT:      -6.7      5.906      8.100
REMARK  Name = 
REMARK  6 active torsions:
REMARK  status: ('A' for Active; 'I' for Inactive)
REMARK    1  A    between atoms: C_1  and  S_2
REMARK    2  A    between atoms: S_2  and  O_5
REMARK    3  A    between atoms: O_5  and  C_6
REMARK    4  A    between atoms: C_7  and  C_8
REMARK    5  A    between atoms: N_10  and  C_11
REMARK    6  A    between atoms: C_11  and  C_12
REMARK                            x       y       z     vdW  Elec       q    Type
REMARK                         _______ _______ _______ _____ _____    ______ ____
ROOT
ATOM      1  C   UNL     1       4.923   5.567  17.980  0.00  0.00    +0.000 A 
ATOM      2  C   UNL     1       4.709   6.527  16.995  0.00  0.00    +0.000 A 
ATOM      3  N   UNL     1       3.766   7.496  17.090  0.00  0.00    +0.000 NA
ATOM      4  C   UNL     1       2.920   7.446  18.129  0.00  0.00    +0.000 A 
ATOM      5 BR   UNL     1       1.673   8.886  18.219  0.00  0.00    +0.000 Br
ATOM      6  C   UNL     1       2.902   6.393  19.054  0.00  0.00    +0.000 A 
ATOM      7  C   UNL     1       1.899   6.196  20.033  0.00  0.00    +0.000 A 
ATOM      8  C   UNL     1       1.917   5.073  20.844  0.00  0.00    +0.000 A 
ATOM      9  C   UNL     1       2.969   4.198  20.696  0.00  0.00    +0.000 A 
ATOM     10  N   UNL     1       3.979   4.378  19.812  0.00  0.00    +0.000 NA
ATOM     11  C   UNL     1       3.945   5.440  18.975  0.00  0.00    +0.000 A 
ENDROOT
BRANCH   2  12
ATOM     12  C   UNL     1       5.319   6.448  15.628  0.00  0.00    +0.000 C 
ATOM     13  O   UNL     1       5.001   7.224  14.738  0.00  0.00    +0.000 OA
ATOM     14  N   UNL     1       6.214   5.409  15.447  0.00  0.00    +0.000 N 
ATOM     15  H   UNL     1       6.470   4.794  16.209  0.00  0.00    +0.000 HD
BRANCH  14  16
ATOM     16  C   UNL     1       7.040   5.347  14.263  0.00  0.00    +0.000 C 
BRANCH  16  17
ATOM     17  C   UNL     1       6.520   4.303  13.315  0.00  0.00    +0.000 A 
ATOM     18  C   UNL     1       5.149   4.002  13.299  0.00  0.00    +0.000 A 
ATOM     19  C   UNL     1       4.639   3.069  12.398  0.00  0.00    +0.000 A 
ATOM     20  C   UNL     1       5.502   2.439  11.510  0.00  0.00    +0.000 A 
ATOM     21  F   UNL     1       5.009   1.561  10.627  0.00  0.00    +0.000 F 
ATOM     22  C   UNL     1       6.866   2.708  11.520  0.00  0.00    +0.000 A 
ATOM     23  C   UNL     1       7.378   3.636  12.427  0.00  0.00    +0.000 A 
ENDBRANCH  16  17
ENDBRANCH  14  16
ENDBRANCH   2  12
BRANCH   1  24
ATOM     24  O   UNL     1       5.967   4.662  18.037  0.00  0.00    +0.000 OA
BRANCH  24  26
ATOM     25  C   UNL     1       7.630   6.667  18.040  0.00  0.00    +0.000 C 
ATOM     26  S   UNL     1       7.443   5.016  18.657  0.00  0.00    +0.000 S 
ATOM     27  O   UNL     1       8.467   4.225  18.012  0.00  0.00    +0.000 OA
ATOM     28  O   UNL     1       7.316   5.106  20.092  0.00  0.00    +0.000 OA
ENDBRANCH  24  26
ENDBRANCH   1  24
TORSDOF 5
ENDMDL
MODEL 4
REMARK VINA RESULT:      -6.7      3.002      3.557
REMARK  Name = 
REMARK  6 active torsions:
REMARK  status: ('A' for Active; 'I' for Inactive)
REMARK    1  A    between atoms: C_1  and  S_2
REMARK    2  A    between atoms: S_2  and  O_5
REMARK    3  A    between atoms: O_5  and  C_6
REMARK    4  A    between atoms: C_7  and  C_8
REMARK    5  A    between atoms: N_10  and  C_11
REMARK    6  A    between atoms: C_11  and  C_12
REMARK                            x       y       z     vdW  Elec       q    Type
REMARK                         _______ _______ _______ _____ _____    ______ ____
ROOT
ATOM      1  C   UNL     1      -0.970  11.532  19.353  0.00  0.00    +0.000 A 
ATOM      2  C   UNL     1      -0.412  10.617  18.464  0.00  0.00    +0.000 A 
ATOM      3  N   UNL     1      -1.037  10.196  17.338  0.00  0.00    +0.000 NA
ATOM      4  C   UNL     1      -2.304  10.588  17.140  0.00  0.00    +0.000 A 
ATOM      5 BR   UNL     1      -3.079  10.005  15.499  0.00  0.00    +0.000 Br
ATOM      6  C   UNL     1      -3.036  11.321  18.085  0.00  0.00    +0.000 A 
ATOM      7  C   UNL     1      -4.427  11.573  18.010  0.00  0.00    +0.000 A 
ATOM      8  C   UNL     1      -5.081  12.230  19.039  0.00  0.00    +0.000 A 
ATOM      9  C   UNL     1      -4.319  12.670  20.098  0.00  0.00    +0.000 A 
ATOM     10  N   UNL     1      -2.978  12.502  20.182  0.00  0.00    +0.000 NA
ATOM     11  C   UNL     1      -2.335  11.812  19.212  0.00  0.00    +0.000 A 
ENDROOT
BRANCH   2  12
ATOM     12  C   UNL     1       0.818   9.819  18.775  0.00  0.00    +0.000 C 
ATOM     13  O   UNL     1       1.817   9.881  18.072  0.00  0.00    +0.000 OA
ATOM     14  N   UNL     1       0.709   8.980  19.869  0.00  0.00    +0.000 N 
ATOM     15  H   UNL     1      -0.126   8.964  20.441  0.00  0.00    +0.000 HD
BRANCH  14  16
ATOM     16  C   UNL     1       1.876   8.326  20.414  0.00  0.00    +0.000 C 
BRANCH  16  17
ATOM     17  C   UNL     1       1.945   6.900  19.945  0.00  0.00    +0.000 A 
ATOM     18  C   UNL     1       1.471   5.872  20.774  0.00  0.00    +0.000 A 
ATOM     19  C   UNL     1       1.484   4.548  20.341  0.00  0.00    +0.000 A 
ATOM     20  C   UNL     1       1.971   4.252  19.074  0.00  0.00    +0.000 A 
ATOM     21  F   UNL     1       1.962   2.983  18.646  0.00  0.00    +0.000 F 
ATOM     22  C   UNL     1       2.463   5.251  18.241  0.00  0.00    +0.000 A 
ATOM     23  C   UNL     1       2.455   6.577  18.678  0.00  0.00    +0.000 A 
ENDBRANCH  16  17
ENDBRANCH  14  16
ENDBRANCH   2  12
BRANCH   1  24
ATOM     24  O   UNL     1      -0.334  12.137  20.421  0.00  0.00    +0.000 OA
BRANCH  24  26
ATOM     25  C   UNL     1       0.469  14.179  21.827  0.00  0.00    +0.000 C 
ATOM     26  S   UNL     1       0.719  13.384  20.263  0.00  0.00    +0.000 S 
ATOM     27  O   UNL     1       0.256  14.315  19.258  0.00  0.00    +0.000 OA
ATOM     28  O   UNL     1       2.057  12.843  20.266  0.00  0.00    +0.000 OA
ENDBRANCH  24  26
ENDBRANCH   1  24
TORSDOF 5
ENDMDL
MODEL 5
REMARK VINA RESULT:      -6.7      3.126      3.670
REMARK  Name = 
REMARK  6 active torsions:
REMARK  status: ('A' for Active; 'I' for Inactive)
REMARK    1  A    between atoms: C_1  and  S_2
REMARK    2  A    between atoms: S_2  and  O_5
REMARK    3  A    between atoms: O_5  and  C_6
REMARK    4  A    between atoms: C_7  and  C_8
REMARK    5  A    between atoms: N_10  and  C_11
REMARK    6  A    between atoms: C_11  and  C_12
REMARK                            x       y       z     vdW  Elec       q    Type
REMARK                         _______ _______ _______ _____ _____    ______ ____
ROOT
ATOM      1  C   UNL     1      -1.643  12.009  19.328  0.00  0.00    +0.000 A 
ATOM      2  C   UNL     1      -0.864  11.144  18.567  0.00  0.00    +0.000 A 
ATOM      3  N   UNL     1      -1.306  10.545  17.433  0.00  0.00    +0.000 NA
ATOM      4  C   UNL     1      -2.596  10.699  17.105  0.00  0.00    +0.000 A 
ATOM      5 BR   UNL     1      -3.112   9.880  15.462  0.00  0.00    +0.000 Br
ATOM      6  C   UNL     1      -3.522  11.361  17.924  0.00  0.00    +0.000 A 
ATOM      7  C   UNL     1      -4.923  11.366  17.719  0.00  0.00    +0.000 A 
ATOM      8  C   UNL     1      -5.767  11.971  18.635  0.00  0.00    +0.000 A 
ATOM      9  C   UNL     1      -5.189  12.607  19.710  0.00  0.00    +0.000 A 
ATOM     10  N   UNL     1      -3.851  12.677  19.913  0.00  0.00    +0.000 NA
ATOM     11  C   UNL     1      -3.018  12.042  19.058  0.00  0.00    +0.000 A 
ENDROOT
BRANCH   2  12
ATOM     12  C   UNL     1       0.447  10.591  19.038  0.00  0.00    +0.000 C 
ATOM     13  O   UNL     1       1.508  11.124  18.750  0.00  0.00    +0.000 OA
ATOM     14  N   UNL     1       0.358   9.417  19.764  0.00  0.00    +0.000 N 
ATOM     15  H   UNL     1      -0.538   9.009  20.001  0.00  0.00    +0.000 HD
BRANCH  14  16
ATOM     16  C   UNL     1       1.508   8.897  20.467  0.00  0.00    +0.000 C 
BRANCH  16  17
ATOM     17  C   UNL     1       1.921   7.573  19.888  0.00  0.00    +0.000 A 
ATOM     18  C   UNL     1       2.497   7.524  18.609  0.00  0.00    +0.000 A 
ATOM     19  C   UNL     1       2.928   6.313  18.071  0.00  0.00    +0.000 A 
ATOM     20  C   UNL     1       2.785   5.150  18.816  0.00  0.00    +0.000 A 
ATOM     21  F   UNL     1       3.221   3.988  18.311  0.00  0.00    +0.000 F 
ATOM     22  C   UNL     1       2.201   5.170  20.079  0.00  0.00    +0.000 A 
ATOM     23  C   UNL     1       1.763   6.382  20.614  0.00  0.00    +0.000 A 
ENDBRANCH  16  17
ENDBRANCH  14  16
ENDBRANCH   2  12
BRANCH   1  24
ATOM     24  O   UNL     1      -1.216  12.787  20.389  0.00  0.00    +0.000 OA
BRANCH  24  26
ATOM     25  C   UNL     1      -1.299  13.334  22.935  0.00  0.00    +0.000 C 
ATOM     26  S   UNL     1      -0.619  12.168  21.786  0.00  0.00    +0.000 S 
ATOM     27  O   UNL     1       0.816  12.336  21.842  0.00  0.00    +0.000 OA
ATOM     28  O   UNL     1      -1.266  10.901  22.027  0.00  0.00    +0.000 OA
ENDBRANCH  24  26
ENDBRANCH   1  24
TORSDOF 5
ENDMDL
MODEL 6
REMARK VINA RESULT:      -6.7      2.948      3.655
REMARK  Name = 
REMARK  6 active torsions:
REMARK  status: ('A' for Active; 'I' for Inactive)
REMARK    1  A    between atoms: C_1  and  S_2
REMARK    2  A    between atoms: S_2  and  O_5
REMARK    3  A    between atoms: O_5  and  C_6
REMARK    4  A    between atoms: C_7  and  C_8
REMARK    5  A    between atoms: N_10  and  C_11
REMARK    6  A    between atoms: C_11  and  C_12
REMARK                            x       y       z     vdW  Elec       q    Type
REMARK                         _______ _______ _______ _____ _____    ______ ____
ROOT
ATOM      1  C   UNL     1      -0.869  10.725  19.045  0.00  0.00    +0.000 A 
ATOM      2  C   UNL     1       0.185   9.874  19.363  0.00  0.00    +0.000 A 
ATOM      3  N   UNL     1       0.488   9.505  20.632  0.00  0.00    +0.000 NA
ATOM      4  C   UNL     1      -0.186  10.090  21.633  0.00  0.00    +0.000 A 
ATOM      5 BR   UNL     1       0.258   9.461  23.377  0.00  0.00    +0.000 Br
ATOM      6  C   UNL     1      -1.108  11.127  21.433  0.00  0.00    +0.000 A 
ATOM      7  C   UNL     1      -1.681  11.908  22.465  0.00  0.00    +0.000 A 
ATOM      8  C   UNL     1      -2.514  12.973  22.163  0.00  0.00    +0.000 A 
ATOM      9  C   UNL     1      -2.800  13.201  20.837  0.00  0.00    +0.000 A 
ATOM     10  N   UNL     1      -2.320  12.443  19.822  0.00  0.00    +0.000 NA
ATOM     11  C   UNL     1      -1.461  11.435  20.097  0.00  0.00    +0.000 A 
ENDROOT
BRANCH   2  12
ATOM     12  C   UNL     1       1.241   9.473  18.378  0.00  0.00    +0.000 C 
ATOM     13  O   UNL     1       1.545  10.191  17.436  0.00  0.00    +0.000 OA
ATOM     14  N   UNL     1       1.791   8.221  18.588  0.00  0.00    +0.000 N 
ATOM     15  H   UNL     1       1.530   7.658  19.388  0.00  0.00    +0.000 HD
BRANCH  14  16
ATOM     16  C   UNL     1       2.965   7.801  17.860  0.00  0.00    +0.000 C 
BRANCH  16  17
ATOM     17  C   UNL     1       3.033   6.301  17.796  0.00  0.00    +0.000 A 
ATOM     18  C   UNL     1       1.882   5.542  18.062  0.00  0.00    +0.000 A 
ATOM     19  C   UNL     1       1.911   4.152  17.965  0.00  0.00    +0.000 A 
ATOM     20  C   UNL     1       3.093   3.521  17.599  0.00  0.00    +0.000 A 
ATOM     21  F   UNL     1       3.117   2.187  17.481  0.00  0.00    +0.000 F 
ATOM     22  C   UNL     1       4.251   4.250  17.347  0.00  0.00    +0.000 A 
ATOM     23  C   UNL     1       4.223   5.642  17.451  0.00  0.00    +0.000 A 
ENDBRANCH  16  17
ENDBRANCH  14  16
ENDBRANCH   2  12
BRANCH   1  24
ATOM     24  O   UNL     1      -1.346  11.009  17.778  0.00  0.00    +0.000 OA
BRANCH  24  26
ATOM     25  C   UNL     1      -3.668  11.472  16.691  0.00  0.00    +0.000 C 
ATOM     26  S   UNL     1      -2.537  10.154  17.044  0.00  0.00    +0.000 S 
ATOM     27  O   UNL     1      -3.204   9.293  17.995  0.00  0.00    +0.000 OA
ATOM     28  O   UNL     1      -2.030   9.674  15.781  0.00  0.00    +0.000 OA
ENDBRANCH  24  26
ENDBRANCH   1  24
TORSDOF 5
ENDMDL
MODEL 7
REMARK VINA RESULT:      -6.6      2.644      3.334
REMARK  Name = 
REMARK  6 active torsions:
REMARK  status: ('A' for Active; 'I' for Inactive)
REMARK    1  A    between atoms: C_1  and  S_2
REMARK    2  A    between atoms: S_2  and  O_5
REMARK    3  A    between atoms: O_5  and  C_6
REMARK    4  A    between atoms: C_7  and  C_8
REMARK    5  A    between atoms: N_10  and  C_11
REMARK    6  A    between atoms: C_11  and  C_12
REMARK                            x       y       z     vdW  Elec       q    Type
REMARK                         _______ _______ _______ _____ _____    ______ ____
ROOT
ATOM      1  C   UNL     1       0.320  11.601  19.427  0.00  0.00    +0.000 A 
ATOM      2  C   UNL     1       0.286  10.551  18.514  0.00  0.00    +0.000 A 
ATOM      3  N   UNL     1      -0.833  10.181  17.845  0.00  0.00    +0.000 NA
ATOM      4  C   UNL     1      -1.987  10.779  18.175  0.00  0.00    +0.000 A 
ATOM      5 BR   UNL     1      -3.494  10.246  17.137  0.00  0.00    +0.000 Br
ATOM      6  C   UNL     1      -2.104  11.685  19.239  0.00  0.00    +0.000 A 
ATOM      7  C   UNL     1      -3.330  12.175  19.751  0.00  0.00    +0.000 A 
ATOM      8  C   UNL     1      -3.350  12.997  20.865  0.00  0.00    +0.000 A 
ATOM      9  C   UNL     1      -2.139  13.358  21.412  0.00  0.00    +0.000 A 
ATOM     10  N   UNL     1      -0.942  12.959  20.918  0.00  0.00    +0.000 NA
ATOM     11  C   UNL     1      -0.909  12.111  19.866  0.00  0.00    +0.000 A 
ENDROOT
BRANCH   2  12
ATOM     12  C   UNL     1       1.406   9.568  18.354  0.00  0.00    +0.000 C 
ATOM     13  O   UNL     1       2.205   9.649  17.433  0.00  0.00    +0.000 OA
ATOM     14  N   UNL     1       1.423   8.546  19.287  0.00  0.00    +0.000 N 
ATOM     15  H   UNL     1       0.757   8.516  20.049  0.00  0.00    +0.000 HD
BRANCH  14  16
ATOM     16  C   UNL     1       2.562   7.663  19.391  0.00  0.00    +0.000 C 
BRANCH  16  17
ATOM     17  C   UNL     1       2.118   6.228  19.340  0.00  0.00    +0.000 A 
ATOM     18  C   UNL     1       1.649   5.605  20.506  0.00  0.00    +0.000 A 
ATOM     19  C   UNL     1       1.192   4.289  20.472  0.00  0.00    +0.000 A 
ATOM     20  C   UNL     1       1.202   3.597  19.267  0.00  0.00    +0.000 A 
ATOM     21  F   UNL     1       0.740   2.341  19.227  0.00  0.00    +0.000 F 
ATOM     22  C   UNL     1       1.679   4.188  18.102  0.00  0.00    +0.000 A 
ATOM     23  C   UNL     1       2.143   5.503  18.138  0.00  0.00    +0.000 A 
ENDBRANCH  16  17
ENDBRANCH  14  16
ENDBRANCH   2  12
BRANCH   1  24
ATOM     24  O   UNL     1       1.447  12.147  20.015  0.00  0.00    +0.000 OA
BRANCH  24  26
ATOM     25  C   UNL     1       1.268  14.480  18.869  0.00  0.00    +0.000 C 
ATOM     26  S   UNL     1       2.441  13.210  19.259  0.00  0.00    +0.000 S 
ATOM     27  O   UNL     1       2.890  12.673  17.994  0.00  0.00    +0.000 OA
ATOM     28  O   UNL     1       3.348  13.752  20.242  0.00  0.00    +0.000 OA
ENDBRANCH  24  26
ENDBRANCH   1  24
TORSDOF 5
ENDMDL
MODEL 8
REMARK VINA RESULT:      -6.5      4.373      8.431
REMARK  Name = 
REMARK  6 active torsions:
REMARK  status: ('A' for Active; 'I' for Inactive)
REMARK    1  A    between atoms: C_1  and  S_2
REMARK    2  A    between atoms: S_2  and  O_5
REMARK    3  A    between atoms: O_5  and  C_6
REMARK    4  A    between atoms: C_7  and  C_8
REMARK    5  A    between atoms: N_10  and  C_11
REMARK    6  A    between atoms: C_11  and  C_12
REMARK                            x       y       z     vdW  Elec       q    Type
REMARK                         _______ _______ _______ _____ _____    ______ ____
ROOT
ATOM      1  C   UNL     1       3.908   5.547  17.983  0.00  0.00    +0.000 A 
ATOM      2  C   UNL     1       3.045   6.268  18.804  0.00  0.00    +0.000 A 
ATOM      3  N   UNL     1       2.353   5.712  19.828  0.00  0.00    +0.000 NA
ATOM      4  C   UNL     1       2.410   4.380  19.973  0.00  0.00    +0.000 A 
ATOM      5 BR   UNL     1       1.462   3.694  21.479  0.00  0.00    +0.000 Br
ATOM      6  C   UNL     1       3.064   3.537  19.064  0.00  0.00    +0.000 A 
ATOM      7  C   UNL     1       2.973   2.124  19.064  0.00  0.00    +0.000 A 
ATOM      8  C   UNL     1       3.582   1.379  18.068  0.00  0.00    +0.000 A 
ATOM      9  C   UNL     1       4.317   2.059  17.123  0.00  0.00    +0.000 A 
ATOM     10  N   UNL     1       4.478   3.404  17.120  0.00  0.00    +0.000 NA
ATOM     11  C   UNL     1       3.842   4.150  18.053  0.00  0.00    +0.000 A 
ENDROOT
BRANCH   2  12
ATOM     12  C   UNL     1       2.601   7.666  18.499  0.00  0.00    +0.000 C 
ATOM     13  O   UNL     1       2.953   8.243  17.480  0.00  0.00    +0.000 OA
ATOM     14  N   UNL     1       1.822   8.258  19.477  0.00  0.00    +0.000 N 
ATOM     15  H   UNL     1       1.534   7.747  20.302  0.00  0.00    +0.000 HD
BRANCH  14  16
ATOM     16  C   UNL     1       1.143   9.507  19.222  0.00  0.00    +0.000 C 
BRANCH  16  17
ATOM     17  C   UNL     1       0.400   9.959  20.448  0.00  0.00    +0.000 A 
ATOM     18  C   UNL     1      -0.299  11.176  20.426  0.00  0.00    +0.000 A 
ATOM     19  C   UNL     1      -1.030  11.593  21.537  0.00  0.00    +0.000 A 
ATOM     20  C   UNL     1      -1.065  10.789  22.669  0.00  0.00    +0.000 A 
ATOM     21  F   UNL     1      -1.787  11.177  23.728  0.00  0.00    +0.000 F 
ATOM     22  C   UNL     1      -0.366   9.588  22.720  0.00  0.00    +0.000 A 
ATOM     23  C   UNL     1       0.372   9.174  21.611  0.00  0.00    +0.000 A 
ENDBRANCH  16  17
ENDBRANCH  14  16
ENDBRANCH   2  12
BRANCH   1  24
ATOM     24  O   UNL     1       4.774   6.066  17.038  0.00  0.00    +0.000 OA
BRANCH  24  26
ATOM     25  C   UNL     1       7.081   5.308  16.096  0.00  0.00    +0.000 C 
ATOM     26  S   UNL     1       6.361   6.361  17.326  0.00  0.00    +0.000 S 
ATOM     27  O   UNL     1       6.755   5.814  18.605  0.00  0.00    +0.000 OA
ATOM     28  O   UNL     1       6.641   7.723  16.941  0.00  0.00    +0.000 OA
ENDBRANCH  24  26
ENDBRANCH   1  24
TORSDOF 5
ENDMDL
MODEL 9
REMARK VINA RESULT:      -6.5      2.828      3.512
REMARK  Name = 
REMARK  6 active torsions:
REMARK  status: ('A' for Active; 'I' for Inactive)
REMARK    1  A    between atoms: C_1  and  S_2
REMARK    2  A    between atoms: S_2  and  O_5
REMARK    3  A    between atoms: O_5  and  C_6
REMARK    4  A    between atoms: C_7  and  C_8
REMARK    5  A    between atoms: N_10  and  C_11
REMARK    6  A    between atoms: C_11  and  C_12
REMARK                            x       y       z     vdW  Elec       q    Type
REMARK                         _______ _______ _______ _____ _____    ______ ____
ROOT
ATOM      1  C   UNL     1      -0.862  11.620  19.792  0.00  0.00    +0.000 A 
ATOM      2  C   UNL     1      -0.333  10.788  18.810  0.00  0.00    +0.000 A 
ATOM      3  N   UNL     1      -0.978  10.494  17.655  0.00  0.00    +0.000 NA
ATOM      4  C   UNL     1      -2.239  10.928  17.514  0.00  0.00    +0.000 A 
ATOM      5 BR   UNL     1      -3.044  10.527  15.833  0.00  0.00    +0.000 Br
ATOM      6  C   UNL     1      -2.945  11.577  18.536  0.00  0.00    +0.000 A 
ATOM      7  C   UNL     1      -4.331  11.863  18.504  0.00  0.00    +0.000 A 
ATOM      8  C   UNL     1      -4.960  12.426  19.602  0.00  0.00    +0.000 A 
ATOM      9  C   UNL     1      -4.179  12.744  20.690  0.00  0.00    +0.000 A 
ATOM     10  N   UNL     1      -2.841  12.541  20.739  0.00  0.00    +0.000 NA
ATOM     11  C   UNL     1      -2.222  11.940  19.698  0.00  0.00    +0.000 A 
ENDROOT
BRANCH   2  12
ATOM     12  C   UNL     1       0.884   9.939  19.024  0.00  0.00    +0.000 C 
ATOM     13  O   UNL     1       1.868  10.037  18.305  0.00  0.00    +0.000 OA
ATOM     14  N   UNL     1       0.778   9.014  20.046  0.00  0.00    +0.000 N 
ATOM     15  H   UNL     1      -0.044   8.970  20.635  0.00  0.00    +0.000 HD
BRANCH  14  16
ATOM     16  C   UNL     1       1.940   8.290  20.508  0.00  0.00    +0.000 C 
BRANCH  16  17
ATOM     17  C   UNL     1       1.954   6.901  19.935  0.00  0.00    +0.000 A 
ATOM     18  C   UNL     1       2.442   6.690  18.637  0.00  0.00    +0.000 A 
ATOM     19  C   UNL     1       2.505   5.405  18.103  0.00  0.00    +0.000 A 
ATOM     20  C   UNL     1       2.081   4.328  18.871  0.00  0.00    +0.000 A 
ATOM     21  F   UNL     1       2.164   3.089  18.369  0.00  0.00    +0.000 F 
ATOM     22  C   UNL     1       1.577   4.514  20.154  0.00  0.00    +0.000 A 
ATOM     23  C   UNL     1       1.508   5.802  20.686  0.00  0.00    +0.000 A 
ENDBRANCH  16  17
ENDBRANCH  14  16
ENDBRANCH   2  12
BRANCH   1  24
ATOM     24  O   UNL     1      -0.202  12.104  20.907  0.00  0.00    +0.000 OA
BRANCH  24  26
ATOM     25  C   UNL     1       0.100  14.396  19.707  0.00  0.00    +0.000 C 
ATOM     26  S   UNL     1       0.905  13.312  20.854  0.00  0.00    +0.000 S 
ATOM     27  O   UNL     1       2.116  12.862  20.202  0.00  0.00    +0.000 OA
ATOM     28  O   UNL     1       0.910  13.972  22.137  0.00  0.00    +0.000 OA
ENDBRANCH  24  26
ENDBRANCH   1  24
TORSDOF 5
ENDMDL
