MODEL 1
REMARK VINA RESULT:      -5.9      0.000      0.000
REMARK  Name = 
REMARK  22 active torsions:
REMARK  status: ('A' for Active; 'I' for Inactive)
REMARK    1  A    between atoms: C_1  and  C_2
REMARK    2  A    between atoms: C_2  and  C_3
REMARK    3  A    between atoms: C_3  and  C_4
REMARK    4  A    between atoms: C_4  and  C_5
REMARK    5  A    between atoms: C_5  and  C_6
REMARK    6  A    between atoms: C_6  and  C_7
REMARK    7  A    between atoms: C_7  and  C_8
REMARK    8  A    between atoms: C_8  and  C_9
REMARK    9  A    between atoms: C_9  and  C_10
REMARK   10  A    between atoms: C_10  and  C_11
REMARK   11  A    between atoms: C_11  and  C_12
REMARK   12  A    between atoms: C_12  and  C_13
REMARK   13  A    between atoms: C_13  and  C_14
REMARK   14  A    between atoms: C_15  and  C_16
REMARK   15  A    between atoms: C_16  and  O_17
REMARK   16  A    between atoms: C_16  and  C_18
REMARK   17  A    between atoms: C_18  and  N_19
REMARK   18  A    between atoms: C_18  and  C_20
REMARK   19  A    between atoms: C_20  and  O_21
REMARK   20  A    between atoms: O_21  and  P_22
REMARK   21  A    between atoms: P_22  and  O_24
REMARK   22  A    between atoms: P_22  and  O_25
REMARK                            x       y       z     vdW  Elec       q    Type
REMARK                         _______ _______ _______ _____ _____    ______ ____
ROOT
ATOM      1  C   UNL     1       7.648   6.415  18.454  0.00  0.00    +0.000 C 
ATOM      2  C   UNL     1       7.190   6.007  17.264  0.00  0.00    +0.000 C 
ENDROOT
BRANCH   1   3
ATOM      3  C   UNL     1       8.420   7.681  18.643  0.00  0.00    +0.000 C 
BRANCH   3   4
ATOM      4  C   UNL     1       7.942   8.733  17.649  0.00  0.00    +0.000 C 
BRANCH   4   5
ATOM      5  C   UNL     1       8.354  10.125  18.105  0.00  0.00    +0.000 C 
BRANCH   5   6
ATOM      6  C   UNL     1       9.337  10.040  19.267  0.00  0.00    +0.000 C 
BRANCH   6   7
ATOM      7  C   UNL     1       9.506  11.404  19.920  0.00  0.00    +0.000 C 
BRANCH   7   8
ATOM      8  C   UNL     1      10.976  11.793  19.984  0.00  0.00    +0.000 C 
BRANCH   8   9
ATOM      9  C   UNL     1      11.644  11.563  18.636  0.00  0.00    +0.000 C 
BRANCH   9  10
ATOM     10  C   UNL     1      12.015  12.890  17.987  0.00  0.00    +0.000 C 
BRANCH  10  11
ATOM     11  C   UNL     1      10.794  13.523  17.333  0.00  0.00    +0.000 C 
BRANCH  11  12
ATOM     12  C   UNL     1      10.790  15.033  17.543  0.00  0.00    +0.000 C 
BRANCH  12  13
ATOM     13  C   UNL     1       9.382  15.526  17.864  0.00  0.00    +0.000 C 
BRANCH  13  15
ATOM     14  C   UNL     1       7.172  14.354  17.678  0.00  0.00    +0.000 C 
ATOM     15  C   UNL     1       8.511  14.391  18.393  0.00  0.00    +0.000 C 
ENDBRANCH  13  15
ENDBRANCH  12  13
ENDBRANCH  11  12
ENDBRANCH  10  11
ENDBRANCH   9  10
ENDBRANCH   8   9
ENDBRANCH   7   8
ENDBRANCH   6   7
ENDBRANCH   5   6
ENDBRANCH   4   5
ENDBRANCH   3   4
ENDBRANCH   1   3
BRANCH   2  16
ATOM     16  C   UNL     1       6.500   4.694  17.049  0.00  0.00    +0.000 C 
BRANCH  16  17
ATOM     17  O   UNL     1       6.507   3.980  18.288  0.00  0.00    +0.000 OA
ATOM     18  H   UNL     1       5.923   4.484  18.882  0.00  0.00    +0.000 HD
ENDBRANCH  16  17
BRANCH  16  19
ATOM     19  C   UNL     1       5.029   4.879  16.574  0.00  0.00    +0.000 C 
BRANCH  19  20
ATOM     20  N   UNL     1       4.481   6.156  17.142  0.00  0.00    +0.000 NA
ATOM     21  H   UNL     1       3.625   5.926  17.650  0.00  0.00    +0.000 HD
ATOM     22  H   UNL     1       4.135   6.694  16.339  0.00  0.00    +0.000 HD
ENDBRANCH  19  20
BRANCH  19  23
ATOM     23  C   UNL     1       4.255   3.585  16.956  0.00  0.00    +0.000 C 
BRANCH  23  24
ATOM     24  O   UNL     1       3.806   3.568  18.300  0.00  0.00    +0.000 OA
BRANCH  24  25
ATOM     25  P   UNL     1       2.295   2.743  18.463  0.00  0.00    +0.000 P 
ATOM     26  O   UNL     1       1.757   3.382  17.186  0.00  0.00    +0.000 OA
BRANCH  25  27
ATOM     27  O   UNL     1       0.783   1.918  18.627  0.00  0.00    +0.000 OA
ATOM     28  H   UNL     1       0.354   2.336  19.397  0.00  0.00    +0.000 HD
ENDBRANCH  25  27
BRANCH  25  29
ATOM     29  O   UNL     1       3.018   1.367  17.998  0.00  0.00    +0.000 OA
ATOM     30  H   UNL     1       2.560   0.623  18.421  0.00  0.00    +0.000 HD
ENDBRANCH  25  29
ENDBRANCH  24  25
ENDBRANCH  23  24
ENDBRANCH  19  23
ENDBRANCH  16  19
ENDBRANCH   2  16
TORSDOF 21
ENDMDL
MODEL 2
REMARK VINA RESULT:      -5.6      2.250      2.947
REMARK  Name = 
REMARK  22 active torsions:
REMARK  status: ('A' for Active; 'I' for Inactive)
REMARK    1  A    between atoms: C_1  and  C_2
REMARK    2  A    between atoms: C_2  and  C_3
REMARK    3  A    between atoms: C_3  and  C_4
REMARK    4  A    between atoms: C_4  and  C_5
REMARK    5  A    between atoms: C_5  and  C_6
REMARK    6  A    between atoms: C_6  and  C_7
REMARK    7  A    between atoms: C_7  and  C_8
REMARK    8  A    between atoms: C_8  and  C_9
REMARK    9  A    between atoms: C_9  and  C_10
REMARK   10  A    between atoms: C_10  and  C_11
REMARK   11  A    between atoms: C_11  and  C_12
REMARK   12  A    between atoms: C_12  and  C_13
REMARK   13  A    between atoms: C_13  and  C_14
REMARK   14  A    between atoms: C_15  and  C_16
REMARK   15  A    between atoms: C_16  and  O_17
REMARK   16  A    between atoms: C_16  and  C_18
REMARK   17  A    between atoms: C_18  and  N_19
REMARK   18  A    between atoms: C_18  and  C_20
REMARK   19  A    between atoms: C_20  and  O_21
REMARK   20  A    between atoms: O_21  and  P_22
REMARK   21  A    between atoms: P_22  and  O_24
REMARK   22  A    between atoms: P_22  and  O_25
REMARK                            x       y       z     vdW  Elec       q    Type
REMARK                         _______ _______ _______ _____ _____    ______ ____
ROOT
ATOM      1  C   UNL     1       7.564   6.668  18.019  0.00  0.00    +0.000 C 
ATOM      2  C   UNL     1       6.957   5.789  18.826  0.00  0.00    +0.000 C 
ENDROOT
BRANCH   1   3
ATOM      3  C   UNL     1       8.384   7.811  18.524  0.00  0.00    +0.000 C 
BRANCH   3   4
ATOM      4  C   UNL     1       7.983   9.095  17.804  0.00  0.00    +0.000 C 
BRANCH   4   5
ATOM      5  C   UNL     1       8.893  10.243  18.214  0.00  0.00    +0.000 C 
BRANCH   5   6
ATOM      6  C   UNL     1       9.297  10.112  19.678  0.00  0.00    +0.000 C 
BRANCH   6   7
ATOM      7  C   UNL     1      10.037  11.360  20.137  0.00  0.00    +0.000 C 
BRANCH   7   8
ATOM      8  C   UNL     1      11.417  11.433  19.498  0.00  0.00    +0.000 C 
BRANCH   8   9
ATOM      9  C   UNL     1      11.868  12.882  19.375  0.00  0.00    +0.000 C 
BRANCH   9  10
ATOM     10  C   UNL     1      12.117  13.245  17.918  0.00  0.00    +0.000 C 
BRANCH  10  11
ATOM     11  C   UNL     1      10.799  13.381  17.169  0.00  0.00    +0.000 C 
BRANCH  11  12
ATOM     12  C   UNL     1       9.919  14.446  17.814  0.00  0.00    +0.000 C 
BRANCH  12  13
ATOM     13  C   UNL     1       8.502  13.919  18.019  0.00  0.00    +0.000 C 
BRANCH  13  15
ATOM     14  C   UNL     1       7.989  14.370  20.432  0.00  0.00    +0.000 C 
ATOM     15  C   UNL     1       7.728  14.795  18.999  0.00  0.00    +0.000 C 
ENDBRANCH  13  15
ENDBRANCH  12  13
ENDBRANCH  11  12
ENDBRANCH  10  11
ENDBRANCH   9  10
ENDBRANCH   8   9
ENDBRANCH   7   8
ENDBRANCH   6   7
ENDBRANCH   5   6
ENDBRANCH   4   5
ENDBRANCH   3   4
ENDBRANCH   1   3
BRANCH   2  16
ATOM     16  C   UNL     1       6.055   4.699  18.333  0.00  0.00    +0.000 C 
BRANCH  16  17
ATOM     17  O   UNL     1       5.776   3.825  19.430  0.00  0.00    +0.000 OA
ATOM     18  H   UNL     1       4.888   4.073  19.741  0.00  0.00    +0.000 HD
ENDBRANCH  16  17
BRANCH  16  19
ATOM     19  C   UNL     1       4.715   5.258  17.772  0.00  0.00    +0.000 C 
BRANCH  19  20
ATOM     20  N   UNL     1       3.590   4.857  18.682  0.00  0.00    +0.000 NA
ATOM     21  H   UNL     1       3.996   4.341  19.464  0.00  0.00    +0.000 HD
ATOM     22  H   UNL     1       3.065   4.136  18.177  0.00  0.00    +0.000 HD
ENDBRANCH  19  20
BRANCH  19  23
ATOM     23  C   UNL     1       4.595   4.775  16.299  0.00  0.00    +0.000 C 
BRANCH  23  24
ATOM     24  O   UNL     1       5.469   5.446  15.409  0.00  0.00    +0.000 OA
BRANCH  24  25
ATOM     25  P   UNL     1       6.090   4.382  14.194  0.00  0.00    +0.000 P 
ATOM     26  O   UNL     1       7.431   5.110  14.180  0.00  0.00    +0.000 OA
BRANCH  25  27
ATOM     27  O   UNL     1       6.711   3.319  12.979  0.00  0.00    +0.000 OA
ATOM     28  H   UNL     1       7.326   3.868  12.458  0.00  0.00    +0.000 HD
ENDBRANCH  25  27
BRANCH  25  29
ATOM     29  O   UNL     1       6.232   3.217  15.314  0.00  0.00    +0.000 OA
ATOM     30  H   UNL     1       6.932   2.606  15.032  0.00  0.00    +0.000 HD
ENDBRANCH  25  29
ENDBRANCH  24  25
ENDBRANCH  23  24
ENDBRANCH  19  23
ENDBRANCH  16  19
ENDBRANCH   2  16
TORSDOF 21
ENDMDL
MODEL 3
REMARK VINA RESULT:      -5.6      6.390      8.189
REMARK  Name = 
REMARK  22 active torsions:
REMARK  status: ('A' for Active; 'I' for Inactive)
REMARK    1  A    between atoms: C_1  and  C_2
REMARK    2  A    between atoms: C_2  and  C_3
REMARK    3  A    between atoms: C_3  and  C_4
REMARK    4  A    between atoms: C_4  and  C_5
REMARK    5  A    between atoms: C_5  and  C_6
REMARK    6  A    between atoms: C_6  and  C_7
REMARK    7  A    between atoms: C_7  and  C_8
REMARK    8  A    between atoms: C_8  and  C_9
REMARK    9  A    between atoms: C_9  and  C_10
REMARK   10  A    between atoms: C_10  and  C_11
REMARK   11  A    between atoms: C_11  and  C_12
REMARK   12  A    between atoms: C_12  and  C_13
REMARK   13  A    between atoms: C_13  and  C_14
REMARK   14  A    between atoms: C_15  and  C_16
REMARK   15  A    between atoms: C_16  and  O_17
REMARK   16  A    between atoms: C_16  and  C_18
REMARK   17  A    between atoms: C_18  and  N_19
REMARK   18  A    between atoms: C_18  and  C_20
REMARK   19  A    between atoms: C_20  and  O_21
REMARK   20  A    between atoms: O_21  and  P_22
REMARK   21  A    between atoms: P_22  and  O_24
REMARK   22  A    between atoms: P_22  and  O_25
REMARK                            x       y       z     vdW  Elec       q    Type
REMARK                         _______ _______ _______ _____ _____    ______ ____
ROOT
ATOM      1  C   UNL     1       2.652   5.794  20.064  0.00  0.00    +0.000 C 
ATOM      2  C   UNL     1       2.912   4.497  19.862  0.00  0.00    +0.000 C 
ENDROOT
BRANCH   1   3
ATOM      3  C   UNL     1       1.418   6.283  20.752  0.00  0.00    +0.000 C 
BRANCH   3   4
ATOM      4  C   UNL     1       1.542   7.776  21.038  0.00  0.00    +0.000 C 
BRANCH   4   5
ATOM      5  C   UNL     1       0.206   8.344  21.495  0.00  0.00    +0.000 C 
BRANCH   5   6
ATOM      6  C   UNL     1       0.384   9.190  22.751  0.00  0.00    +0.000 C 
BRANCH   6   7
ATOM      7  C   UNL     1      -0.758  10.186  22.884  0.00  0.00    +0.000 C 
BRANCH   7   8
ATOM      8  C   UNL     1      -0.406  11.504  22.208  0.00  0.00    +0.000 C 
BRANCH   8   9
ATOM      9  C   UNL     1      -1.276  11.717  20.977  0.00  0.00    +0.000 C 
BRANCH   9  10
ATOM     10  C   UNL     1      -0.458  12.310  19.838  0.00  0.00    +0.000 C 
BRANCH  10  11
ATOM     11  C   UNL     1      -0.922  11.749  18.500  0.00  0.00    +0.000 C 
BRANCH  11  12
ATOM     12  C   UNL     1      -0.566  10.271  18.381  0.00  0.00    +0.000 C 
BRANCH  12  13
ATOM     13  C   UNL     1       0.948  10.086  18.333  0.00  0.00    +0.000 C 
BRANCH  13  15
ATOM     14  C   UNL     1       2.811   8.529  17.706  0.00  0.00    +0.000 C 
ATOM     15  C   UNL     1       1.320   8.797  17.608  0.00  0.00    +0.000 C 
ENDBRANCH  13  15
ENDBRANCH  12  13
ENDBRANCH  11  12
ENDBRANCH  10  11
ENDBRANCH   9  10
ENDBRANCH   8   9
ENDBRANCH   7   8
ENDBRANCH   6   7
ENDBRANCH   5   6
ENDBRANCH   4   5
ENDBRANCH   3   4
ENDBRANCH   1   3
BRANCH   2  16
ATOM     16  C   UNL     1       4.096   4.000  19.089  0.00  0.00    +0.000 C 
BRANCH  16  17
ATOM     17  O   UNL     1       4.816   3.086  19.919  0.00  0.00    +0.000 OA
ATOM     18  H   UNL     1       5.403   2.594  19.317  0.00  0.00    +0.000 HD
ENDBRANCH  16  17
BRANCH  16  19
ATOM     19  C   UNL     1       3.674   3.276  17.776  0.00  0.00    +0.000 C 
BRANCH  19  20
ATOM     20  N   UNL     1       3.760   1.791  17.980  0.00  0.00    +0.000 NA
ATOM     21  H   UNL     1       4.011   1.370  17.084  0.00  0.00    +0.000 HD
ATOM     22  H   UNL     1       2.795   1.472  18.122  0.00  0.00    +0.000 HD
ENDBRANCH  19  20
BRANCH  19  23
ATOM     23  C   UNL     1       4.554   3.850  16.630  0.00  0.00    +0.000 C 
BRANCH  23  24
ATOM     24  O   UNL     1       5.679   4.579  17.089  0.00  0.00    +0.000 OA
BRANCH  24  25
ATOM     25  P   UNL     1       6.751   4.989  15.795  0.00  0.00    +0.000 P 
ATOM     26  O   UNL     1       7.953   4.440  16.557  0.00  0.00    +0.000 OA
BRANCH  25  27
ATOM     27  O   UNL     1       7.823   5.401  14.500  0.00  0.00    +0.000 OA
ATOM     28  H   UNL     1       8.576   4.788  14.597  0.00  0.00    +0.000 HD
ENDBRANCH  25  27
BRANCH  25  29
ATOM     29  O   UNL     1       6.164   3.742  14.938  0.00  0.00    +0.000 OA
ATOM     30  H   UNL     1       6.888   3.119  14.771  0.00  0.00    +0.000 HD
ENDBRANCH  25  29
ENDBRANCH  24  25
ENDBRANCH  23  24
ENDBRANCH  19  23
ENDBRANCH  16  19
ENDBRANCH   2  16
TORSDOF 21
ENDMDL
MODEL 4
REMARK VINA RESULT:      -5.6      6.622      9.742
REMARK  Name = 
REMARK  22 active torsions:
REMARK  status: ('A' for Active; 'I' for Inactive)
REMARK    1  A    between atoms: C_1  and  C_2
REMARK    2  A    between atoms: C_2  and  C_3
REMARK    3  A    between atoms: C_3  and  C_4
REMARK    4  A    between atoms: C_4  and  C_5
REMARK    5  A    between atoms: C_5  and  C_6
REMARK    6  A    between atoms: C_6  and  C_7
REMARK    7  A    between atoms: C_7  and  C_8
REMARK    8  A    between atoms: C_8  and  C_9
REMARK    9  A    between atoms: C_9  and  C_10
REMARK   10  A    between atoms: C_10  and  C_11
REMARK   11  A    between atoms: C_11  and  C_12
REMARK   12  A    between atoms: C_12  and  C_13
REMARK   13  A    between atoms: C_13  and  C_14
REMARK   14  A    between atoms: C_15  and  C_16
REMARK   15  A    between atoms: C_16  and  O_17
REMARK   16  A    between atoms: C_16  and  C_18
REMARK   17  A    between atoms: C_18  and  N_19
REMARK   18  A    between atoms: C_18  and  C_20
REMARK   19  A    between atoms: C_20  and  O_21
REMARK   20  A    between atoms: O_21  and  P_22
REMARK   21  A    between atoms: P_22  and  O_24
REMARK   22  A    between atoms: P_22  and  O_25
REMARK                            x       y       z     vdW  Elec       q    Type
REMARK                         _______ _______ _______ _____ _____    ______ ____
ROOT
ATOM      1  C   UNL     1       2.214   7.683  18.168  0.00  0.00    +0.000 C 
ATOM      2  C   UNL     1       1.766   8.548  19.086  0.00  0.00    +0.000 C 
ENDROOT
BRANCH   1   3
ATOM      3  C   UNL     1       2.377   6.221  18.431  0.00  0.00    +0.000 C 
BRANCH   3   4
ATOM      4  C   UNL     1       3.040   6.009  19.787  0.00  0.00    +0.000 C 
BRANCH   4   5
ATOM      5  C   UNL     1       2.155   5.160  20.687  0.00  0.00    +0.000 C 
BRANCH   5   6
ATOM      6  C   UNL     1       1.129   4.391  19.862  0.00  0.00    +0.000 C 
BRANCH   6   7
ATOM      7  C   UNL     1       1.348   2.893  20.006  0.00  0.00    +0.000 C 
BRANCH   7   8
ATOM      8  C   UNL     1       1.175   2.191  18.666  0.00  0.00    +0.000 C 
BRANCH   8   9
ATOM      9  C   UNL     1       2.284   2.600  17.707  0.00  0.00    +0.000 C 
BRANCH   9  10
ATOM     10  C   UNL     1       3.647   2.219  18.268  0.00  0.00    +0.000 C 
BRANCH  10  11
ATOM     11  C   UNL     1       4.646   3.348  18.054  0.00  0.00    +0.000 C 
BRANCH  11  12
ATOM     12  C   UNL     1       4.489   3.951  16.662  0.00  0.00    +0.000 C 
BRANCH  12  13
ATOM     13  C   UNL     1       5.854   4.220  16.037  0.00  0.00    +0.000 C 
BRANCH  13  15
ATOM     14  C   UNL     1       7.132   6.076  17.139  0.00  0.00    +0.000 C 
ATOM     15  C   UNL     1       6.885   4.578  17.102  0.00  0.00    +0.000 C 
ENDBRANCH  13  15
ENDBRANCH  12  13
ENDBRANCH  11  12
ENDBRANCH  10  11
ENDBRANCH   9  10
ENDBRANCH   8   9
ENDBRANCH   7   8
ENDBRANCH   6   7
ENDBRANCH   5   6
ENDBRANCH   4   5
ENDBRANCH   3   4
ENDBRANCH   1   3
BRANCH   2  16
ATOM     16  C   UNL     1       1.692  10.028  18.864  0.00  0.00    +0.000 C 
BRANCH  16  17
ATOM     17  O   UNL     1       1.454  10.256  17.472  0.00  0.00    +0.000 OA
ATOM     18  H   UNL     1       1.591  11.211  17.338  0.00  0.00    +0.000 HD
ENDBRANCH  16  17
BRANCH  16  19
ATOM     19  C   UNL     1       0.549  10.686  19.692  0.00  0.00    +0.000 C 
BRANCH  19  20
ATOM     20  N   UNL     1      -0.010   9.678  20.654  0.00  0.00    +0.000 NA
ATOM     21  H   UNL     1      -0.979   9.499  20.385  0.00  0.00    +0.000 HD
ATOM     22  H   UNL     1      -0.107  10.169  21.549  0.00  0.00    +0.000 HD
ENDBRANCH  19  20
BRANCH  19  23
ATOM     23  C   UNL     1      -0.467  11.287  18.679  0.00  0.00    +0.000 C 
BRANCH  23  24
ATOM     24  O   UNL     1      -1.818  11.011  18.999  0.00  0.00    +0.000 OA
BRANCH  24  25
ATOM     25  P   UNL     1      -2.663  10.298  17.668  0.00  0.00    +0.000 P 
ATOM     26  O   UNL     1      -3.321  11.629  17.315  0.00  0.00    +0.000 OA
BRANCH  25  27
ATOM     27  O   UNL     1      -3.507   9.584  16.338  0.00  0.00    +0.000 OA
ATOM     28  H   UNL     1      -3.958   8.807  16.718  0.00  0.00    +0.000 HD
ENDBRANCH  25  27
BRANCH  25  29
ATOM     29  O   UNL     1      -1.272  10.258  16.833  0.00  0.00    +0.000 OA
ATOM     30  H   UNL     1      -1.158   9.363  16.474  0.00  0.00    +0.000 HD
ENDBRANCH  25  29
ENDBRANCH  24  25
ENDBRANCH  23  24
ENDBRANCH  19  23
ENDBRANCH  16  19
ENDBRANCH   2  16
TORSDOF 21
ENDMDL
MODEL 5
REMARK VINA RESULT:      -5.6      2.167      3.522
REMARK  Name = 
REMARK  22 active torsions:
REMARK  status: ('A' for Active; 'I' for Inactive)
REMARK    1  A    between atoms: C_1  and  C_2
REMARK    2  A    between atoms: C_2  and  C_3
REMARK    3  A    between atoms: C_3  and  C_4
REMARK    4  A    between atoms: C_4  and  C_5
REMARK    5  A    between atoms: C_5  and  C_6
REMARK    6  A    between atoms: C_6  and  C_7
REMARK    7  A    between atoms: C_7  and  C_8
REMARK    8  A    between atoms: C_8  and  C_9
REMARK    9  A    between atoms: C_9  and  C_10
REMARK   10  A    between atoms: C_10  and  C_11
REMARK   11  A    between atoms: C_11  and  C_12
REMARK   12  A    between atoms: C_12  and  C_13
REMARK   13  A    between atoms: C_13  and  C_14
REMARK   14  A    between atoms: C_15  and  C_16
REMARK   15  A    between atoms: C_16  and  O_17
REMARK   16  A    between atoms: C_16  and  C_18
REMARK   17  A    between atoms: C_18  and  N_19
REMARK   18  A    between atoms: C_18  and  C_20
REMARK   19  A    between atoms: C_20  and  O_21
REMARK   20  A    between atoms: O_21  and  P_22
REMARK   21  A    between atoms: P_22  and  O_24
REMARK   22  A    between atoms: P_22  and  O_25
REMARK                            x       y       z     vdW  Elec       q    Type
REMARK                         _______ _______ _______ _____ _____    ______ ____
ROOT
ATOM      1  C   UNL     1       7.637   8.518  17.716  0.00  0.00    +0.000 C 
ATOM      2  C   UNL     1       7.616   7.189  17.556  0.00  0.00    +0.000 C 
ENDROOT
BRANCH   1   3
ATOM      3  C   UNL     1       8.734   9.238  18.431  0.00  0.00    +0.000 C 
BRANCH   3   4
ATOM      4  C   UNL     1       8.711  10.717  18.061  0.00  0.00    +0.000 C 
BRANCH   4   5
ATOM      5  C   UNL     1      10.127  11.247  17.893  0.00  0.00    +0.000 C 
BRANCH   5   6
ATOM      6  C   UNL     1      10.108  12.732  17.547  0.00  0.00    +0.000 C 
BRANCH   6   7
ATOM      7  C   UNL     1       8.816  13.372  18.034  0.00  0.00    +0.000 C 
BRANCH   7   8
ATOM      8  C   UNL     1       9.109  14.623  18.851  0.00  0.00    +0.000 C 
BRANCH   8   9
ATOM      9  C   UNL     1      10.250  14.364  19.825  0.00  0.00    +0.000 C 
BRANCH   9  10
ATOM     10  C   UNL     1       9.711  13.896  21.171  0.00  0.00    +0.000 C 
BRANCH  10  11
ATOM     11  C   UNL     1      10.091  12.443  21.421  0.00  0.00    +0.000 C 
BRANCH  11  12
ATOM     12  C   UNL     1       8.848  11.595  21.668  0.00  0.00    +0.000 C 
BRANCH  12  13
ATOM     13  C   UNL     1       7.853  12.346  22.548  0.00  0.00    +0.000 C 
BRANCH  13  15
ATOM     14  C   UNL     1       8.475  12.310  24.977  0.00  0.00    +0.000 C 
ATOM     15  C   UNL     1       7.661  11.639  23.885  0.00  0.00    +0.000 C 
ENDBRANCH  13  15
ENDBRANCH  12  13
ENDBRANCH  11  12
ENDBRANCH  10  11
ENDBRANCH   9  10
ENDBRANCH   8   9
ENDBRANCH   7   8
ENDBRANCH   6   7
ENDBRANCH   5   6
ENDBRANCH   4   5
ENDBRANCH   3   4
ENDBRANCH   1   3
BRANCH   2  16
ATOM     16  C   UNL     1       6.475   6.449  16.927  0.00  0.00    +0.000 C 
BRANCH  16  17
ATOM     17  O   UNL     1       6.954   5.830  15.730  0.00  0.00    +0.000 OA
ATOM     18  H   UNL     1       7.691   6.389  15.425  0.00  0.00    +0.000 HD
ENDBRANCH  16  17
BRANCH  16  19
ATOM     19  C   UNL     1       5.896   5.355  17.871  0.00  0.00    +0.000 C 
BRANCH  19  20
ATOM     20  N   UNL     1       6.964   4.344  18.172  0.00  0.00    +0.000 NA
ATOM     21  H   UNL     1       6.856   4.063  19.148  0.00  0.00    +0.000 HD
ATOM     22  H   UNL     1       7.848   4.863  18.178  0.00  0.00    +0.000 HD
ENDBRANCH  19  20
BRANCH  19  23
ATOM     23  C   UNL     1       4.610   4.798  17.197  0.00  0.00    +0.000 C 
BRANCH  23  24
ATOM     24  O   UNL     1       4.620   3.391  17.032  0.00  0.00    +0.000 OA
BRANCH  24  25
ATOM     25  P   UNL     1       3.201   2.656  17.695  0.00  0.00    +0.000 P 
ATOM     26  O   UNL     1       3.907   2.381  19.019  0.00  0.00    +0.000 OA
BRANCH  25  27
ATOM     27  O   UNL     1       1.782   1.920  18.356  0.00  0.00    +0.000 OA
ATOM     28  H   UNL     1       1.462   1.322  17.654  0.00  0.00    +0.000 HD
ENDBRANCH  25  27
BRANCH  25  29
ATOM     29  O   UNL     1       2.533   4.127  17.846  0.00  0.00    +0.000 OA
ATOM     30  H   UNL     1       2.842   4.680  17.111  0.00  0.00    +0.000 HD
ENDBRANCH  25  29
ENDBRANCH  24  25
ENDBRANCH  23  24
ENDBRANCH  19  23
ENDBRANCH  16  19
ENDBRANCH   2  16
TORSDOF 21
ENDMDL
MODEL 6
REMARK VINA RESULT:      -5.5      6.934      9.990
REMARK  Name = 
REMARK  22 active torsions:
REMARK  status: ('A' for Active; 'I' for Inactive)
REMARK    1  A    between atoms: C_1  and  C_2
REMARK    2  A    between atoms: C_2  and  C_3
REMARK    3  A    between atoms: C_3  and  C_4
REMARK    4  A    between atoms: C_4  and  C_5
REMARK    5  A    between atoms: C_5  and  C_6
REMARK    6  A    between atoms: C_6  and  C_7
REMARK    7  A    between atoms: C_7  and  C_8
REMARK    8  A    between atoms: C_8  and  C_9
REMARK    9  A    between atoms: C_9  and  C_10
REMARK   10  A    between atoms: C_10  and  C_11
REMARK   11  A    between atoms: C_11  and  C_12
REMARK   12  A    between atoms: C_12  and  C_13
REMARK   13  A    between atoms: C_13  and  C_14
REMARK   14  A    between atoms: C_15  and  C_16
REMARK   15  A    between atoms: C_16  and  O_17
REMARK   16  A    between atoms: C_16  and  C_18
REMARK   17  A    between atoms: C_18  and  N_19
REMARK   18  A    between atoms: C_18  and  C_20
REMARK   19  A    between atoms: C_20  and  O_21
REMARK   20  A    between atoms: O_21  and  P_22
REMARK   21  A    between atoms: P_22  and  O_24
REMARK   22  A    between atoms: P_22  and  O_25
REMARK                            x       y       z     vdW  Elec       q    Type
REMARK                         _______ _______ _______ _____ _____    ______ ____
ROOT
ATOM      1  C   UNL     1       1.887   8.259  18.876  0.00  0.00    +0.000 C 
ATOM      2  C   UNL     1       1.940   9.459  18.287  0.00  0.00    +0.000 C 
ENDROOT
BRANCH   1   3
ATOM      3  C   UNL     1       2.566   7.046  18.327  0.00  0.00    +0.000 C 
BRANCH   3   4
ATOM      4  C   UNL     1       3.026   6.147  19.469  0.00  0.00    +0.000 C 
BRANCH   4   5
ATOM      5  C   UNL     1       1.851   5.775  20.362  0.00  0.00    +0.000 C 
BRANCH   5   6
ATOM      6  C   UNL     1       2.049   4.387  20.960  0.00  0.00    +0.000 C 
BRANCH   6   7
ATOM      7  C   UNL     1       2.708   3.463  19.946  0.00  0.00    +0.000 C 
BRANCH   7   8
ATOM      8  C   UNL     1       1.718   3.055  18.864  0.00  0.00    +0.000 C 
BRANCH   8   9
ATOM      9  C   UNL     1       2.449   2.746  17.566  0.00  0.00    +0.000 C 
BRANCH   9  10
ATOM     10  C   UNL     1       3.931   3.074  17.693  0.00  0.00    +0.000 C 
BRANCH  10  11
ATOM     11  C   UNL     1       4.385   3.947  16.531  0.00  0.00    +0.000 C 
BRANCH  11  12
ATOM     12  C   UNL     1       5.824   4.411  16.734  0.00  0.00    +0.000 C 
BRANCH  12  13
ATOM     13  C   UNL     1       5.859   5.867  17.190  0.00  0.00    +0.000 C 
BRANCH  13  15
ATOM     14  C   UNL     1       7.768   6.220  18.776  0.00  0.00    +0.000 C 
ATOM     15  C   UNL     1       7.293   6.360  17.341  0.00  0.00    +0.000 C 
ENDBRANCH  13  15
ENDBRANCH  12  13
ENDBRANCH  11  12
ENDBRANCH  10  11
ENDBRANCH   9  10
ENDBRANCH   8   9
ENDBRANCH   7   8
ENDBRANCH   6   7
ENDBRANCH   5   6
ENDBRANCH   4   5
ENDBRANCH   3   4
ENDBRANCH   1   3
BRANCH   2  16
ATOM     16  C   UNL     1       1.185  10.657  18.776  0.00  0.00    +0.000 C 
BRANCH  16  17
ATOM     17  O   UNL     1       1.456  11.745  17.889  0.00  0.00    +0.000 OA
ATOM     18  H   UNL     1       0.938  11.560  17.085  0.00  0.00    +0.000 HD
ENDBRANCH  16  17
BRANCH  16  19
ATOM     19  C   UNL     1      -0.351  10.402  18.818  0.00  0.00    +0.000 C 
BRANCH  19  20
ATOM     20  N   UNL     1      -0.836  10.064  17.438  0.00  0.00    +0.000 NA
ATOM     21  H   UNL     1      -1.781   9.687  17.527  0.00  0.00    +0.000 HD
ATOM     22  H   UNL     1      -0.289   9.248  17.141  0.00  0.00    +0.000 HD
ENDBRANCH  19  20
BRANCH  19  23
ATOM     23  C   UNL     1      -1.007  11.649  19.476  0.00  0.00    +0.000 C 
BRANCH  23  24
ATOM     24  O   UNL     1      -0.070  12.598  19.953  0.00  0.00    +0.000 OA
BRANCH  24  25
ATOM     25  P   UNL     1      -0.411  14.189  19.366  0.00  0.00    +0.000 P 
ATOM     26  O   UNL     1       1.074  14.486  19.178  0.00  0.00    +0.000 OA
BRANCH  25  27
ATOM     27  O   UNL     1      -0.752  15.780  18.780  0.00  0.00    +0.000 OA
ATOM     28  H   UNL     1      -1.709  15.901  18.930  0.00  0.00    +0.000 HD
ENDBRANCH  25  27
BRANCH  25  29
ATOM     29  O   UNL     1      -0.914  13.544  17.965  0.00  0.00    +0.000 OA
ATOM     30  H   UNL     1      -1.694  12.994  18.145  0.00  0.00    +0.000 HD
ENDBRANCH  25  29
ENDBRANCH  24  25
ENDBRANCH  23  24
ENDBRANCH  19  23
ENDBRANCH  16  19
ENDBRANCH   2  16
TORSDOF 21
ENDMDL
MODEL 7
REMARK VINA RESULT:      -5.5      7.793     10.356
REMARK  Name = 
REMARK  22 active torsions:
REMARK  status: ('A' for Active; 'I' for Inactive)
REMARK    1  A    between atoms: C_1  and  C_2
REMARK    2  A    between atoms: C_2  and  C_3
REMARK    3  A    between atoms: C_3  and  C_4
REMARK    4  A    between atoms: C_4  and  C_5
REMARK    5  A    between atoms: C_5  and  C_6
REMARK    6  A    between atoms: C_6  and  C_7
REMARK    7  A    between atoms: C_7  and  C_8
REMARK    8  A    between atoms: C_8  and  C_9
REMARK    9  A    between atoms: C_9  and  C_10
REMARK   10  A    between atoms: C_10  and  C_11
REMARK   11  A    between atoms: C_11  and  C_12
REMARK   12  A    between atoms: C_12  and  C_13
REMARK   13  A    between atoms: C_13  and  C_14
REMARK   14  A    between atoms: C_15  and  C_16
REMARK   15  A    between atoms: C_16  and  O_17
REMARK   16  A    between atoms: C_16  and  C_18
REMARK   17  A    between atoms: C_18  and  N_19
REMARK   18  A    between atoms: C_18  and  C_20
REMARK   19  A    between atoms: C_20  and  O_21
REMARK   20  A    between atoms: O_21  and  P_22
REMARK   21  A    between atoms: P_22  and  O_24
REMARK   22  A    between atoms: P_22  and  O_25
REMARK                            x       y       z     vdW  Elec       q    Type
REMARK                         _______ _______ _______ _____ _____    ______ ____
ROOT
ATOM      1  C   UNL     1       2.028   8.223  18.597  0.00  0.00    +0.000 C 
ATOM      2  C   UNL     1       2.154   9.516  18.277  0.00  0.00    +0.000 C 
ENDROOT
BRANCH   1   3
ATOM      3  C   UNL     1       2.875   7.146  17.999  0.00  0.00    +0.000 C 
BRANCH   3   4
ATOM      4  C   UNL     1       3.315   6.170  19.085  0.00  0.00    +0.000 C 
BRANCH   4   5
ATOM      5  C   UNL     1       2.223   6.009  20.133  0.00  0.00    +0.000 C 
BRANCH   5   6
ATOM      6  C   UNL     1       2.244   4.602  20.719  0.00  0.00    +0.000 C 
BRANCH   6   7
ATOM      7  C   UNL     1       0.920   3.900  20.457  0.00  0.00    +0.000 C 
BRANCH   7   8
ATOM      8  C   UNL     1       0.952   3.171  19.120  0.00  0.00    +0.000 C 
BRANCH   8   9
ATOM      9  C   UNL     1       2.014   2.082  19.136  0.00  0.00    +0.000 C 
BRANCH   9  10
ATOM     10  C   UNL     1       2.723   2.005  17.790  0.00  0.00    +0.000 C 
BRANCH  10  11
ATOM     11  C   UNL     1       4.020   2.802  17.824  0.00  0.00    +0.000 C 
BRANCH  11  12
ATOM     12  C   UNL     1       4.046   3.838  16.705  0.00  0.00    +0.000 C 
BRANCH  12  13
ATOM     13  C   UNL     1       5.450   4.410  16.537  0.00  0.00    +0.000 C 
BRANCH  13  15
ATOM     14  C   UNL     1       6.110   3.961  14.159  0.00  0.00    +0.000 C 
ATOM     15  C   UNL     1       5.635   5.011  15.147  0.00  0.00    +0.000 C 
ENDBRANCH  13  15
ENDBRANCH  12  13
ENDBRANCH  11  12
ENDBRANCH  10  11
ENDBRANCH   9  10
ENDBRANCH   8   9
ENDBRANCH   7   8
ENDBRANCH   6   7
ENDBRANCH   5   6
ENDBRANCH   4   5
ENDBRANCH   3   4
ENDBRANCH   1   3
BRANCH   2  16
ATOM     16  C   UNL     1       1.247  10.590  18.796  0.00  0.00    +0.000 C 
BRANCH  16  17
ATOM     17  O   UNL     1       1.348  11.717  17.921  0.00  0.00    +0.000 OA
ATOM     18  H   UNL     1       1.416  12.494  18.504  0.00  0.00    +0.000 HD
ENDBRANCH  16  17
BRANCH  16  19
ATOM     19  C   UNL     1      -0.237  10.122  18.858  0.00  0.00    +0.000 C 
BRANCH  19  20
ATOM     20  N   UNL     1      -0.897  10.390  17.537  0.00  0.00    +0.000 NA
ATOM     21  H   UNL     1      -0.269  10.057  16.805  0.00  0.00    +0.000 HD
ATOM     22  H   UNL     1      -0.875  11.408  17.415  0.00  0.00    +0.000 HD
ENDBRANCH  19  20
BRANCH  19  23
ATOM     23  C   UNL     1      -0.886  10.815  20.090  0.00  0.00    +0.000 C 
BRANCH  23  24
ATOM     24  O   UNL     1      -0.692  12.217  20.121  0.00  0.00    +0.000 OA
BRANCH  24  25
ATOM     25  P   UNL     1      -2.191  13.073  20.233  0.00  0.00    +0.000 P 
ATOM     26  O   UNL     1      -2.840  12.162  19.195  0.00  0.00    +0.000 OA
BRANCH  25  27
ATOM     27  O   UNL     1      -3.690  13.929  20.346  0.00  0.00    +0.000 OA
ATOM     28  H   UNL     1      -4.015  13.744  21.247  0.00  0.00    +0.000 HD
ENDBRANCH  25  27
BRANCH  25  29
ATOM     29  O   UNL     1      -2.463  12.369  21.670  0.00  0.00    +0.000 OA
ATOM     30  H   UNL     1      -1.793  11.680  21.804  0.00  0.00    +0.000 HD
ENDBRANCH  25  29
ENDBRANCH  24  25
ENDBRANCH  23  24
ENDBRANCH  19  23
ENDBRANCH  16  19
ENDBRANCH   2  16
TORSDOF 21
ENDMDL
MODEL 8
REMARK VINA RESULT:      -5.5      6.799     11.023
REMARK  Name = 
REMARK  22 active torsions:
REMARK  status: ('A' for Active; 'I' for Inactive)
REMARK    1  A    between atoms: C_1  and  C_2
REMARK    2  A    between atoms: C_2  and  C_3
REMARK    3  A    between atoms: C_3  and  C_4
REMARK    4  A    between atoms: C_4  and  C_5
REMARK    5  A    between atoms: C_5  and  C_6
REMARK    6  A    between atoms: C_6  and  C_7
REMARK    7  A    between atoms: C_7  and  C_8
REMARK    8  A    between atoms: C_8  and  C_9
REMARK    9  A    between atoms: C_9  and  C_10
REMARK   10  A    between atoms: C_10  and  C_11
REMARK   11  A    between atoms: C_11  and  C_12
REMARK   12  A    between atoms: C_12  and  C_13
REMARK   13  A    between atoms: C_13  and  C_14
REMARK   14  A    between atoms: C_15  and  C_16
REMARK   15  A    between atoms: C_16  and  O_17
REMARK   16  A    between atoms: C_16  and  C_18
REMARK   17  A    between atoms: C_18  and  N_19
REMARK   18  A    between atoms: C_18  and  C_20
REMARK   19  A    between atoms: C_20  and  O_21
REMARK   20  A    between atoms: O_21  and  P_22
REMARK   21  A    between atoms: P_22  and  O_24
REMARK   22  A    between atoms: P_22  and  O_25
REMARK                            x       y       z     vdW  Elec       q    Type
REMARK                         _______ _______ _______ _____ _____    ______ ____
ROOT
ATOM      1  C   UNL     1       8.211   9.214  18.044  0.00  0.00    +0.000 C 
ATOM      2  C   UNL     1       9.169  10.010  18.532  0.00  0.00    +0.000 C 
ENDROOT
BRANCH   1   3
ATOM      3  C   UNL     1       8.141   7.749  18.328  0.00  0.00    +0.000 C 
BRANCH   3   4
ATOM      4  C   UNL     1       7.207   7.071  17.331  0.00  0.00    +0.000 C 
BRANCH   4   5
ATOM      5  C   UNL     1       6.286   6.092  18.043  0.00  0.00    +0.000 C 
BRANCH   5   6
ATOM      6  C   UNL     1       6.428   4.694  17.452  0.00  0.00    +0.000 C 
BRANCH   6   7
ATOM      7  C   UNL     1       5.285   4.407  16.490  0.00  0.00    +0.000 C 
BRANCH   7   8
ATOM      8  C   UNL     1       3.946   4.757  17.123  0.00  0.00    +0.000 C 
BRANCH   8   9
ATOM      9  C   UNL     1       3.180   3.491  17.478  0.00  0.00    +0.000 C 
BRANCH   9  10
ATOM     10  C   UNL     1       1.747   3.823  17.871  0.00  0.00    +0.000 C 
BRANCH  10  11
ATOM     11  C   UNL     1       1.400   3.188  19.211  0.00  0.00    +0.000 C 
BRANCH  11  12
ATOM     12  C   UNL     1       0.989   4.251  20.223  0.00  0.00    +0.000 C 
BRANCH  12  13
ATOM     13  C   UNL     1       2.208   5.026  20.713  0.00  0.00    +0.000 C 
BRANCH  13  15
ATOM     14  C   UNL     1       1.470   7.417  20.866  0.00  0.00    +0.000 C 
ATOM     15  C   UNL     1       2.275   6.407  20.070  0.00  0.00    +0.000 C 
ENDBRANCH  13  15
ENDBRANCH  12  13
ENDBRANCH  11  12
ENDBRANCH  10  11
ENDBRANCH   9  10
ENDBRANCH   8   9
ENDBRANCH   7   8
ENDBRANCH   6   7
ENDBRANCH   5   6
ENDBRANCH   4   5
ENDBRANCH   3   4
ENDBRANCH   1   3
BRANCH   2  16
ATOM     16  C   UNL     1       9.304  11.460  18.175  0.00  0.00    +0.000 C 
BRANCH  16  17
ATOM     17  O   UNL     1       8.928  12.234  19.317  0.00  0.00    +0.000 OA
ATOM     18  H   UNL     1       9.429  13.066  19.244  0.00  0.00    +0.000 HD
ENDBRANCH  16  17
BRANCH  16  19
ATOM     19  C   UNL     1      10.761  11.828  17.766  0.00  0.00    +0.000 C 
BRANCH  19  20
ATOM     20  N   UNL     1      11.680  11.578  18.925  0.00  0.00    +0.000 NA
ATOM     21  H   UNL     1      11.459  10.655  19.302  0.00  0.00    +0.000 HD
ATOM     22  H   UNL     1      11.370  12.212  19.670  0.00  0.00    +0.000 HD
ENDBRANCH  19  20
BRANCH  19  23
ATOM     23  C   UNL     1      10.733  13.287  17.228  0.00  0.00    +0.000 C 
BRANCH  23  24
ATOM     24  O   UNL     1      10.546  14.260  18.239  0.00  0.00    +0.000 OA
BRANCH  24  25
ATOM     25  P   UNL     1      10.511  15.863  17.591  0.00  0.00    +0.000 P 
ATOM     26  O   UNL     1      11.249  15.418  16.331  0.00  0.00    +0.000 OA
BRANCH  25  27
ATOM     27  O   UNL     1      10.476  17.467  16.943  0.00  0.00    +0.000 OA
ATOM     28  H   UNL     1       9.612  17.536  16.495  0.00  0.00    +0.000 HD
ENDBRANCH  25  27
BRANCH  25  29
ATOM     29  O   UNL     1       8.932  15.677  17.267  0.00  0.00    +0.000 OA
ATOM     30  H   UNL     1       8.705  16.247  16.514  0.00  0.00    +0.000 HD
ENDBRANCH  25  29
ENDBRANCH  24  25
ENDBRANCH  23  24
ENDBRANCH  19  23
ENDBRANCH  16  19
ENDBRANCH   2  16
TORSDOF 21
ENDMDL
MODEL 9
REMARK VINA RESULT:      -5.5      6.259     10.691
REMARK  Name = 
REMARK  22 active torsions:
REMARK  status: ('A' for Active; 'I' for Inactive)
REMARK    1  A    between atoms: C_1  and  C_2
REMARK    2  A    between atoms: C_2  and  C_3
REMARK    3  A    between atoms: C_3  and  C_4
REMARK    4  A    between atoms: C_4  and  C_5
REMARK    5  A    between atoms: C_5  and  C_6
REMARK    6  A    between atoms: C_6  and  C_7
REMARK    7  A    between atoms: C_7  and  C_8
REMARK    8  A    between atoms: C_8  and  C_9
REMARK    9  A    between atoms: C_9  and  C_10
REMARK   10  A    between atoms: C_10  and  C_11
REMARK   11  A    between atoms: C_11  and  C_12
REMARK   12  A    between atoms: C_12  and  C_13
REMARK   13  A    between atoms: C_13  and  C_14
REMARK   14  A    between atoms: C_15  and  C_16
REMARK   15  A    between atoms: C_16  and  O_17
REMARK   16  A    between atoms: C_16  and  C_18
REMARK   17  A    between atoms: C_18  and  N_19
REMARK   18  A    between atoms: C_18  and  C_20
REMARK   19  A    between atoms: C_20  and  O_21
REMARK   20  A    between atoms: O_21  and  P_22
REMARK   21  A    between atoms: P_22  and  O_24
REMARK   22  A    between atoms: P_22  and  O_25
REMARK                            x       y       z     vdW  Elec       q    Type
REMARK                         _______ _______ _______ _____ _____    ______ ____
ROOT
ATOM      1  C   UNL     1       8.534   9.404  18.326  0.00  0.00    +0.000 C 
ATOM      2  C   UNL     1       9.230  10.003  19.300  0.00  0.00    +0.000 C 
ENDROOT
BRANCH   1   3
ATOM      3  C   UNL     1       8.246   7.938  18.309  0.00  0.00    +0.000 C 
BRANCH   3   4
ATOM      4  C   UNL     1       7.090   7.647  17.359  0.00  0.00    +0.000 C 
BRANCH   4   5
ATOM      5  C   UNL     1       6.738   6.167  17.384  0.00  0.00    +0.000 C 
BRANCH   5   6
ATOM      6  C   UNL     1       6.557   5.681  18.818  0.00  0.00    +0.000 C 
BRANCH   6   7
ATOM      7  C   UNL     1       5.116   5.257  19.056  0.00  0.00    +0.000 C 
BRANCH   7   8
ATOM      8  C   UNL     1       4.916   3.795  18.684  0.00  0.00    +0.000 C 
BRANCH   8   9
ATOM      9  C   UNL     1       3.773   3.653  17.689  0.00  0.00    +0.000 C 
BRANCH   9  10
ATOM     10  C   UNL     1       3.139   2.272  17.793  0.00  0.00    +0.000 C 
BRANCH  10  11
ATOM     11  C   UNL     1       1.974   2.293  18.773  0.00  0.00    +0.000 C 
BRANCH  11  12
ATOM     12  C   UNL     1       1.271   3.646  18.748  0.00  0.00    +0.000 C 
BRANCH  12  13
ATOM     13  C   UNL     1       0.950   4.110  20.165  0.00  0.00    +0.000 C 
BRANCH  13  15
ATOM     14  C   UNL     1       1.841   2.611  21.968  0.00  0.00    +0.000 C 
ATOM     15  C   UNL     1       2.114   3.834  21.110  0.00  0.00    +0.000 C 
ENDBRANCH  13  15
ENDBRANCH  12  13
ENDBRANCH  11  12
ENDBRANCH  10  11
ENDBRANCH   9  10
ENDBRANCH   8   9
ENDBRANCH   7   8
ENDBRANCH   6   7
ENDBRANCH   5   6
ENDBRANCH   4   5
ENDBRANCH   3   4
ENDBRANCH   1   3
BRANCH   2  16
ATOM     16  C   UNL     1       9.607  11.453  19.277  0.00  0.00    +0.000 C 
BRANCH  16  17
ATOM     17  O   UNL     1      10.799  11.614  20.050  0.00  0.00    +0.000 OA
ATOM     18  H   UNL     1      11.530  11.376  19.453  0.00  0.00    +0.000 HD
ENDBRANCH  16  17
BRANCH  16  19
ATOM     19  C   UNL     1       9.862  11.968  17.830  0.00  0.00    +0.000 C 
BRANCH  19  20
ATOM     20  N   UNL     1      11.322  11.836  17.507  0.00  0.00    +0.000 NA
ATOM     21  H   UNL     1      11.541  10.839  17.471  0.00  0.00    +0.000 HD
ATOM     22  H   UNL     1      11.824  12.153  18.344  0.00  0.00    +0.000 HD
ENDBRANCH  19  20
BRANCH  19  23
ATOM     23  C   UNL     1       9.280  13.407  17.744  0.00  0.00    +0.000 C 
BRANCH  23  24
ATOM     24  O   UNL     1       7.867  13.443  17.650  0.00  0.00    +0.000 OA
BRANCH  24  25
ATOM     25  P   UNL     1       7.207  14.848  18.413  0.00  0.00    +0.000 P 
ATOM     26  O   UNL     1       8.095  15.771  17.585  0.00  0.00    +0.000 OA
BRANCH  25  27
ATOM     27  O   UNL     1       6.546  16.252  19.178  0.00  0.00    +0.000 OA
ATOM     28  H   UNL     1       6.276  15.948  20.065  0.00  0.00    +0.000 HD
ENDBRANCH  25  27
BRANCH  25  29
ATOM     29  O   UNL     1       5.846  14.653  17.551  0.00  0.00    +0.000 OA
ATOM     30  H   UNL     1       6.063  14.756  16.611  0.00  0.00    +0.000 HD
ENDBRANCH  25  29
ENDBRANCH  24  25
ENDBRANCH  23  24
ENDBRANCH  19  23
ENDBRANCH  16  19
ENDBRANCH   2  16
TORSDOF 21
ENDMDL
