MODEL 1
REMARK VINA RESULT:      -8.1      0.000      0.000
REMARK  Name = 
REMARK  11 active torsions:
REMARK  status: ('A' for Active; 'I' for Inactive)
REMARK    1  A    between atoms: C_1  and  C_2
REMARK    2  A    between atoms: C_2  and  O_3
REMARK    3  A    between atoms: O_3  and  C_4
REMARK    4  A    between atoms: C_9  and  N_10
REMARK    5  A    between atoms: C_16  and  C_17
REMARK    6  A    between atoms: N_19  and  C_20
REMARK    7  A    between atoms: C_20  and  C_21
REMARK    8  A    between atoms: N_24  and  C_25
REMARK    9  A    between atoms: C_25  and  C_26
REMARK   10  A    between atoms: C_26  and  C_27
REMARK   11  A    between atoms: C_26  and  C_28
REMARK                            x       y       z     vdW  Elec       q    Type
REMARK                         _______ _______ _______ _____ _____    ______ ____
ROOT
ATOM      1  N   UNL     1       0.559  12.048  19.310  0.00  0.00    +0.000 N 
ATOM      2  C   UNL     1      -0.211  12.350  20.499  0.00  0.00    +0.000 C 
ATOM      3  C   UNL     1      -0.078  11.092  21.296  0.00  0.00    +0.000 A 
ATOM      4  C   UNL     1      -0.548  10.860  22.580  0.00  0.00    +0.000 A 
ATOM      5  C   UNL     1      -0.281   9.624  23.161  0.00  0.00    +0.000 A 
ATOM      6  C   UNL     1       0.431   8.643  22.450  0.00  0.00    +0.000 A 
ATOM      7  C   UNL     1       0.905   8.860  21.136  0.00  0.00    +0.000 A 
ATOM      8  C   UNL     1       0.640  10.112  20.587  0.00  0.00    +0.000 A 
ATOM      9  C   UNL     1       1.018  10.740  19.303  0.00  0.00    +0.000 C 
ATOM     10  O   UNL     1       1.648  10.209  18.412  0.00  0.00    +0.000 OA
ENDROOT
BRANCH   1  16
ATOM     11  C   UNL     1       2.129  17.002  18.841  0.00  0.00    +0.000 C 
ATOM     12  O   UNL     1       3.317  17.316  18.801  0.00  0.00    +0.000 OA
ATOM     13  N   UNL     1       1.683  15.693  18.921  0.00  0.00    +0.000 N 
ATOM     14  C   UNL     1       2.655  14.624  19.065  0.00  0.00    +0.000 C 
ATOM     15  C   UNL     1       2.333  13.440  18.161  0.00  0.00    +0.000 C 
ATOM     16  C   UNL     1       0.869  12.991  18.227  0.00  0.00    +0.000 C 
ATOM     17  C   UNL     1      -0.101  14.180  18.161  0.00  0.00    +0.000 C 
ATOM     18  C   UNL     1       0.282  15.319  19.098  0.00  0.00    +0.000 C 
BRANCH  11  19
ATOM     19  O   UNL     1       1.118  17.908  18.796  0.00  0.00    +0.000 OA
BRANCH  19  21
ATOM     20  C   UNL     1      -0.482  18.436  17.033  0.00  0.00    +0.000 C 
ATOM     21  C   UNL     1       0.939  18.591  17.545  0.00  0.00    +0.000 C 
ENDBRANCH  19  21
ENDBRANCH  11  19
ENDBRANCH   1  16
BRANCH   7  22
ATOM     22  C   UNL     1       1.644   7.715  20.512  0.00  0.00    +0.000 C 
ATOM     23  O   UNL     1       2.385   7.930  19.555  0.00  0.00    +0.000 OA
ATOM     24  N   UNL     1       1.476   6.454  21.019  0.00  0.00    +0.000 N 
ATOM     25  H   UNL     1       0.834   6.287  21.792  0.00  0.00    +0.000 HD
BRANCH  24  26
ATOM     26  C   UNL     1       2.087   5.280  20.442  0.00  0.00    +0.000 C 
BRANCH  26  27
ATOM     27  C   UNL     1       2.598   5.494  19.011  0.00  0.00    +0.000 C 
ATOM     28  C   UNL     1       1.778   4.638  18.048  0.00  0.00    +0.000 C 
ATOM     29  C   UNL     1       2.618   3.379  17.921  0.00  0.00    +0.000 C 
ATOM     30  N   UNL     1       4.008   3.872  17.845  0.00  0.00    +0.000 NA
ATOM     31  C   UNL     1       4.044   5.003  18.800  0.00  0.00    +0.000 C 
BRANCH  30  32
ATOM     32  C   UNL     1       4.332   4.260  16.459  0.00  0.00    +0.000 C 
BRANCH  32  33
ATOM     33  C   UNL     1       5.610   5.108  16.267  0.00  0.00    +0.000 C 
ATOM     34  C   UNL     1       6.617   4.464  15.316  0.00  0.00    +0.000 C 
ATOM     35  C   UNL     1       5.214   6.494  15.746  0.00  0.00    +0.000 C 
ENDBRANCH  32  33
ENDBRANCH  30  32
ENDBRANCH  26  27
ENDBRANCH  24  26
ENDBRANCH   7  22
TORSDOF 8
ENDMDL
MODEL 2
REMARK VINA RESULT:      -8.0      3.434     10.093
REMARK  Name = 
REMARK  11 active torsions:
REMARK  status: ('A' for Active; 'I' for Inactive)
REMARK    1  A    between atoms: C_1  and  C_2
REMARK    2  A    between atoms: C_2  and  O_3
REMARK    3  A    between atoms: O_3  and  C_4
REMARK    4  A    between atoms: C_9  and  N_10
REMARK    5  A    between atoms: C_16  and  C_17
REMARK    6  A    between atoms: N_19  and  C_20
REMARK    7  A    between atoms: C_20  and  C_21
REMARK    8  A    between atoms: N_24  and  C_25
REMARK    9  A    between atoms: C_25  and  C_26
REMARK   10  A    between atoms: C_26  and  C_27
REMARK   11  A    between atoms: C_26  and  C_28
REMARK                            x       y       z     vdW  Elec       q    Type
REMARK                         _______ _______ _______ _____ _____    ______ ____
ROOT
ATOM      1  N   UNL     1       2.831   6.913  18.788  0.00  0.00    +0.000 N 
ATOM      2  C   UNL     1       3.082   7.876  17.737  0.00  0.00    +0.000 C 
ATOM      3  C   UNL     1       2.299   9.064  18.197  0.00  0.00    +0.000 A 
ATOM      4  C   UNL     1       2.257  10.319  17.609  0.00  0.00    +0.000 A 
ATOM      5  C   UNL     1       1.491  11.305  18.223  0.00  0.00    +0.000 A 
ATOM      6  C   UNL     1       0.773  11.019  19.398  0.00  0.00    +0.000 A 
ATOM      7  C   UNL     1       0.796   9.741  20.002  0.00  0.00    +0.000 A 
ATOM      8  C   UNL     1       1.586   8.780  19.376  0.00  0.00    +0.000 A 
ATOM      9  C   UNL     1       1.924   7.384  19.724  0.00  0.00    +0.000 C 
ATOM     10  O   UNL     1       1.500   6.769  20.682  0.00  0.00    +0.000 OA
ENDROOT
BRANCH   1  16
ATOM     11  C   UNL     1       6.812   4.329  16.618  0.00  0.00    +0.000 C 
ATOM     12  O   UNL     1       7.955   4.382  17.066  0.00  0.00    +0.000 OA
ATOM     13  N   UNL     1       5.728   4.969  17.198  0.00  0.00    +0.000 N 
ATOM     14  C   UNL     1       5.951   5.832  18.344  0.00  0.00    +0.000 C 
ATOM     15  C   UNL     1       4.905   5.611  19.431  0.00  0.00    +0.000 C 
ATOM     16  C   UNL     1       3.464   5.592  18.909  0.00  0.00    +0.000 C 
ATOM     17  C   UNL     1       3.321   4.732  17.644  0.00  0.00    +0.000 C 
ATOM     18  C   UNL     1       4.396   5.017  16.601  0.00  0.00    +0.000 C 
BRANCH  11  19
ATOM     19  O   UNL     1       6.480   3.622  15.506  0.00  0.00    +0.000 OA
BRANCH  19  21
ATOM     20  C   UNL     1       5.921   3.658  13.133  0.00  0.00    +0.000 C 
ATOM     21  C   UNL     1       6.758   4.258  14.248  0.00  0.00    +0.000 C 
ENDBRANCH  19  21
ENDBRANCH  11  19
ENDBRANCH   1  16
BRANCH   7  22
ATOM     22  C   UNL     1      -0.024   9.594  21.247  0.00  0.00    +0.000 C 
ATOM     23  O   UNL     1      -0.506   8.497  21.523  0.00  0.00    +0.000 OA
ATOM     24  N   UNL     1      -0.221  10.685  22.051  0.00  0.00    +0.000 N 
ATOM     25  H   UNL     1       0.158  11.595  21.794  0.00  0.00    +0.000 HD
BRANCH  24  26
ATOM     26  C   UNL     1      -1.053  10.660  23.232  0.00  0.00    +0.000 C 
BRANCH  26  27
ATOM     27  C   UNL     1      -1.644  12.028  23.597  0.00  0.00    +0.000 C 
ATOM     28  C   UNL     1      -3.137  12.035  23.278  0.00  0.00    +0.000 C 
ATOM     29  C   UNL     1      -3.178  12.641  21.886  0.00  0.00    +0.000 C 
ATOM     30  N   UNL     1      -2.186  13.732  21.931  0.00  0.00    +0.000 NA
ATOM     31  C   UNL     1      -1.079  13.182  22.748  0.00  0.00    +0.000 C 
BRANCH  30  32
ATOM     32  C   UNL     1      -2.795  14.948  22.505  0.00  0.00    +0.000 C 
BRANCH  32  33
ATOM     33  C   UNL     1      -2.273  16.297  21.963  0.00  0.00    +0.000 C 
ATOM     34  C   UNL     1      -1.102  16.852  22.771  0.00  0.00    +0.000 C 
ATOM     35  C   UNL     1      -1.857  16.118  20.498  0.00  0.00    +0.000 C 
ENDBRANCH  32  33
ENDBRANCH  30  32
ENDBRANCH  26  27
ENDBRANCH  24  26
ENDBRANCH   7  22
TORSDOF 8
ENDMDL
MODEL 3
REMARK VINA RESULT:      -8.0      3.738      5.227
REMARK  Name = 
REMARK  11 active torsions:
REMARK  status: ('A' for Active; 'I' for Inactive)
REMARK    1  A    between atoms: C_1  and  C_2
REMARK    2  A    between atoms: C_2  and  O_3
REMARK    3  A    between atoms: O_3  and  C_4
REMARK    4  A    between atoms: C_9  and  N_10
REMARK    5  A    between atoms: C_16  and  C_17
REMARK    6  A    between atoms: N_19  and  C_20
REMARK    7  A    between atoms: C_20  and  C_21
REMARK    8  A    between atoms: N_24  and  C_25
REMARK    9  A    between atoms: C_25  and  C_26
REMARK   10  A    between atoms: C_26  and  C_27
REMARK   11  A    between atoms: C_26  and  C_28
REMARK                            x       y       z     vdW  Elec       q    Type
REMARK                         _______ _______ _______ _____ _____    ______ ____
ROOT
ATOM      1  N   UNL     1      -1.435  12.285  21.379  0.00  0.00    +0.000 N 
ATOM      2  C   UNL     1      -2.627  12.362  20.561  0.00  0.00    +0.000 C 
ATOM      3  C   UNL     1      -2.229  11.593  19.342  0.00  0.00    +0.000 A 
ATOM      4  C   UNL     1      -3.030  11.268  18.258  0.00  0.00    +0.000 A 
ATOM      5  C   UNL     1      -2.472  10.504  17.237  0.00  0.00    +0.000 A 
ATOM      6  C   UNL     1      -1.129  10.094  17.308  0.00  0.00    +0.000 A 
ATOM      7  C   UNL     1      -0.297  10.428  18.401  0.00  0.00    +0.000 A 
ATOM      8  C   UNL     1      -0.887  11.177  19.415  0.00  0.00    +0.000 A 
ATOM      9  C   UNL     1      -0.390  11.654  20.723  0.00  0.00    +0.000 C 
ATOM     10  O   UNL     1       0.733  11.493  21.157  0.00  0.00    +0.000 OA
ENDROOT
BRANCH   1  16
ATOM     11  C   UNL     1      -3.349  16.178  24.280  0.00  0.00    +0.000 C 
ATOM     12  O   UNL     1      -4.390  16.069  24.925  0.00  0.00    +0.000 OA
ATOM     13  N   UNL     1      -2.795  15.149  23.536  0.00  0.00    +0.000 N 
ATOM     14  C   UNL     1      -3.517  13.894  23.422  0.00  0.00    +0.000 C 
ATOM     15  C   UNL     1      -2.594  12.692  23.593  0.00  0.00    +0.000 C 
ATOM     16  C   UNL     1      -1.310  12.775  22.759  0.00  0.00    +0.000 C 
ATOM     17  C   UNL     1      -0.649  14.158  22.856  0.00  0.00    +0.000 C 
ATOM     18  C   UNL     1      -1.632  15.306  22.666  0.00  0.00    +0.000 C 
BRANCH  11  19
ATOM     19  O   UNL     1      -2.617  17.321  24.236  0.00  0.00    +0.000 OA
BRANCH  19  21
ATOM     20  C   UNL     1      -1.130  17.107  26.156  0.00  0.00    +0.000 C 
ATOM     21  C   UNL     1      -2.256  17.888  25.505  0.00  0.00    +0.000 C 
ENDBRANCH  19  21
ENDBRANCH  11  19
ENDBRANCH   1  16
BRANCH   7  22
ATOM     22  C   UNL     1       1.110   9.919  18.327  0.00  0.00    +0.000 C 
ATOM     23  O   UNL     1       2.039  10.725  18.289  0.00  0.00    +0.000 OA
ATOM     24  N   UNL     1       1.334   8.569  18.302  0.00  0.00    +0.000 N 
ATOM     25  H   UNL     1       0.554   7.914  18.303  0.00  0.00    +0.000 HD
BRANCH  24  26
ATOM     26  C   UNL     1       2.647   7.985  18.161  0.00  0.00    +0.000 C 
BRANCH  26  27
ATOM     27  C   UNL     1       2.782   6.607  18.823  0.00  0.00    +0.000 C 
ATOM     28  C   UNL     1       4.222   6.117  18.681  0.00  0.00    +0.000 C 
ATOM     29  C   UNL     1       4.160   5.260  17.429  0.00  0.00    +0.000 C 
ATOM     30  N   UNL     1       2.887   4.523  17.551  0.00  0.00    +0.000 NA
ATOM     31  C   UNL     1       1.949   5.513  18.130  0.00  0.00    +0.000 C 
BRANCH  30  32
ATOM     32  C   UNL     1       3.074   3.325  18.394  0.00  0.00    +0.000 C 
BRANCH  32  33
ATOM     33  C   UNL     1       2.036   3.111  19.519  0.00  0.00    +0.000 C 
ATOM     34  C   UNL     1       1.022   2.016  19.195  0.00  0.00    +0.000 C 
ATOM     35  C   UNL     1       2.774   2.771  20.819  0.00  0.00    +0.000 C 
ENDBRANCH  32  33
ENDBRANCH  30  32
ENDBRANCH  26  27
ENDBRANCH  24  26
ENDBRANCH   7  22
TORSDOF 8
ENDMDL
MODEL 4
REMARK VINA RESULT:      -8.0      3.440     10.318
REMARK  Name = 
REMARK  11 active torsions:
REMARK  status: ('A' for Active; 'I' for Inactive)
REMARK    1  A    between atoms: C_1  and  C_2
REMARK    2  A    between atoms: C_2  and  O_3
REMARK    3  A    between atoms: O_3  and  C_4
REMARK    4  A    between atoms: C_9  and  N_10
REMARK    5  A    between atoms: C_16  and  C_17
REMARK    6  A    between atoms: N_19  and  C_20
REMARK    7  A    between atoms: C_20  and  C_21
REMARK    8  A    between atoms: N_24  and  C_25
REMARK    9  A    between atoms: C_25  and  C_26
REMARK   10  A    between atoms: C_26  and  C_27
REMARK   11  A    between atoms: C_26  and  C_28
REMARK                            x       y       z     vdW  Elec       q    Type
REMARK                         _______ _______ _______ _____ _____    ______ ____
ROOT
ATOM      1  N   UNL     1       2.183   7.356  19.016  0.00  0.00    +0.000 N 
ATOM      2  C   UNL     1       2.430   8.247  17.901  0.00  0.00    +0.000 C 
ATOM      3  C   UNL     1       1.951   9.561  18.429  0.00  0.00    +0.000 A 
ATOM      4  C   UNL     1       2.038  10.796  17.805  0.00  0.00    +0.000 A 
ATOM      5  C   UNL     1       1.564  11.911  18.491  0.00  0.00    +0.000 A 
ATOM      6  C   UNL     1       1.002  11.772  19.772  0.00  0.00    +0.000 A 
ATOM      7  C   UNL     1       0.895  10.518  20.416  0.00  0.00    +0.000 A 
ATOM      8  C   UNL     1       1.394   9.424  19.714  0.00  0.00    +0.000 A 
ATOM      9  C   UNL     1       1.532   7.993  20.060  0.00  0.00    +0.000 C 
ATOM     10  O   UNL     1       1.163   7.475  21.095  0.00  0.00    +0.000 OA
ENDROOT
BRANCH   1  16
ATOM     11  C   UNL     1       6.185   4.395  17.450  0.00  0.00    +0.000 C 
ATOM     12  O   UNL     1       7.182   4.214  18.146  0.00  0.00    +0.000 OA
ATOM     13  N   UNL     1       5.090   5.140  17.857  0.00  0.00    +0.000 N 
ATOM     14  C   UNL     1       5.143   5.832  19.133  0.00  0.00    +0.000 C 
ATOM     15  C   UNL     1       3.845   5.673  19.917  0.00  0.00    +0.000 C 
ATOM     16  C   UNL     1       2.584   5.944  19.089  0.00  0.00    +0.000 C 
ATOM     17  C   UNL     1       2.637   5.255  17.717  0.00  0.00    +0.000 C 
ATOM     18  C   UNL     1       3.960   5.467  16.991  0.00  0.00    +0.000 C 
BRANCH  11  19
ATOM     19  O   UNL     1       6.040   3.872  16.205  0.00  0.00    +0.000 OA
BRANCH  19  21
ATOM     20  C   UNL     1       6.370   4.051  13.796  0.00  0.00    +0.000 C 
ATOM     21  C   UNL     1       6.854   4.457  15.176  0.00  0.00    +0.000 C 
ENDBRANCH  19  21
ENDBRANCH  11  19
ENDBRANCH   1  16
BRANCH   7  22
ATOM     22  C   UNL     1       0.269  10.535  21.776  0.00  0.00    +0.000 C 
ATOM     23  O   UNL     1       0.858  10.000  22.714  0.00  0.00    +0.000 OA
ATOM     24  N   UNL     1      -0.946  11.143  21.947  0.00  0.00    +0.000 N 
ATOM     25  H   UNL     1      -1.436  11.554  21.154  0.00  0.00    +0.000 HD
BRANCH  24  26
ATOM     26  C   UNL     1      -1.660  11.149  23.202  0.00  0.00    +0.000 C 
BRANCH  26  27
ATOM     27  C   UNL     1      -2.207  12.529  23.592  0.00  0.00    +0.000 C 
ATOM     28  C   UNL     1      -3.708  12.423  23.851  0.00  0.00    +0.000 C 
ATOM     29  C   UNL     1      -4.306  12.813  22.511  0.00  0.00    +0.000 C 
ATOM     30  N   UNL     1      -3.474  13.943  22.052  0.00  0.00    +0.000 NA
ATOM     31  C   UNL     1      -2.100  13.569  22.461  0.00  0.00    +0.000 C 
BRANCH  30  32
ATOM     32  C   UNL     1      -3.948  15.201  22.660  0.00  0.00    +0.000 C 
BRANCH  32  33
ATOM     33  C   UNL     1      -2.897  16.021  23.443  0.00  0.00    +0.000 C 
ATOM     34  C   UNL     1      -2.605  17.379  22.806  0.00  0.00    +0.000 C 
ATOM     35  C   UNL     1      -3.389  16.216  24.882  0.00  0.00    +0.000 C 
ENDBRANCH  32  33
ENDBRANCH  30  32
ENDBRANCH  26  27
ENDBRANCH  24  26
ENDBRANCH   7  22
TORSDOF 8
ENDMDL
MODEL 5
REMARK VINA RESULT:      -7.9      2.540      9.297
REMARK  Name = 
REMARK  11 active torsions:
REMARK  status: ('A' for Active; 'I' for Inactive)
REMARK    1  A    between atoms: C_1  and  C_2
REMARK    2  A    between atoms: C_2  and  O_3
REMARK    3  A    between atoms: O_3  and  C_4
REMARK    4  A    between atoms: C_9  and  N_10
REMARK    5  A    between atoms: C_16  and  C_17
REMARK    6  A    between atoms: N_19  and  C_20
REMARK    7  A    between atoms: C_20  and  C_21
REMARK    8  A    between atoms: N_24  and  C_25
REMARK    9  A    between atoms: C_25  and  C_26
REMARK   10  A    between atoms: C_26  and  C_27
REMARK   11  A    between atoms: C_26  and  C_28
REMARK                            x       y       z     vdW  Elec       q    Type
REMARK                         _______ _______ _______ _____ _____    ______ ____
ROOT
ATOM      1  N   UNL     1       1.778   7.872  19.275  0.00  0.00    +0.000 N 
ATOM      2  C   UNL     1       1.461   7.581  20.658  0.00  0.00    +0.000 C 
ATOM      3  C   UNL     1       0.874   8.872  21.131  0.00  0.00    +0.000 A 
ATOM      4  C   UNL     1       0.309   9.131  22.370  0.00  0.00    +0.000 A 
ATOM      5  C   UNL     1      -0.221  10.398  22.596  0.00  0.00    +0.000 A 
ATOM      6  C   UNL     1      -0.164  11.382  21.594  0.00  0.00    +0.000 A 
ATOM      7  C   UNL     1       0.420  11.137  20.330  0.00  0.00    +0.000 A 
ATOM      8  C   UNL     1       0.925   9.855  20.126  0.00  0.00    +0.000 A 
ATOM      9  C   UNL     1       1.533   9.196  18.950  0.00  0.00    +0.000 C 
ATOM     10  O   UNL     1       1.750   9.721  17.877  0.00  0.00    +0.000 OA
ENDROOT
BRANCH   1  16
ATOM     11  C   UNL     1       5.440   4.164  19.009  0.00  0.00    +0.000 C 
ATOM     12  O   UNL     1       5.222   2.997  19.327  0.00  0.00    +0.000 OA
ATOM     13  N   UNL     1       4.477   5.159  19.028  0.00  0.00    +0.000 N 
ATOM     14  C   UNL     1       3.155   4.850  19.541  0.00  0.00    +0.000 C 
ATOM     15  C   UNL     1       2.055   5.432  18.660  0.00  0.00    +0.000 C 
ATOM     16  C   UNL     1       2.273   6.902  18.288  0.00  0.00    +0.000 C 
ATOM     17  C   UNL     1       3.717   7.175  17.841  0.00  0.00    +0.000 C 
ATOM     18  C   UNL     1       4.758   6.570  18.775  0.00  0.00    +0.000 C 
BRANCH  11  19
ATOM     19  O   UNL     1       6.654   4.605  18.586  0.00  0.00    +0.000 OA
BRANCH  19  21
ATOM     20  C   UNL     1       7.165   5.655  16.446  0.00  0.00    +0.000 C 
ATOM     21  C   UNL     1       6.970   4.357  17.207  0.00  0.00    +0.000 C 
ENDBRANCH  19  21
ENDBRANCH  11  19
ENDBRANCH   1  16
BRANCH   7  22
ATOM     22  C   UNL     1       0.406  12.288  19.371  0.00  0.00    +0.000 C 
ATOM     23  O   UNL     1      -0.467  12.338  18.507  0.00  0.00    +0.000 OA
ATOM     24  N   UNL     1       1.367  13.258  19.476  0.00  0.00    +0.000 N 
ATOM     25  H   UNL     1       2.103  13.186  20.177  0.00  0.00    +0.000 HD
BRANCH  24  26
ATOM     26  C   UNL     1       1.479  14.365  18.556  0.00  0.00    +0.000 C 
BRANCH  26  27
ATOM     27  C   UNL     1       2.488  15.433  18.999  0.00  0.00    +0.000 C 
ATOM     28  C   UNL     1       3.270  15.925  17.783  0.00  0.00    +0.000 C 
ATOM     29  C   UNL     1       4.515  15.056  17.814  0.00  0.00    +0.000 C 
ATOM     30  N   UNL     1       4.879  14.986  19.243  0.00  0.00    +0.000 NA
ATOM     31  C   UNL     1       3.577  14.889  19.943  0.00  0.00    +0.000 C 
BRANCH  30  32
ATOM     32  C   UNL     1       5.666  16.175  19.625  0.00  0.00    +0.000 C 
BRANCH  32  33
ATOM     33  C   UNL     1       6.941  15.913  20.458  0.00  0.00    +0.000 C 
ATOM     34  C   UNL     1       6.658  15.769  21.952  0.00  0.00    +0.000 C 
ATOM     35  C   UNL     1       7.627  14.646  19.933  0.00  0.00    +0.000 C 
ENDBRANCH  32  33
ENDBRANCH  30  32
ENDBRANCH  26  27
ENDBRANCH  24  26
ENDBRANCH   7  22
TORSDOF 8
ENDMDL
MODEL 6
REMARK VINA RESULT:      -7.9      4.149     10.295
REMARK  Name = 
REMARK  11 active torsions:
REMARK  status: ('A' for Active; 'I' for Inactive)
REMARK    1  A    between atoms: C_1  and  C_2
REMARK    2  A    between atoms: C_2  and  O_3
REMARK    3  A    between atoms: O_3  and  C_4
REMARK    4  A    between atoms: C_9  and  N_10
REMARK    5  A    between atoms: C_16  and  C_17
REMARK    6  A    between atoms: N_19  and  C_20
REMARK    7  A    between atoms: C_20  and  C_21
REMARK    8  A    between atoms: N_24  and  C_25
REMARK    9  A    between atoms: C_25  and  C_26
REMARK   10  A    between atoms: C_26  and  C_27
REMARK   11  A    between atoms: C_26  and  C_28
REMARK                            x       y       z     vdW  Elec       q    Type
REMARK                         _______ _______ _______ _____ _____    ______ ____
ROOT
ATOM      1  N   UNL     1      -0.302  10.141  18.726  0.00  0.00    +0.000 N 
ATOM      2  C   UNL     1      -0.758   9.632  17.450  0.00  0.00    +0.000 C 
ATOM      3  C   UNL     1      -2.112  10.254  17.321  0.00  0.00    +0.000 A 
ATOM      4  C   UNL     1      -2.968  10.180  16.234  0.00  0.00    +0.000 A 
ATOM      5  C   UNL     1      -4.175  10.870  16.303  0.00  0.00    +0.000 A 
ATOM      6  C   UNL     1      -4.510  11.605  17.454  0.00  0.00    +0.000 A 
ATOM      7  C   UNL     1      -3.652  11.680  18.575  0.00  0.00    +0.000 A 
ATOM      8  C   UNL     1      -2.444  10.995  18.470  0.00  0.00    +0.000 A 
ATOM      9  C   UNL     1      -1.276  10.888  19.370  0.00  0.00    +0.000 C 
ATOM     10  O   UNL     1      -1.178  11.393  20.470  0.00  0.00    +0.000 OA
ENDROOT
BRANCH   1  16
ATOM     11  C   UNL     1       3.106   6.231  19.306  0.00  0.00    +0.000 C 
ATOM     12  O   UNL     1       3.957   5.968  18.459  0.00  0.00    +0.000 OA
ATOM     13  N   UNL     1       2.217   7.289  19.199  0.00  0.00    +0.000 N 
ATOM     14  C   UNL     1       2.211   8.084  17.984  0.00  0.00    +0.000 C 
ATOM     15  C   UNL     1       2.126   9.576  18.283  0.00  0.00    +0.000 C 
ATOM     16  C   UNL     1       1.037   9.942  19.298  0.00  0.00    +0.000 C 
ATOM     17  C   UNL     1       1.045   9.005  20.515  0.00  0.00    +0.000 C 
ATOM     18  C   UNL     1       1.122   7.531  20.135  0.00  0.00    +0.000 C 
BRANCH  11  19
ATOM     19  O   UNL     1       2.951   5.520  20.452  0.00  0.00    +0.000 OA
BRANCH  19  21
ATOM     20  C   UNL     1       1.154   3.872  20.427  0.00  0.00    +0.000 C 
ATOM     21  C   UNL     1       2.644   4.125  20.293  0.00  0.00    +0.000 C 
ENDBRANCH  19  21
ENDBRANCH  11  19
ENDBRANCH   1  16
BRANCH   7  22
ATOM     22  C   UNL     1      -4.153  12.500  19.724  0.00  0.00    +0.000 C 
ATOM     23  O   UNL     1      -5.157  12.132  20.331  0.00  0.00    +0.000 OA
ATOM     24  N   UNL     1      -3.483  13.642  20.074  0.00  0.00    +0.000 N 
ATOM     25  H   UNL     1      -2.671  13.951  19.542  0.00  0.00    +0.000 HD
BRANCH  24  26
ATOM     26  C   UNL     1      -3.929  14.533  21.119  0.00  0.00    +0.000 C 
BRANCH  26  27
ATOM     27  C   UNL     1      -2.851  14.839  22.168  0.00  0.00    +0.000 C 
ATOM     28  C   UNL     1      -2.505  13.560  22.926  0.00  0.00    +0.000 C 
ATOM     29  C   UNL     1      -3.402  13.645  24.149  0.00  0.00    +0.000 C 
ATOM     30  N   UNL     1      -3.339  15.063  24.553  0.00  0.00    +0.000 NA
ATOM     31  C   UNL     1      -3.329  15.804  23.270  0.00  0.00    +0.000 C 
BRANCH  30  32
ATOM     32  C   UNL     1      -2.141  15.302  25.381  0.00  0.00    +0.000 C 
BRANCH  32  33
ATOM     33  C   UNL     1      -1.413  16.647  25.159  0.00  0.00    +0.000 C 
ATOM     34  C   UNL     1      -1.166  17.413  26.458  0.00  0.00    +0.000 C 
ATOM     35  C   UNL     1      -0.080  16.381  24.451  0.00  0.00    +0.000 C 
ENDBRANCH  32  33
ENDBRANCH  30  32
ENDBRANCH  26  27
ENDBRANCH  24  26
ENDBRANCH   7  22
TORSDOF 8
ENDMDL
MODEL 7
REMARK VINA RESULT:      -7.9      3.838      5.800
REMARK  Name = 
REMARK  11 active torsions:
REMARK  status: ('A' for Active; 'I' for Inactive)
REMARK    1  A    between atoms: C_1  and  C_2
REMARK    2  A    between atoms: C_2  and  O_3
REMARK    3  A    between atoms: O_3  and  C_4
REMARK    4  A    between atoms: C_9  and  N_10
REMARK    5  A    between atoms: C_16  and  C_17
REMARK    6  A    between atoms: N_19  and  C_20
REMARK    7  A    between atoms: C_20  and  C_21
REMARK    8  A    between atoms: N_24  and  C_25
REMARK    9  A    between atoms: C_25  and  C_26
REMARK   10  A    between atoms: C_26  and  C_27
REMARK   11  A    between atoms: C_26  and  C_28
REMARK                            x       y       z     vdW  Elec       q    Type
REMARK                         _______ _______ _______ _____ _____    ______ ____
ROOT
ATOM      1  N   UNL     1       1.800   7.876  19.721  0.00  0.00    +0.000 N 
ATOM      2  C   UNL     1       0.894   6.965  20.388  0.00  0.00    +0.000 C 
ATOM      3  C   UNL     1       1.651   5.676  20.353  0.00  0.00    +0.000 A 
ATOM      4  C   UNL     1       1.287   4.474  20.939  0.00  0.00    +0.000 A 
ATOM      5  C   UNL     1       2.160   3.396  20.820  0.00  0.00    +0.000 A 
ATOM      6  C   UNL     1       3.365   3.532  20.108  0.00  0.00    +0.000 A 
ATOM      7  C   UNL     1       3.744   4.748  19.494  0.00  0.00    +0.000 A 
ATOM      8  C   UNL     1       2.860   5.813  19.646  0.00  0.00    +0.000 A 
ATOM      9  C   UNL     1       2.923   7.230  19.228  0.00  0.00    +0.000 C 
ATOM     10  O   UNL     1       3.820   7.742  18.590  0.00  0.00    +0.000 OA
ENDROOT
BRANCH   1  16
ATOM     11  C   UNL     1      -2.036  11.157  18.396  0.00  0.00    +0.000 C 
ATOM     12  O   UNL     1      -2.822  11.618  19.220  0.00  0.00    +0.000 OA
ATOM     13  N   UNL     1      -0.982  10.319  18.724  0.00  0.00    +0.000 N 
ATOM     14  C   UNL     1      -0.840   9.872  20.099  0.00  0.00    +0.000 C 
ATOM     15  C   UNL     1       0.609   9.942  20.569  0.00  0.00    +0.000 C 
ATOM     16  C   UNL     1       1.610   9.327  19.585  0.00  0.00    +0.000 C 
ATOM     17  C   UNL     1       1.343   9.772  18.139  0.00  0.00    +0.000 C 
ATOM     18  C   UNL     1      -0.124   9.664  17.740  0.00  0.00    +0.000 C 
BRANCH  11  19
ATOM     19  O   UNL     1      -2.104  11.429  17.067  0.00  0.00    +0.000 OA
BRANCH  19  21
ATOM     20  C   UNL     1      -2.937  10.273  15.089  0.00  0.00    +0.000 C 
ATOM     21  C   UNL     1      -3.286  10.973  16.389  0.00  0.00    +0.000 C 
ENDBRANCH  19  21
ENDBRANCH  11  19
ENDBRANCH   1  16
BRANCH   7  22
ATOM     22  C   UNL     1       5.055   4.731  18.771  0.00  0.00    +0.000 C 
ATOM     23  O   UNL     1       5.954   3.994  19.173  0.00  0.00    +0.000 OA
ATOM     24  N   UNL     1       5.227   5.538  17.678  0.00  0.00    +0.000 N 
ATOM     25  H   UNL     1       4.485   6.166  17.375  0.00  0.00    +0.000 HD
BRANCH  24  26
ATOM     26  C   UNL     1       6.476   5.644  16.959  0.00  0.00    +0.000 C 
BRANCH  26  27
ATOM     27  C   UNL     1       6.765   4.444  16.048  0.00  0.00    +0.000 C 
ATOM     28  C   UNL     1       7.628   4.897  14.873  0.00  0.00    +0.000 C 
ATOM     29  C   UNL     1       6.598   5.182  13.794  0.00  0.00    +0.000 C 
ATOM     30  N   UNL     1       5.621   4.083  13.918  0.00  0.00    +0.000 NA
ATOM     31  C   UNL     1       5.502   3.868  15.379  0.00  0.00    +0.000 C 
BRANCH  30  32
ATOM     32  C   UNL     1       6.099   2.895  13.185  0.00  0.00    +0.000 C 
BRANCH  32  33
ATOM     33  C   UNL     1       5.746   2.830  11.682  0.00  0.00    +0.000 C 
ATOM     34  C   UNL     1       6.025   1.462  11.061  0.00  0.00    +0.000 C 
ATOM     35  C   UNL     1       4.267   3.192  11.502  0.00  0.00    +0.000 C 
ENDBRANCH  32  33
ENDBRANCH  30  32
ENDBRANCH  26  27
ENDBRANCH  24  26
ENDBRANCH   7  22
TORSDOF 8
ENDMDL
MODEL 8
REMARK VINA RESULT:      -7.8      2.650      8.841
REMARK  Name = 
REMARK  11 active torsions:
REMARK  status: ('A' for Active; 'I' for Inactive)
REMARK    1  A    between atoms: C_1  and  C_2
REMARK    2  A    between atoms: C_2  and  O_3
REMARK    3  A    between atoms: O_3  and  C_4
REMARK    4  A    between atoms: C_9  and  N_10
REMARK    5  A    between atoms: C_16  and  C_17
REMARK    6  A    between atoms: N_19  and  C_20
REMARK    7  A    between atoms: C_20  and  C_21
REMARK    8  A    between atoms: N_24  and  C_25
REMARK    9  A    between atoms: C_25  and  C_26
REMARK   10  A    between atoms: C_26  and  C_27
REMARK   11  A    between atoms: C_26  and  C_28
REMARK                            x       y       z     vdW  Elec       q    Type
REMARK                         _______ _______ _______ _____ _____    ______ ____
ROOT
ATOM      1  N   UNL     1       1.667   7.932  19.299  0.00  0.00    +0.000 N 
ATOM      2  C   UNL     1       1.401   7.553  20.671  0.00  0.00    +0.000 C 
ATOM      3  C   UNL     1       0.792   8.796  21.235  0.00  0.00    +0.000 A 
ATOM      4  C   UNL     1       0.259   8.966  22.503  0.00  0.00    +0.000 A 
ATOM      5  C   UNL     1      -0.300  10.202  22.818  0.00  0.00    +0.000 A 
ATOM      6  C   UNL     1      -0.302  11.243  21.874  0.00  0.00    +0.000 A 
ATOM      7  C   UNL     1       0.250  11.088  20.581  0.00  0.00    +0.000 A 
ATOM      8  C   UNL     1       0.784   9.837  20.288  0.00  0.00    +0.000 A 
ATOM      9  C   UNL     1       1.374   9.265  19.058  0.00  0.00    +0.000 C 
ATOM     10  O   UNL     1       1.543   9.857  18.012  0.00  0.00    +0.000 OA
ENDROOT
BRANCH   1  16
ATOM     11  C   UNL     1       6.016   5.256  18.224  0.00  0.00    +0.000 C 
ATOM     12  O   UNL     1       6.195   4.104  18.613  0.00  0.00    +0.000 OA
ATOM     13  N   UNL     1       4.855   5.975  18.457  0.00  0.00    +0.000 N 
ATOM     14  C   UNL     1       3.818   5.389  19.287  0.00  0.00    +0.000 C 
ATOM     15  C   UNL     1       2.431   5.596  18.690  0.00  0.00    +0.000 C 
ATOM     16  C   UNL     1       2.159   7.037  18.242  0.00  0.00    +0.000 C 
ATOM     17  C   UNL     1       3.335   7.624  17.447  0.00  0.00    +0.000 C 
ATOM     18  C   UNL     1       4.685   7.384  18.110  0.00  0.00    +0.000 C 
BRANCH  11  19
ATOM     19  O   UNL     1       6.937   5.950  17.505  0.00  0.00    +0.000 OA
BRANCH  19  21
ATOM     20  C   UNL     1       7.970   8.145  17.753  0.00  0.00    +0.000 C 
ATOM     21  C   UNL     1       7.881   6.720  18.267  0.00  0.00    +0.000 C 
ENDBRANCH  19  21
ENDBRANCH  11  19
ENDBRANCH   1  16
BRANCH   7  22
ATOM     22  C   UNL     1       0.174  12.292  19.692  0.00  0.00    +0.000 C 
ATOM     23  O   UNL     1      -0.720  12.360  18.850  0.00  0.00    +0.000 OA
ATOM     24  N   UNL     1       1.101  13.289  19.835  0.00  0.00    +0.000 N 
ATOM     25  H   UNL     1       1.854  13.204  20.516  0.00  0.00    +0.000 HD
BRANCH  24  26
ATOM     26  C   UNL     1       1.152  14.452  18.980  0.00  0.00    +0.000 C 
BRANCH  26  27
ATOM     27  C   UNL     1       2.345  15.374  19.266  0.00  0.00    +0.000 C 
ATOM     28  C   UNL     1       2.601  16.262  18.051  0.00  0.00    +0.000 C 
ATOM     29  C   UNL     1       3.668  15.490  17.293  0.00  0.00    +0.000 C 
ATOM     30  N   UNL     1       4.576  14.991  18.344  0.00  0.00    +0.000 NA
ATOM     31  C   UNL     1       3.672  14.614  19.455  0.00  0.00    +0.000 C 
BRANCH  30  32
ATOM     32  C   UNL     1       5.553  16.035  18.708  0.00  0.00    +0.000 C 
BRANCH  32  33
ATOM     33  C   UNL     1       7.015  15.787  18.272  0.00  0.00    +0.000 C 
ATOM     34  C   UNL     1       8.024  16.055  19.387  0.00  0.00    +0.000 C 
ATOM     35  C   UNL     1       7.150  14.341  17.783  0.00  0.00    +0.000 C 
ENDBRANCH  32  33
ENDBRANCH  30  32
ENDBRANCH  26  27
ENDBRANCH  24  26
ENDBRANCH   7  22
TORSDOF 8
ENDMDL
MODEL 9
REMARK VINA RESULT:      -7.8      3.624      5.453
REMARK  Name = 
REMARK  11 active torsions:
REMARK  status: ('A' for Active; 'I' for Inactive)
REMARK    1  A    between atoms: C_1  and  C_2
REMARK    2  A    between atoms: C_2  and  O_3
REMARK    3  A    between atoms: O_3  and  C_4
REMARK    4  A    between atoms: C_9  and  N_10
REMARK    5  A    between atoms: C_16  and  C_17
REMARK    6  A    between atoms: N_19  and  C_20
REMARK    7  A    between atoms: C_20  and  C_21
REMARK    8  A    between atoms: N_24  and  C_25
REMARK    9  A    between atoms: C_25  and  C_26
REMARK   10  A    between atoms: C_26  and  C_27
REMARK   11  A    between atoms: C_26  and  C_28
REMARK                            x       y       z     vdW  Elec       q    Type
REMARK                         _______ _______ _______ _____ _____    ______ ____
ROOT
ATOM      1  N   UNL     1      -0.032  12.975  21.756  0.00  0.00    +0.000 N 
ATOM      2  C   UNL     1       0.838  14.082  21.418  0.00  0.00    +0.000 C 
ATOM      3  C   UNL     1       1.535  13.581  20.194  0.00  0.00    +0.000 A 
ATOM      4  C   UNL     1       2.423  14.279  19.390  0.00  0.00    +0.000 A 
ATOM      5  C   UNL     1       2.931  13.637  18.265  0.00  0.00    +0.000 A 
ATOM      6  C   UNL     1       2.560  12.313  17.973  0.00  0.00    +0.000 A 
ATOM      7  C   UNL     1       1.666  11.584  18.790  0.00  0.00    +0.000 A 
ATOM      8  C   UNL     1       1.158  12.258  19.897  0.00  0.00    +0.000 A 
ATOM      9  C   UNL     1       0.169  11.881  20.929  0.00  0.00    +0.000 C 
ATOM     10  O   UNL     1      -0.391  10.807  21.016  0.00  0.00    +0.000 OA
ENDROOT
BRANCH   1  16
ATOM     11  C   UNL     1      -4.953  14.591  22.396  0.00  0.00    +0.000 C 
ATOM     12  O   UNL     1      -5.919  13.877  22.140  0.00  0.00    +0.000 OA
ATOM     13  N   UNL     1      -3.637  14.175  22.277  0.00  0.00    +0.000 N 
ATOM     14  C   UNL     1      -3.361  12.858  21.731  0.00  0.00    +0.000 C 
ATOM     15  C   UNL     1      -2.288  12.127  22.529  0.00  0.00    +0.000 C 
ATOM     16  C   UNL     1      -1.046  12.976  22.820  0.00  0.00    +0.000 C 
ATOM     17  C   UNL     1      -1.413  14.385  23.308  0.00  0.00    +0.000 C 
ATOM     18  C   UNL     1      -2.484  15.054  22.454  0.00  0.00    +0.000 C 
BRANCH  11  19
ATOM     19  O   UNL     1      -5.068  15.870  22.839  0.00  0.00    +0.000 OA
BRANCH  19  21
ATOM     20  C   UNL     1      -4.513  16.835  25.009  0.00  0.00    +0.000 C 
ATOM     21  C   UNL     1      -5.510  16.029  24.197  0.00  0.00    +0.000 C 
ENDBRANCH  19  21
ENDBRANCH  11  19
ENDBRANCH   1  16
BRANCH   7  22
ATOM     22  C   UNL     1       1.372  10.184  18.346  0.00  0.00    +0.000 C 
ATOM     23  O   UNL     1       0.204   9.840  18.177  0.00  0.00    +0.000 OA
ATOM     24  N   UNL     1       2.411   9.315  18.141  0.00  0.00    +0.000 N 
ATOM     25  H   UNL     1       3.371   9.604  18.315  0.00  0.00    +0.000 HD
BRANCH  24  26
ATOM     26  C   UNL     1       2.225   7.928  17.782  0.00  0.00    +0.000 C 
BRANCH  26  27
ATOM     27  C   UNL     1       2.924   6.948  18.734  0.00  0.00    +0.000 C 
ATOM     28  C   UNL     1       4.105   6.301  18.014  0.00  0.00    +0.000 C 
ATOM     29  C   UNL     1       3.506   5.010  17.485  0.00  0.00    +0.000 C 
ATOM     30  N   UNL     1       2.650   4.524  18.585  0.00  0.00    +0.000 NA
ATOM     31  C   UNL     1       2.039   5.754  19.138  0.00  0.00    +0.000 C 
BRANCH  30  32
ATOM     32  C   UNL     1       3.461   3.776  19.566  0.00  0.00    +0.000 C 
BRANCH  32  33
ATOM     33  C   UNL     1       2.779   2.561  20.234  0.00  0.00    +0.000 C 
ATOM     34  C   UNL     1       2.176   2.890  21.598  0.00  0.00    +0.000 C 
ATOM     35  C   UNL     1       1.690   2.025  19.298  0.00  0.00    +0.000 C 
ENDBRANCH  32  33
ENDBRANCH  30  32
ENDBRANCH  26  27
ENDBRANCH  24  26
ENDBRANCH   7  22
TORSDOF 8
ENDMDL
