MODEL 1
REMARK VINA RESULT:      -9.5      0.000      0.000
REMARK  Name = 
REMARK  10 active torsions:
REMARK  status: ('A' for Active; 'I' for Inactive)
REMARK    1  A    between atoms: C_1  and  C_2
REMARK    2  A    between atoms: C_7  and  C_8
REMARK    3  A    between atoms: C_8  and  C_9
REMARK    4  A    between atoms: C_12  and  C_13
REMARK    5  A    between atoms: N_15  and  C_16
REMARK    6  A    between atoms: C_16  and  C_17
REMARK    7  A    between atoms: C_27  and  C_28
REMARK    8  A    between atoms: C_27  and  C_29
REMARK    9  A    between atoms: C_32  and  C_33
REMARK   10  A    between atoms: C_32  and  C_34
REMARK                            x       y       z     vdW  Elec       q    Type
REMARK                         _______ _______ _______ _____ _____    ______ ____
ROOT
ATOM      1  C   UNL     1      -0.240  11.273  20.502  0.00  0.00    +0.000 A 
ATOM      2  C   UNL     1      -0.162  10.284  21.460  0.00  0.00    +0.000 A 
ATOM      3  C   UNL     1       0.610   9.244  20.900  0.00  0.00    +0.000 A 
ATOM      4  C   UNL     1       0.928   9.633  19.613  0.00  0.00    +0.000 A 
ATOM      5  O   UNL     1       0.395  10.871  19.361  0.00  0.00    +0.000 OA
ENDROOT
BRANCH   4   6
ATOM      6  C   UNL     1       1.700   8.953  18.597  0.00  0.00    +0.000 C 
ATOM      7  O   UNL     1       1.832   9.386  17.455  0.00  0.00    +0.000 OA
ATOM      8  N   UNL     1       2.284   7.772  19.010  0.00  0.00    +0.000 N 
ATOM      9  H   UNL     1       2.086   7.467  19.956  0.00  0.00    +0.000 HD
BRANCH   8  10
ATOM     10  C   UNL     1       2.971   6.894  18.091  0.00  0.00    +0.000 C 
BRANCH  10  11
ATOM     11  C   UNL     1       2.333   5.498  17.990  0.00  0.00    +0.000 C 
ATOM     12  C   UNL     1       1.704   5.003  19.303  0.00  0.00    +0.000 C 
ATOM     13  C   UNL     1       2.750   4.677  20.372  0.00  0.00    +0.000 C 
ATOM     14  N   UNL     1       3.728   3.711  19.850  0.00  0.00    +0.000 N 
ATOM     15  C   UNL     1       4.021   2.528  20.473  0.00  0.00    +0.000 C 
ATOM     16  N   UNL     1       3.480   2.014  21.523  0.00  0.00    +0.000 NA
ATOM     17  N   UNL     1       5.011   1.783  19.934  0.00  0.00    +0.000 N 
ATOM     18  C   UNL     1       4.407   4.171  18.630  0.00  0.00    +0.000 C 
ATOM     19  C   UNL     1       3.380   4.467  17.536  0.00  0.00    +0.000 C 
ATOM     20  H   UNL     1       2.745   2.618  21.879  0.00  0.00    +0.000 HD
ATOM     21  H   UNL     1       5.874   2.298  19.835  0.00  0.00    +0.000 HD
ATOM     22  H   UNL     1       5.163   0.984  20.542  0.00  0.00    +0.000 HD
ENDBRANCH  10  11
ENDBRANCH   8  10
ENDBRANCH   4   6
BRANCH   1  23
ATOM     23  C   UNL     1      -0.854  12.629  20.493  0.00  0.00    +0.000 C 
BRANCH  23  30
ATOM     24  C   UNL     1      -2.636  11.822  18.150  0.00  0.00    +0.000 C 
ATOM     25  C   UNL     1      -3.176  12.223  19.493  0.00  0.00    +0.000 A 
ATOM     26  C   UNL     1      -4.568  12.263  19.652  0.00  0.00    +0.000 A 
ATOM     27  C   UNL     1      -5.198  12.615  20.866  0.00  0.00    +0.000 A 
ATOM     28  C   UNL     1      -4.387  12.892  21.982  0.00  0.00    +0.000 A 
ATOM     29  C   UNL     1      -2.984  12.903  21.803  0.00  0.00    +0.000 A 
ATOM     30  C   UNL     1      -2.367  12.589  20.574  0.00  0.00    +0.000 A 
ATOM     31  C   UNL     1      -4.972  13.204  23.367  0.00  0.00    +0.000 C 
ATOM     32  C   UNL     1      -4.788  14.708  23.663  0.00  0.00    +0.000 C 
ATOM     33  C   UNL     1      -4.264  12.399  24.484  0.00  0.00    +0.000 C 
ATOM     34  C   UNL     1      -6.470  12.826  23.451  0.00  0.00    +0.000 C 
ATOM     35  C   UNL     1      -7.251  13.271  22.227  0.00  0.00    +0.000 C 
ATOM     36  C   UNL     1      -6.726  12.626  20.925  0.00  0.00    +0.000 C 
ATOM     37  C   UNL     1      -7.328  13.447  19.759  0.00  0.00    +0.000 C 
ATOM     38  C   UNL     1      -7.230  11.170  20.813  0.00  0.00    +0.000 C 
ENDBRANCH  23  30
ENDBRANCH   1  23
TORSDOF 5
ENDMDL
MODEL 2
REMARK VINA RESULT:      -9.4      2.097      2.819
REMARK  Name = 
REMARK  10 active torsions:
REMARK  status: ('A' for Active; 'I' for Inactive)
REMARK    1  A    between atoms: C_1  and  C_2
REMARK    2  A    between atoms: C_7  and  C_8
REMARK    3  A    between atoms: C_8  and  C_9
REMARK    4  A    between atoms: C_12  and  C_13
REMARK    5  A    between atoms: N_15  and  C_16
REMARK    6  A    between atoms: C_16  and  C_17
REMARK    7  A    between atoms: C_27  and  C_28
REMARK    8  A    between atoms: C_27  and  C_29
REMARK    9  A    between atoms: C_32  and  C_33
REMARK   10  A    between atoms: C_32  and  C_34
REMARK                            x       y       z     vdW  Elec       q    Type
REMARK                         _______ _______ _______ _____ _____    ______ ____
ROOT
ATOM      1  C   UNL     1      -0.020  11.200  19.348  0.00  0.00    +0.000 A 
ATOM      2  C   UNL     1       0.532  11.664  20.523  0.00  0.00    +0.000 A 
ATOM      3  C   UNL     1       1.166  10.559  21.131  0.00  0.00    +0.000 A 
ATOM      4  C   UNL     1       0.932   9.468  20.317  0.00  0.00    +0.000 A 
ATOM      5  O   UNL     1       0.191   9.855  19.230  0.00  0.00    +0.000 OA
ENDROOT
BRANCH   4   6
ATOM      6  C   UNL     1       1.351   8.091  20.459  0.00  0.00    +0.000 C 
ATOM      7  O   UNL     1       1.048   7.395  21.425  0.00  0.00    +0.000 OA
ATOM      8  N   UNL     1       2.122   7.613  19.418  0.00  0.00    +0.000 N 
ATOM      9  H   UNL     1       2.362   8.270  18.684  0.00  0.00    +0.000 HD
BRANCH   8  10
ATOM     10  C   UNL     1       2.742   6.309  19.460  0.00  0.00    +0.000 C 
BRANCH  10  11
ATOM     11  C   UNL     1       2.998   5.712  18.066  0.00  0.00    +0.000 C 
ATOM     12  C   UNL     1       3.776   4.386  18.088  0.00  0.00    +0.000 C 
ATOM     13  C   UNL     1       5.237   4.566  18.508  0.00  0.00    +0.000 C 
ATOM     14  N   UNL     1       5.897   5.558  17.646  0.00  0.00    +0.000 N 
ATOM     15  C   UNL     1       7.054   5.306  16.961  0.00  0.00    +0.000 C 
ATOM     16  N   UNL     1       7.713   4.204  16.869  0.00  0.00    +0.000 NA
ATOM     17  N   UNL     1       7.601   6.341  16.287  0.00  0.00    +0.000 N 
ATOM     18  C   UNL     1       5.225   6.866  17.646  0.00  0.00    +0.000 C 
ATOM     19  C   UNL     1       3.773   6.713  17.192  0.00  0.00    +0.000 C 
ATOM     20  H   UNL     1       7.253   3.466  17.394  0.00  0.00    +0.000 HD
ATOM     21  H   UNL     1       7.763   7.146  16.875  0.00  0.00    +0.000 HD
ATOM     22  H   UNL     1       8.484   6.025  15.897  0.00  0.00    +0.000 HD
ENDBRANCH  10  11
ENDBRANCH   8  10
ENDBRANCH   4   6
BRANCH   1  23
ATOM     23  C   UNL     1      -0.760  11.869  18.243  0.00  0.00    +0.000 C 
BRANCH  23  30
ATOM     24  C   UNL     1      -2.659  10.459  16.314  0.00  0.00    +0.000 C 
ATOM     25  C   UNL     1      -3.127  11.186  17.543  0.00  0.00    +0.000 A 
ATOM     26  C   UNL     1      -4.507  11.246  17.781  0.00  0.00    +0.000 A 
ATOM     27  C   UNL     1      -5.070  11.892  18.903  0.00  0.00    +0.000 A 
ATOM     28  C   UNL     1      -4.199  12.460  19.852  0.00  0.00    +0.000 A 
ATOM     29  C   UNL     1      -2.811  12.443  19.581  0.00  0.00    +0.000 A 
ATOM     30  C   UNL     1      -2.263  11.830  18.435  0.00  0.00    +0.000 A 
ATOM     31  C   UNL     1      -4.706  13.110  21.147  0.00  0.00    +0.000 C 
ATOM     32  C   UNL     1      -4.550  14.642  21.033  0.00  0.00    +0.000 C 
ATOM     33  C   UNL     1      -3.904  12.632  22.382  0.00  0.00    +0.000 C 
ATOM     34  C   UNL     1      -6.183  12.747  21.429  0.00  0.00    +0.000 C 
ATOM     35  C   UNL     1      -7.053  12.849  20.188  0.00  0.00    +0.000 C 
ATOM     36  C   UNL     1      -6.591  11.897  19.063  0.00  0.00    +0.000 C 
ATOM     37  C   UNL     1      -7.290  12.379  17.769  0.00  0.00    +0.000 C 
ATOM     38  C   UNL     1      -7.055  10.454  19.364  0.00  0.00    +0.000 C 
ENDBRANCH  23  30
ENDBRANCH   1  23
TORSDOF 5
ENDMDL
MODEL 3
REMARK VINA RESULT:      -9.3      8.472     10.677
REMARK  Name = 
REMARK  10 active torsions:
REMARK  status: ('A' for Active; 'I' for Inactive)
REMARK    1  A    between atoms: C_1  and  C_2
REMARK    2  A    between atoms: C_7  and  C_8
REMARK    3  A    between atoms: C_8  and  C_9
REMARK    4  A    between atoms: C_12  and  C_13
REMARK    5  A    between atoms: N_15  and  C_16
REMARK    6  A    between atoms: C_16  and  C_17
REMARK    7  A    between atoms: C_27  and  C_28
REMARK    8  A    between atoms: C_27  and  C_29
REMARK    9  A    between atoms: C_32  and  C_33
REMARK   10  A    between atoms: C_32  and  C_34
REMARK                            x       y       z     vdW  Elec       q    Type
REMARK                         _______ _______ _______ _____ _____    ______ ____
ROOT
ATOM      1  C   UNL     1       9.825  11.042  19.073  0.00  0.00    +0.000 A 
ATOM      2  C   UNL     1       8.977  11.588  18.134  0.00  0.00    +0.000 A 
ATOM      3  C   UNL     1       8.167  10.533  17.662  0.00  0.00    +0.000 A 
ATOM      4  C   UNL     1       8.591   9.387  18.307  0.00  0.00    +0.000 A 
ATOM      5  O   UNL     1       9.618   9.693  19.163  0.00  0.00    +0.000 OA
ENDROOT
BRANCH   4   6
ATOM      6  C   UNL     1       8.112   8.027  18.204  0.00  0.00    +0.000 C 
ATOM      7  O   UNL     1       8.453   7.136  18.979  0.00  0.00    +0.000 OA
ATOM      8  N   UNL     1       7.234   7.802  17.163  0.00  0.00    +0.000 N 
ATOM      9  H   UNL     1       7.042   8.583  16.546  0.00  0.00    +0.000 HD
BRANCH   8  10
ATOM     10  C   UNL     1       6.766   6.476  16.827  0.00  0.00    +0.000 C 
BRANCH  10  11
ATOM     11  C   UNL     1       5.358   6.466  16.208  0.00  0.00    +0.000 C 
ATOM     12  C   UNL     1       4.246   6.895  17.179  0.00  0.00    +0.000 C 
ATOM     13  C   UNL     1       3.995   5.863  18.281  0.00  0.00    +0.000 C 
ATOM     14  N   UNL     1       3.712   4.546  17.692  0.00  0.00    +0.000 N 
ATOM     15  C   UNL     1       2.592   3.817  17.986  0.00  0.00    +0.000 C 
ATOM     16  N   UNL     1       1.587   4.144  18.722  0.00  0.00    +0.000 NA
ATOM     17  N   UNL     1       2.510   2.581  17.448  0.00  0.00    +0.000 N 
ATOM     18  C   UNL     1       4.782   4.063  16.807  0.00  0.00    +0.000 C 
ATOM     19  C   UNL     1       5.022   5.063  15.675  0.00  0.00    +0.000 C 
ATOM     20  H   UNL     1       1.707   5.082  19.096  0.00  0.00    +0.000 HD
ATOM     21  H   UNL     1       3.313   2.008  17.665  0.00  0.00    +0.000 HD
ATOM     22  H   UNL     1       1.671   2.139  17.814  0.00  0.00    +0.000 HD
ENDBRANCH  10  11
ENDBRANCH   8  10
ENDBRANCH   4   6
BRANCH   1  23
ATOM     23  C   UNL     1      10.864  11.627  19.964  0.00  0.00    +0.000 C 
BRANCH  23  30
ATOM     24  C   UNL     1      11.590  14.568  19.585  0.00  0.00    +0.000 C 
ATOM     25  C   UNL     1      10.666  14.082  20.666  0.00  0.00    +0.000 A 
ATOM     26  C   UNL     1      10.153  15.030  21.563  0.00  0.00    +0.000 A 
ATOM     27  C   UNL     1       9.271  14.701  22.615  0.00  0.00    +0.000 A 
ATOM     28  C   UNL     1       8.850  13.363  22.739  0.00  0.00    +0.000 A 
ATOM     29  C   UNL     1       9.412  12.402  21.866  0.00  0.00    +0.000 A 
ATOM     30  C   UNL     1      10.324  12.737  20.844  0.00  0.00    +0.000 A 
ATOM     31  C   UNL     1       7.830  12.917  23.795  0.00  0.00    +0.000 C 
ATOM     32  C   UNL     1       8.562  12.117  24.894  0.00  0.00    +0.000 C 
ATOM     33  C   UNL     1       6.732  12.011  23.186  0.00  0.00    +0.000 C 
ATOM     34  C   UNL     1       7.091  14.123  24.421  0.00  0.00    +0.000 C 
ATOM     35  C   UNL     1       8.032  15.263  24.771  0.00  0.00    +0.000 C 
ATOM     36  C   UNL     1       8.774  15.817  23.534  0.00  0.00    +0.000 C 
ATOM     37  C   UNL     1       9.950  16.666  24.075  0.00  0.00    +0.000 C 
ATOM     38  C   UNL     1       7.836  16.738  22.720  0.00  0.00    +0.000 C 
ENDBRANCH  23  30
ENDBRANCH   1  23
TORSDOF 5
ENDMDL
MODEL 4
REMARK VINA RESULT:      -9.2      1.991      2.574
REMARK  Name = 
REMARK  10 active torsions:
REMARK  status: ('A' for Active; 'I' for Inactive)
REMARK    1  A    between atoms: C_1  and  C_2
REMARK    2  A    between atoms: C_7  and  C_8
REMARK    3  A    between atoms: C_8  and  C_9
REMARK    4  A    between atoms: C_12  and  C_13
REMARK    5  A    between atoms: N_15  and  C_16
REMARK    6  A    between atoms: C_16  and  C_17
REMARK    7  A    between atoms: C_27  and  C_28
REMARK    8  A    between atoms: C_27  and  C_29
REMARK    9  A    between atoms: C_32  and  C_33
REMARK   10  A    between atoms: C_32  and  C_34
REMARK                            x       y       z     vdW  Elec       q    Type
REMARK                         _______ _______ _______ _____ _____    ______ ____
ROOT
ATOM      1  C   UNL     1      -0.121  11.330  19.849  0.00  0.00    +0.000 A 
ATOM      2  C   UNL     1       0.139  10.659  21.026  0.00  0.00    +0.000 A 
ATOM      3  C   UNL     1       0.930   9.542  20.684  0.00  0.00    +0.000 A 
ATOM      4  C   UNL     1       1.078   9.564  19.311  0.00  0.00    +0.000 A 
ATOM      5  O   UNL     1       0.422  10.651  18.794  0.00  0.00    +0.000 OA
ENDROOT
BRANCH   4   6
ATOM      6  C   UNL     1       1.793   8.662  18.435  0.00  0.00    +0.000 C 
ATOM      7  O   UNL     1       2.180   8.983  17.314  0.00  0.00    +0.000 OA
ATOM      8  N   UNL     1       2.010   7.402  18.957  0.00  0.00    +0.000 N 
ATOM      9  H   UNL     1       1.617   7.209  19.871  0.00  0.00    +0.000 HD
BRANCH   8  10
ATOM     10  C   UNL     1       2.582   6.334  18.169  0.00  0.00    +0.000 C 
BRANCH  10  11
ATOM     11  C   UNL     1       4.060   6.062  18.495  0.00  0.00    +0.000 C 
ATOM     12  C   UNL     1       5.046   6.924  17.689  0.00  0.00    +0.000 C 
ATOM     13  C   UNL     1       5.087   6.543  16.207  0.00  0.00    +0.000 C 
ATOM     14  N   UNL     1       5.382   5.111  16.056  0.00  0.00    +0.000 N 
ATOM     15  C   UNL     1       6.411   4.633  15.291  0.00  0.00    +0.000 C 
ATOM     16  N   UNL     1       7.318   5.291  14.658  0.00  0.00    +0.000 NA
ATOM     17  N   UNL     1       6.504   3.291  15.164  0.00  0.00    +0.000 N 
ATOM     18  C   UNL     1       4.423   4.243  16.755  0.00  0.00    +0.000 C 
ATOM     19  C   UNL     1       4.396   4.582  18.246  0.00  0.00    +0.000 C 
ATOM     20  H   UNL     1       7.195   6.291  14.792  0.00  0.00    +0.000 HD
ATOM     21  H   UNL     1       5.650   2.873  14.823  0.00  0.00    +0.000 HD
ATOM     22  H   UNL     1       7.259   3.094  14.513  0.00  0.00    +0.000 HD
ENDBRANCH  10  11
ENDBRANCH   8  10
ENDBRANCH   4   6
BRANCH   1  23
ATOM     23  C   UNL     1      -0.841  12.595  19.541  0.00  0.00    +0.000 C 
BRANCH  23  30
ATOM     24  C   UNL     1      -2.591  11.340  17.377  0.00  0.00    +0.000 C 
ATOM     25  C   UNL     1      -3.141  11.886  18.665  0.00  0.00    +0.000 A 
ATOM     26  C   UNL     1      -4.530  11.848  18.850  0.00  0.00    +0.000 A 
ATOM     27  C   UNL     1      -5.167  12.322  20.017  0.00  0.00    +0.000 A 
ATOM     28  C   UNL     1      -4.363  12.811  21.064  0.00  0.00    +0.000 A 
ATOM     29  C   UNL     1      -2.968  12.897  20.851  0.00  0.00    +0.000 A 
ATOM     30  C   UNL     1      -2.346  12.458  19.664  0.00  0.00    +0.000 A 
ATOM     31  C   UNL     1      -4.951  13.272  22.406  0.00  0.00    +0.000 C 
ATOM     32  C   UNL     1      -4.875  14.811  22.484  0.00  0.00    +0.000 C 
ATOM     33  C   UNL     1      -4.169  12.685  23.606  0.00  0.00    +0.000 C 
ATOM     34  C   UNL     1      -6.415  12.803  22.579  0.00  0.00    +0.000 C 
ATOM     35  C   UNL     1      -7.244  13.014  21.323  0.00  0.00    +0.000 C 
ATOM     36  C   UNL     1      -6.691  12.231  20.112  0.00  0.00    +0.000 C 
ATOM     37  C   UNL     1      -7.368  12.834  18.858  0.00  0.00    +0.000 C 
ATOM     38  C   UNL     1      -7.086  10.741  20.217  0.00  0.00    +0.000 C 
ENDBRANCH  23  30
ENDBRANCH   1  23
TORSDOF 5
ENDMDL
MODEL 5
REMARK VINA RESULT:      -9.2      0.946      1.132
REMARK  Name = 
REMARK  10 active torsions:
REMARK  status: ('A' for Active; 'I' for Inactive)
REMARK    1  A    between atoms: C_1  and  C_2
REMARK    2  A    between atoms: C_7  and  C_8
REMARK    3  A    between atoms: C_8  and  C_9
REMARK    4  A    between atoms: C_12  and  C_13
REMARK    5  A    between atoms: N_15  and  C_16
REMARK    6  A    between atoms: C_16  and  C_17
REMARK    7  A    between atoms: C_27  and  C_28
REMARK    8  A    between atoms: C_27  and  C_29
REMARK    9  A    between atoms: C_32  and  C_33
REMARK   10  A    between atoms: C_32  and  C_34
REMARK                            x       y       z     vdW  Elec       q    Type
REMARK                         _______ _______ _______ _____ _____    ______ ____
ROOT
ATOM      1  C   UNL     1      -0.336  11.043  18.950  0.00  0.00    +0.000 A 
ATOM      2  C   UNL     1      -0.267  10.386  20.160  0.00  0.00    +0.000 A 
ATOM      3  C   UNL     1       0.718   9.386  20.017  0.00  0.00    +0.000 A 
ATOM      4  C   UNL     1       1.171   9.456  18.715  0.00  0.00    +0.000 A 
ATOM      5  O   UNL     1       0.515  10.463  18.052  0.00  0.00    +0.000 OA
ENDROOT
BRANCH   4   6
ATOM      6  C   UNL     1       2.176   8.672  18.032  0.00  0.00    +0.000 C 
ATOM      7  O   UNL     1       2.839   9.103  17.092  0.00  0.00    +0.000 OA
ATOM      8  N   UNL     1       2.338   7.391  18.521  0.00  0.00    +0.000 N 
ATOM      9  H   UNL     1       1.718   7.102  19.270  0.00  0.00    +0.000 HD
BRANCH   8  10
ATOM     10  C   UNL     1       3.195   6.425  17.873  0.00  0.00    +0.000 C 
BRANCH  10  11
ATOM     11  C   UNL     1       2.587   5.013  17.815  0.00  0.00    +0.000 C 
ATOM     12  C   UNL     1       1.893   4.580  19.117  0.00  0.00    +0.000 C 
ATOM     13  C   UNL     1       2.881   4.334  20.259  0.00  0.00    +0.000 C 
ATOM     14  N   UNL     1       3.903   3.360  19.849  0.00  0.00    +0.000 N 
ATOM     15  C   UNL     1       4.180   2.220  20.553  0.00  0.00    +0.000 C 
ATOM     16  N   UNL     1       3.589   1.755  21.599  0.00  0.00    +0.000 NA
ATOM     17  N   UNL     1       5.211   1.466  20.114  0.00  0.00    +0.000 N 
ATOM     18  C   UNL     1       4.643   3.766  18.645  0.00  0.00    +0.000 C 
ATOM     19  C   UNL     1       3.675   3.979  17.480  0.00  0.00    +0.000 C 
ATOM     20  H   UNL     1       2.825   2.363  21.879  0.00  0.00    +0.000 HD
ATOM     21  H   UNL     1       6.070   1.992  20.034  0.00  0.00    +0.000 HD
ATOM     22  H   UNL     1       5.341   0.705  20.773  0.00  0.00    +0.000 HD
ENDBRANCH  10  11
ENDBRANCH   8  10
ENDBRANCH   4   6
BRANCH   1  23
ATOM     23  C   UNL     1      -1.124  12.213  18.475  0.00  0.00    +0.000 C 
BRANCH  23  30
ATOM     24  C   UNL     1      -3.322  10.961  16.765  0.00  0.00    +0.000 C 
ATOM     25  C   UNL     1      -3.579  11.582  18.109  0.00  0.00    +0.000 A 
ATOM     26  C   UNL     1      -4.903  11.618  18.570  0.00  0.00    +0.000 A 
ATOM     27  C   UNL     1      -5.273  12.166  19.817  0.00  0.00    +0.000 A 
ATOM     28  C   UNL     1      -4.257  12.656  20.658  0.00  0.00    +0.000 A 
ATOM     29  C   UNL     1      -2.930  12.667  20.167  0.00  0.00    +0.000 A 
ATOM     30  C   UNL     1      -2.578  12.153  18.902  0.00  0.00    +0.000 A 
ATOM     31  C   UNL     1      -4.543  13.195  22.067  0.00  0.00    +0.000 C 
ATOM     32  C   UNL     1      -4.393  14.731  22.056  0.00  0.00    +0.000 C 
ATOM     33  C   UNL     1      -3.559  12.619  23.114  0.00  0.00    +0.000 C 
ATOM     34  C   UNL     1      -5.960  12.804  22.550  0.00  0.00    +0.000 C 
ATOM     35  C   UNL     1      -7.016  13.006  21.477  0.00  0.00    +0.000 C 
ATOM     36  C   UNL     1      -6.749  12.152  20.218  0.00  0.00    +0.000 C 
ATOM     37  C   UNL     1      -7.641  12.738  19.097  0.00  0.00    +0.000 C 
ATOM     38  C   UNL     1      -7.173  10.687  20.469  0.00  0.00    +0.000 C 
ENDBRANCH  23  30
ENDBRANCH   1  23
TORSDOF 5
ENDMDL
MODEL 6
REMARK VINA RESULT:      -9.1      2.388      4.057
REMARK  Name = 
REMARK  10 active torsions:
REMARK  status: ('A' for Active; 'I' for Inactive)
REMARK    1  A    between atoms: C_1  and  C_2
REMARK    2  A    between atoms: C_7  and  C_8
REMARK    3  A    between atoms: C_8  and  C_9
REMARK    4  A    between atoms: C_12  and  C_13
REMARK    5  A    between atoms: N_15  and  C_16
REMARK    6  A    between atoms: C_16  and  C_17
REMARK    7  A    between atoms: C_27  and  C_28
REMARK    8  A    between atoms: C_27  and  C_29
REMARK    9  A    between atoms: C_32  and  C_33
REMARK   10  A    between atoms: C_32  and  C_34
REMARK                            x       y       z     vdW  Elec       q    Type
REMARK                         _______ _______ _______ _____ _____    ______ ____
ROOT
ATOM      1  C   UNL     1       0.544  10.912  20.237  0.00  0.00    +0.000 A 
ATOM      2  C   UNL     1       0.627  10.039  21.301  0.00  0.00    +0.000 A 
ATOM      3  C   UNL     1       1.255   8.873  20.813  0.00  0.00    +0.000 A 
ATOM      4  C   UNL     1       1.484   9.077  19.467  0.00  0.00    +0.000 A 
ATOM      5  O   UNL     1       1.035  10.321  19.106  0.00  0.00    +0.000 OA
ENDROOT
BRANCH   4   6
ATOM      6  C   UNL     1       2.100   8.213  18.484  0.00  0.00    +0.000 C 
ATOM      7  O   UNL     1       2.403   8.592  17.355  0.00  0.00    +0.000 OA
ATOM      8  N   UNL     1       2.325   6.920  18.912  0.00  0.00    +0.000 N 
ATOM      9  H   UNL     1       2.003   6.681  19.843  0.00  0.00    +0.000 HD
BRANCH   8  10
ATOM     10  C   UNL     1       2.802   5.889  18.019  0.00  0.00    +0.000 C 
BRANCH  10  11
ATOM     11  C   UNL     1       4.282   5.532  18.236  0.00  0.00    +0.000 C 
ATOM     12  C   UNL     1       5.264   6.520  17.586  0.00  0.00    +0.000 C 
ATOM     13  C   UNL     1       5.254   6.441  16.057  0.00  0.00    +0.000 C 
ATOM     14  N   UNL     1       5.511   5.062  15.616  0.00  0.00    +0.000 N 
ATOM     15  C   UNL     1       6.506   4.728  14.738  0.00  0.00    +0.000 C 
ATOM     16  N   UNL     1       7.411   5.483  14.219  0.00  0.00    +0.000 NA
ATOM     17  N   UNL     1       6.565   3.437  14.344  0.00  0.00    +0.000 N 
ATOM     18  C   UNL     1       4.553   4.089  16.160  0.00  0.00    +0.000 C 
ATOM     19  C   UNL     1       4.576   4.125  17.689  0.00  0.00    +0.000 C 
ATOM     20  H   UNL     1       7.315   6.438  14.552  0.00  0.00    +0.000 HD
ATOM     21  H   UNL     1       5.692   3.109  13.956  0.00  0.00    +0.000 HD
ATOM     22  H   UNL     1       7.296   3.360  13.644  0.00  0.00    +0.000 HD
ENDBRANCH  10  11
ENDBRANCH   8  10
ENDBRANCH   4   6
BRANCH   1  23
ATOM     23  C   UNL     1       0.047  12.309  20.109  0.00  0.00    +0.000 C 
BRANCH  23  30
ATOM     24  C   UNL     1      -1.741  13.915  21.990  0.00  0.00    +0.000 C 
ATOM     25  C   UNL     1      -2.273  13.119  20.832  0.00  0.00    +0.000 A 
ATOM     26  C   UNL     1      -3.661  13.088  20.643  0.00  0.00    +0.000 A 
ATOM     27  C   UNL     1      -4.282  12.384  19.588  0.00  0.00    +0.000 A 
ATOM     28  C   UNL     1      -3.463  11.721  18.656  0.00  0.00    +0.000 A 
ATOM     29  C   UNL     1      -2.066  11.711  18.881  0.00  0.00    +0.000 A 
ATOM     30  C   UNL     1      -1.461  12.384  19.962  0.00  0.00    +0.000 A 
ATOM     31  C   UNL     1      -4.033  10.997  17.427  0.00  0.00    +0.000 C 
ATOM     32  C   UNL     1      -3.921   9.473  17.647  0.00  0.00    +0.000 C 
ATOM     33  C   UNL     1      -3.259  11.360  16.137  0.00  0.00    +0.000 C 
ATOM     34  C   UNL     1      -5.507  11.389  17.168  0.00  0.00    +0.000 C 
ATOM     35  C   UNL     1      -6.337  11.404  18.440  0.00  0.00    +0.000 C 
ATOM     36  C   UNL     1      -5.807  12.418  19.478  0.00  0.00    +0.000 C 
ATOM     37  C   UNL     1      -6.476  12.052  20.825  0.00  0.00    +0.000 C 
ATOM     38  C   UNL     1      -6.236  13.851  19.088  0.00  0.00    +0.000 C 
ENDBRANCH  23  30
ENDBRANCH   1  23
TORSDOF 5
ENDMDL
MODEL 7
REMARK VINA RESULT:      -9.0      2.173      2.821
REMARK  Name = 
REMARK  10 active torsions:
REMARK  status: ('A' for Active; 'I' for Inactive)
REMARK    1  A    between atoms: C_1  and  C_2
REMARK    2  A    between atoms: C_7  and  C_8
REMARK    3  A    between atoms: C_8  and  C_9
REMARK    4  A    between atoms: C_12  and  C_13
REMARK    5  A    between atoms: N_15  and  C_16
REMARK    6  A    between atoms: C_16  and  C_17
REMARK    7  A    between atoms: C_27  and  C_28
REMARK    8  A    between atoms: C_27  and  C_29
REMARK    9  A    between atoms: C_32  and  C_33
REMARK   10  A    between atoms: C_32  and  C_34
REMARK                            x       y       z     vdW  Elec       q    Type
REMARK                         _______ _______ _______ _____ _____    ______ ____
ROOT
ATOM      1  C   UNL     1      -0.296  10.735  20.770  0.00  0.00    +0.000 A 
ATOM      2  C   UNL     1      -0.474  10.444  22.106  0.00  0.00    +0.000 A 
ATOM      3  C   UNL     1       0.131   9.188  22.327  0.00  0.00    +0.000 A 
ATOM      4  C   UNL     1       0.610   8.757  21.105  0.00  0.00    +0.000 A 
ATOM      5  O   UNL     1       0.336   9.697  20.145  0.00  0.00    +0.000 OA
ENDROOT
BRANCH   4   6
ATOM      6  C   UNL     1       1.316   7.544  20.755  0.00  0.00    +0.000 C 
ATOM      7  O   UNL     1       1.159   6.482  21.352  0.00  0.00    +0.000 OA
ATOM      8  N   UNL     1       2.185   7.670  19.689  0.00  0.00    +0.000 N 
ATOM      9  H   UNL     1       2.285   8.594  19.284  0.00  0.00    +0.000 HD
BRANCH   8  10
ATOM     10  C   UNL     1       3.072   6.601  19.294  0.00  0.00    +0.000 C 
BRANCH  10  11
ATOM     11  C   UNL     1       2.981   6.256  17.798  0.00  0.00    +0.000 C 
ATOM     12  C   UNL     1       3.182   4.763  17.488  0.00  0.00    +0.000 C 
ATOM     13  C   UNL     1       4.623   4.302  17.721  0.00  0.00    +0.000 C 
ATOM     14  N   UNL     1       5.556   5.138  16.951  0.00  0.00    +0.000 N 
ATOM     15  C   UNL     1       6.476   4.626  16.076  0.00  0.00    +0.000 C 
ATOM     16  N   UNL     1       6.646   3.404  15.708  0.00  0.00    +0.000 NA
ATOM     17  N   UNL     1       7.335   5.504  15.512  0.00  0.00    +0.000 N 
ATOM     18  C   UNL     1       5.448   6.570  17.264  0.00  0.00    +0.000 C 
ATOM     19  C   UNL     1       4.022   7.060  17.002  0.00  0.00    +0.000 C 
ATOM     20  H   UNL     1       5.973   2.795  16.164  0.00  0.00    +0.000 HD
ATOM     21  H   UNL     1       7.836   6.051  16.196  0.00  0.00    +0.000 HD
ATOM     22  H   UNL     1       7.997   4.973  14.953  0.00  0.00    +0.000 HD
ENDBRANCH  10  11
ENDBRANCH   8  10
ENDBRANCH   4   6
BRANCH   1  23
ATOM     23  C   UNL     1      -0.646  11.916  19.935  0.00  0.00    +0.000 C 
BRANCH  23  30
ATOM     24  C   UNL     1      -1.803  10.540  17.468  0.00  0.00    +0.000 C 
ATOM     25  C   UNL     1      -2.637  11.333  18.434  0.00  0.00    +0.000 A 
ATOM     26  C   UNL     1      -4.004  11.474  18.155  0.00  0.00    +0.000 A 
ATOM     27  C   UNL     1      -4.893  12.187  18.988  0.00  0.00    +0.000 A 
ATOM     28  C   UNL     1      -4.391  12.742  20.180  0.00  0.00    +0.000 A 
ATOM     29  C   UNL     1      -3.003  12.643  20.430  0.00  0.00    +0.000 A 
ATOM     30  C   UNL     1      -2.116  11.963  19.570  0.00  0.00    +0.000 A 
ATOM     31  C   UNL     1      -5.290  13.464  21.194  0.00  0.00    +0.000 C 
ATOM     32  C   UNL     1      -5.010  14.980  21.123  0.00  0.00    +0.000 C 
ATOM     33  C   UNL     1      -5.019  12.988  22.642  0.00  0.00    +0.000 C 
ATOM     34  C   UNL     1      -6.788  13.187  20.926  0.00  0.00    +0.000 C 
ATOM     35  C   UNL     1      -7.144  13.291  19.453  0.00  0.00    +0.000 C 
ATOM     36  C   UNL     1      -6.366  12.277  18.585  0.00  0.00    +0.000 C 
ATOM     37  C   UNL     1      -6.520  12.750  17.119  0.00  0.00    +0.000 C 
ATOM     38  C   UNL     1      -6.995  10.872  18.718  0.00  0.00    +0.000 C 
ENDBRANCH  23  30
ENDBRANCH   1  23
TORSDOF 5
ENDMDL
MODEL 8
REMARK VINA RESULT:      -9.0      1.616      3.387
REMARK  Name = 
REMARK  10 active torsions:
REMARK  status: ('A' for Active; 'I' for Inactive)
REMARK    1  A    between atoms: C_1  and  C_2
REMARK    2  A    between atoms: C_7  and  C_8
REMARK    3  A    between atoms: C_8  and  C_9
REMARK    4  A    between atoms: C_12  and  C_13
REMARK    5  A    between atoms: N_15  and  C_16
REMARK    6  A    between atoms: C_16  and  C_17
REMARK    7  A    between atoms: C_27  and  C_28
REMARK    8  A    between atoms: C_27  and  C_29
REMARK    9  A    between atoms: C_32  and  C_33
REMARK   10  A    between atoms: C_32  and  C_34
REMARK                            x       y       z     vdW  Elec       q    Type
REMARK                         _______ _______ _______ _____ _____    ______ ____
ROOT
ATOM      1  C   UNL     1       0.328  10.668  20.764  0.00  0.00    +0.000 A 
ATOM      2  C   UNL     1       0.399   9.511  21.511  0.00  0.00    +0.000 A 
ATOM      3  C   UNL     1       1.120   8.577  20.736  0.00  0.00    +0.000 A 
ATOM      4  C   UNL     1       1.416   9.197  19.539  0.00  0.00    +0.000 A 
ATOM      5  O   UNL     1       0.919  10.475  19.546  0.00  0.00    +0.000 OA
ENDROOT
BRANCH   4   6
ATOM      6  C   UNL     1       2.137   8.705  18.386  0.00  0.00    +0.000 C 
ATOM      7  O   UNL     1       2.071   9.233  17.278  0.00  0.00    +0.000 OA
ATOM      8  N   UNL     1       2.912   7.587  18.624  0.00  0.00    +0.000 N 
ATOM      9  H   UNL     1       2.872   7.190  19.556  0.00  0.00    +0.000 HD
BRANCH   8  10
ATOM     10  C   UNL     1       3.586   6.881  17.560  0.00  0.00    +0.000 C 
BRANCH  10  11
ATOM     11  C   UNL     1       4.310   5.610  18.036  0.00  0.00    +0.000 C 
ATOM     12  C   UNL     1       3.943   4.347  17.239  0.00  0.00    +0.000 C 
ATOM     13  C   UNL     1       2.509   3.880  17.500  0.00  0.00    +0.000 C 
ATOM     14  N   UNL     1       2.291   3.684  18.941  0.00  0.00    +0.000 N 
ATOM     15  C   UNL     1       1.822   2.516  19.477  0.00  0.00    +0.000 C 
ATOM     16  N   UNL     1       1.572   1.400  18.885  0.00  0.00    +0.000 NA
ATOM     17  N   UNL     1       1.576   2.510  20.806  0.00  0.00    +0.000 N 
ATOM     18  C   UNL     1       2.564   4.888  19.739  0.00  0.00    +0.000 C 
ATOM     19  C   UNL     1       4.006   5.349  19.521  0.00  0.00    +0.000 C 
ATOM     20  H   UNL     1       1.777   1.467  17.892  0.00  0.00    +0.000 HD
ATOM     21  H   UNL     1       0.949   3.249  21.088  0.00  0.00    +0.000 HD
ATOM     22  H   UNL     1       1.166   1.611  21.040  0.00  0.00    +0.000 HD
ENDBRANCH  10  11
ENDBRANCH   8  10
ENDBRANCH   4   6
BRANCH   1  23
ATOM     23  C   UNL     1      -0.239  12.017  21.035  0.00  0.00    +0.000 C 
BRANCH  23  30
ATOM     24  C   UNL     1      -2.368  13.534  22.610  0.00  0.00    +0.000 C 
ATOM     25  C   UNL     1      -2.647  12.845  21.305  0.00  0.00    +0.000 A 
ATOM     26  C   UNL     1      -3.962  12.873  20.818  0.00  0.00    +0.000 A 
ATOM     27  C   UNL     1      -4.350  12.271  19.602  0.00  0.00    +0.000 A 
ATOM     28  C   UNL     1      -3.357  11.654  18.818  0.00  0.00    +0.000 A 
ATOM     29  C   UNL     1      -2.044  11.581  19.337  0.00  0.00    +0.000 A 
ATOM     30  C   UNL     1      -1.677  12.152  20.573  0.00  0.00    +0.000 A 
ATOM     31  C   UNL     1      -3.658  11.043  17.442  0.00  0.00    +0.000 C 
ATOM     32  C   UNL     1      -3.621   9.504  17.556  0.00  0.00    +0.000 C 
ATOM     33  C   UNL     1      -2.617  11.476  16.381  0.00  0.00    +0.000 C 
ATOM     34  C   UNL     1      -5.034  11.501  16.903  0.00  0.00    +0.000 C 
ATOM     35  C   UNL     1      -6.121  11.448  17.963  0.00  0.00    +0.000 C 
ATOM     36  C   UNL     1      -5.814  12.363  19.169  0.00  0.00    +0.000 C 
ATOM     37  C   UNL     1      -6.765  11.919  20.306  0.00  0.00    +0.000 C 
ATOM     38  C   UNL     1      -6.125  13.834  18.813  0.00  0.00    +0.000 C 
ENDBRANCH  23  30
ENDBRANCH   1  23
TORSDOF 5
ENDMDL
MODEL 9
REMARK VINA RESULT:      -9.0      2.082      2.654
REMARK  Name = 
REMARK  10 active torsions:
REMARK  status: ('A' for Active; 'I' for Inactive)
REMARK    1  A    between atoms: C_1  and  C_2
REMARK    2  A    between atoms: C_7  and  C_8
REMARK    3  A    between atoms: C_8  and  C_9
REMARK    4  A    between atoms: C_12  and  C_13
REMARK    5  A    between atoms: N_15  and  C_16
REMARK    6  A    between atoms: C_16  and  C_17
REMARK    7  A    between atoms: C_27  and  C_28
REMARK    8  A    between atoms: C_27  and  C_29
REMARK    9  A    between atoms: C_32  and  C_33
REMARK   10  A    between atoms: C_32  and  C_34
REMARK                            x       y       z     vdW  Elec       q    Type
REMARK                         _______ _______ _______ _____ _____    ______ ____
ROOT
ATOM      1  C   UNL     1       0.253  10.794  21.014  0.00  0.00    +0.000 A 
ATOM      2  C   UNL     1       0.178   9.728  21.885  0.00  0.00    +0.000 A 
ATOM      3  C   UNL     1       0.818   8.644  21.248  0.00  0.00    +0.000 A 
ATOM      4  C   UNL     1       1.213   9.091  20.003  0.00  0.00    +0.000 A 
ATOM      5  O   UNL     1       0.855  10.405  19.850  0.00  0.00    +0.000 OA
ENDROOT
BRANCH   4   6
ATOM      6  C   UNL     1       1.912   8.399  18.941  0.00  0.00    +0.000 C 
ATOM      7  O   UNL     1       2.268   8.952  17.903  0.00  0.00    +0.000 OA
ATOM      8  N   UNL     1       2.151   7.061  19.184  0.00  0.00    +0.000 N 
ATOM      9  H   UNL     1       1.782   6.677  20.047  0.00  0.00    +0.000 HD
BRANCH   8  10
ATOM     10  C   UNL     1       2.710   6.188  18.178  0.00  0.00    +0.000 C 
BRANCH  10  11
ATOM     11  C   UNL     1       4.189   5.846  18.423  0.00  0.00    +0.000 C 
ATOM     12  C   UNL     1       5.174   6.769  17.687  0.00  0.00    +0.000 C 
ATOM     13  C   UNL     1       5.160   6.558  16.171  0.00  0.00    +0.000 C 
ATOM     14  N   UNL     1       5.411   5.145  15.851  0.00  0.00    +0.000 N 
ATOM     15  C   UNL     1       6.404   4.732  15.004  0.00  0.00    +0.000 C 
ATOM     16  N   UNL     1       7.309   5.436  14.419  0.00  0.00    +0.000 NA
ATOM     17  N   UNL     1       6.456   3.411  14.724  0.00  0.00    +0.000 N 
ATOM     18  C   UNL     1       4.451   4.226  16.479  0.00  0.00    +0.000 C 
ATOM     19  C   UNL     1       4.477   4.396  17.999  0.00  0.00    +0.000 C 
ATOM     20  H   UNL     1       7.218   6.417  14.669  0.00  0.00    +0.000 HD
ATOM     21  H   UNL     1       5.582   3.054  14.367  0.00  0.00    +0.000 HD
ATOM     22  H   UNL     1       7.186   3.271  14.032  0.00  0.00    +0.000 HD
ENDBRANCH  10  11
ENDBRANCH   8  10
ENDBRANCH   4   6
BRANCH   1  23
ATOM     23  C   UNL     1      -0.176  12.215  21.112  0.00  0.00    +0.000 C 
BRANCH  23  30
ATOM     24  C   UNL     1      -1.703  11.825  18.498  0.00  0.00    +0.000 C 
ATOM     25  C   UNL     1      -2.369  12.209  19.789  0.00  0.00    +0.000 A 
ATOM     26  C   UNL     1      -3.752  12.436  19.770  0.00  0.00    +0.000 A 
ATOM     27  C   UNL     1      -4.493  12.794  20.916  0.00  0.00    +0.000 A 
ATOM     28  C   UNL     1      -3.817  12.880  22.148  0.00  0.00    +0.000 A 
ATOM     29  C   UNL     1      -2.414  12.703  22.153  0.00  0.00    +0.000 A 
ATOM     30  C   UNL     1      -1.678  12.385  20.993  0.00  0.00    +0.000 A 
ATOM     31  C   UNL     1      -4.544  13.180  23.466  0.00  0.00    +0.000 C 
ATOM     32  C   UNL     1      -4.207  14.620  23.909  0.00  0.00    +0.000 C 
ATOM     33  C   UNL     1      -4.111  12.211  24.594  0.00  0.00    +0.000 C 
ATOM     34  C   UNL     1      -6.075  13.014  23.324  0.00  0.00    +0.000 C 
ATOM     35  C   UNL     1      -6.612  13.644  22.051  0.00  0.00    +0.000 C 
ATOM     36  C   UNL     1      -6.000  13.018  20.778  0.00  0.00    +0.000 C 
ATOM     37  C   UNL     1      -6.320  13.990  19.617  0.00  0.00    +0.000 C 
ATOM     38  C   UNL     1      -6.670  11.658  20.480  0.00  0.00    +0.000 C 
ENDBRANCH  23  30
ENDBRANCH   1  23
TORSDOF 5
ENDMDL
