MODEL 1
REMARK VINA RESULT:      -8.1      0.000      0.000
REMARK  Name = 
REMARK  18 active torsions:
REMARK  status: ('A' for Active; 'I' for Inactive)
REMARK    1  A    between atoms: C_1  and  C_2
REMARK    2  A    between atoms: C_2  and  C_3
REMARK    3  A    between atoms: C_3  and  C_5
REMARK    4  A    between atoms: C_5  and  C_6
REMARK    5  A    between atoms: C_8  and  O_9
REMARK    6  A    between atoms: C_10  and  O_11
REMARK    7  A    between atoms: C_12  and  C_13
REMARK    8  A    between atoms: C_14  and  C_15
REMARK    9  A    between atoms: C_16  and  C_17
REMARK   10  A    between atoms: C_18  and  C_19
REMARK   11  A    between atoms: C_19  and  C_20
REMARK   12  A    between atoms: C_19  and  C_21
REMARK   13  A    between atoms: C_22  and  C_23
REMARK   14  A    between atoms: C_22  and  C_24
REMARK   15  A    between atoms: C_27  and  C_28
REMARK   16  A    between atoms: C_29  and  C_30
REMARK   17  A    between atoms: C_30  and  C_31
REMARK   18  A    between atoms: C_33  and  C_34
REMARK                            x       y       z     vdW  Elec       q    Type
REMARK                         _______ _______ _______ _____ _____    ______ ____
ROOT
ATOM      1  C   UNL     1       0.556   8.058  21.409  0.00  0.00    +0.000 C 
ATOM      2  C   UNL     1       0.753   9.444  20.829  0.00  0.00    +0.000 C 
ATOM      3  C   UNL     1       0.878   9.218  22.314  0.00  0.00    +0.000 C 
ATOM      4  C   UNL     1      -0.131   9.692  23.303  0.00  0.00    +0.000 C 
ENDROOT
BRANCH   1   6
ATOM      5  C   UNL     1       1.444   6.014  20.284  0.00  0.00    +0.000 C 
ATOM      6  C   UNL     1       1.572   7.038  21.146  0.00  0.00    +0.000 C 
BRANCH   5  11
ATOM      7  C   UNL     1       4.660   4.536  19.302  0.00  0.00    +0.000 C 
ATOM      8  C   UNL     1       4.218   3.211  18.659  0.00  0.00    +0.000 C 
ATOM      9  C   UNL     1       2.964   2.631  19.301  0.00  0.00    +0.000 C 
ATOM     10  C   UNL     1       1.857   3.690  19.424  0.00  0.00    +0.000 C 
ATOM     11  C   UNL     1       2.458   4.920  20.132  0.00  0.00    +0.000 C 
ATOM     12  O   UNL     1       3.546   5.434  19.350  0.00  0.00    +0.000 OA
BRANCH   9  13
ATOM     13  O   UNL     1       2.524   1.507  18.535  0.00  0.00    +0.000 OA
ATOM     14  H   UNL     1       3.074   0.740  18.775  0.00  0.00    +0.000 HD
ENDBRANCH   9  13
BRANCH  10  15
ATOM     15  O   UNL     1       0.722   3.154  20.111  0.00  0.00    +0.000 OA
ATOM     16  H   UNL     1       0.161   3.888  20.411  0.00  0.00    +0.000 HD
ENDBRANCH  10  15
BRANCH   7  17
ATOM     17  C   UNL     1       5.774   5.144  18.442  0.00  0.00    +0.000 C 
BRANCH  17  18
ATOM     18  C   UNL     1       7.009   5.658  19.165  0.00  0.00    +0.000 C 
ATOM     19  O   UNL     1       7.345   5.134  20.232  0.00  0.00    +0.000 OA
BRANCH  18  21
ATOM     20  C   UNL     1       7.307   7.166  17.154  0.00  0.00    +0.000 C 
ATOM     21  C   UNL     1       7.856   6.727  18.504  0.00  0.00    +0.000 C 
ENDBRANCH  18  21
ENDBRANCH  17  18
ENDBRANCH   7  17
ENDBRANCH   5  11
ENDBRANCH   1   6
BRANCH   2  22
ATOM     22  C   UNL     1      -0.407  10.086  20.201  0.00  0.00    +0.000 C 
ATOM     23  C   UNL     1      -0.466  10.438  18.904  0.00  0.00    +0.000 C 
BRANCH  23  24
ATOM     24  C   UNL     1      -1.580  11.234  18.280  0.00  0.00    +0.000 C 
ATOM     25  C   UNL     1      -2.241  10.405  17.169  0.00  0.00    +0.000 C 
BRANCH  24  26
ATOM     26  C   UNL     1      -2.634  11.627  19.293  0.00  0.00    +0.000 C 
ATOM     27  C   UNL     1      -2.640  12.741  20.060  0.00  0.00    +0.000 C 
ATOM     28  C   UNL     1      -1.503  13.738  20.086  0.00  0.00    +0.000 C 
BRANCH  27  29
ATOM     29  C   UNL     1      -3.859  13.213  20.859  0.00  0.00    +0.000 C 
ATOM     30  C   UNL     1      -4.179  14.721  20.845  0.00  0.00    +0.000 C 
ATOM     31  C   UNL     1      -5.503  15.084  20.273  0.00  0.00    +0.000 C 
ATOM     32  C   UNL     1      -6.389  14.161  19.882  0.00  0.00    +0.000 C 
ATOM     33  C   UNL     1      -7.757  14.569  19.406  0.00  0.00    +0.000 C 
ATOM     34  C   UNL     1      -6.102  12.674  19.960  0.00  0.00    +0.000 C 
ATOM     35  O   UNL     1      -4.952  12.310  20.728  0.00  0.00    +0.000 OA
BRANCH  34  36
ATOM     36  C   UNL     1      -6.074  12.011  18.572  0.00  0.00    +0.000 C 
ATOM     37  C   UNL     1      -6.506  10.551  18.603  0.00  0.00    +0.000 C 
ENDBRANCH  34  36
ENDBRANCH  27  29
ENDBRANCH  24  26
ENDBRANCH  23  24
ENDBRANCH   2  22
TORSDOF 12
ENDMDL
MODEL 2
REMARK VINA RESULT:      -7.9      1.167      1.712
REMARK  Name = 
REMARK  18 active torsions:
REMARK  status: ('A' for Active; 'I' for Inactive)
REMARK    1  A    between atoms: C_1  and  C_2
REMARK    2  A    between atoms: C_2  and  C_3
REMARK    3  A    between atoms: C_3  and  C_5
REMARK    4  A    between atoms: C_5  and  C_6
REMARK    5  A    between atoms: C_8  and  O_9
REMARK    6  A    between atoms: C_10  and  O_11
REMARK    7  A    between atoms: C_12  and  C_13
REMARK    8  A    between atoms: C_14  and  C_15
REMARK    9  A    between atoms: C_16  and  C_17
REMARK   10  A    between atoms: C_18  and  C_19
REMARK   11  A    between atoms: C_19  and  C_20
REMARK   12  A    between atoms: C_19  and  C_21
REMARK   13  A    between atoms: C_22  and  C_23
REMARK   14  A    between atoms: C_22  and  C_24
REMARK   15  A    between atoms: C_27  and  C_28
REMARK   16  A    between atoms: C_29  and  C_30
REMARK   17  A    between atoms: C_30  and  C_31
REMARK   18  A    between atoms: C_33  and  C_34
REMARK                            x       y       z     vdW  Elec       q    Type
REMARK                         _______ _______ _______ _____ _____    ______ ____
ROOT
ATOM      1  C   UNL     1       0.500   8.571  21.035  0.00  0.00    +0.000 C 
ATOM      2  C   UNL     1       1.004   9.999  20.992  0.00  0.00    +0.000 C 
ATOM      3  C   UNL     1       0.800   9.306  22.315  0.00  0.00    +0.000 C 
ATOM      4  C   UNL     1      -0.305   9.643  23.255  0.00  0.00    +0.000 C 
ENDROOT
BRANCH   1   6
ATOM      5  C   UNL     1       1.229   6.191  20.845  0.00  0.00    +0.000 C 
ATOM      6  C   UNL     1       1.391   7.500  20.586  0.00  0.00    +0.000 C 
BRANCH   5  11
ATOM      7  C   UNL     1       4.370   4.891  19.452  0.00  0.00    +0.000 C 
ATOM      8  C   UNL     1       3.884   3.666  18.660  0.00  0.00    +0.000 C 
ATOM      9  C   UNL     1       2.674   2.992  19.295  0.00  0.00    +0.000 C 
ATOM     10  C   UNL     1       1.580   4.014  19.640  0.00  0.00    +0.000 C 
ATOM     11  C   UNL     1       2.229   5.136  20.472  0.00  0.00    +0.000 C 
ATOM     12  O   UNL     1       3.262   5.764  19.700  0.00  0.00    +0.000 OA
BRANCH   9  13
ATOM     13  O   UNL     1       2.182   1.984  18.409  0.00  0.00    +0.000 OA
ATOM     14  H   UNL     1       1.226   2.125  18.286  0.00  0.00    +0.000 HD
ENDBRANCH   9  13
BRANCH  10  15
ATOM     15  O   UNL     1       0.493   3.377  20.318  0.00  0.00    +0.000 OA
ATOM     16  H   UNL     1      -0.245   3.268  19.695  0.00  0.00    +0.000 HD
ENDBRANCH  10  15
BRANCH   7  17
ATOM     17  C   UNL     1       5.424   5.623  18.615  0.00  0.00    +0.000 C 
BRANCH  17  18
ATOM     18  C   UNL     1       6.879   5.246  18.845  0.00  0.00    +0.000 C 
ATOM     19  O   UNL     1       7.386   5.444  19.953  0.00  0.00    +0.000 OA
BRANCH  18  21
ATOM     20  C   UNL     1       7.113   4.873  16.352  0.00  0.00    +0.000 C 
ATOM     21  C   UNL     1       7.639   4.538  17.740  0.00  0.00    +0.000 C 
ENDBRANCH  18  21
ENDBRANCH  17  18
ENDBRANCH   7  17
ENDBRANCH   5  11
ENDBRANCH   1   6
BRANCH   2  22
ATOM     22  C   UNL     1       0.095  11.022  20.463  0.00  0.00    +0.000 C 
ATOM     23  C   UNL     1       0.332  12.344  20.517  0.00  0.00    +0.000 C 
BRANCH  23  24
ATOM     24  C   UNL     1      -0.656  13.410  20.123  0.00  0.00    +0.000 C 
ATOM     25  C   UNL     1      -0.271  13.981  18.750  0.00  0.00    +0.000 C 
BRANCH  24  26
ATOM     26  C   UNL     1      -2.070  12.878  20.056  0.00  0.00    +0.000 C 
ATOM     27  C   UNL     1      -3.042  13.049  20.980  0.00  0.00    +0.000 C 
ATOM     28  C   UNL     1      -2.813  13.739  22.307  0.00  0.00    +0.000 C 
BRANCH  27  29
ATOM     29  C   UNL     1      -4.517  12.722  20.730  0.00  0.00    +0.000 C 
ATOM     30  C   UNL     1      -5.486  13.905  20.529  0.00  0.00    +0.000 C 
ATOM     31  C   UNL     1      -6.171  13.948  19.210  0.00  0.00    +0.000 C 
ATOM     32  C   UNL     1      -6.027  12.980  18.299  0.00  0.00    +0.000 C 
ATOM     33  C   UNL     1      -6.818  13.010  17.020  0.00  0.00    +0.000 C 
ATOM     34  C   UNL     1      -5.128  11.779  18.524  0.00  0.00    +0.000 C 
ATOM     35  O   UNL     1      -4.665  11.600  19.865  0.00  0.00    +0.000 OA
BRANCH  34  36
ATOM     36  C   UNL     1      -3.960  11.728  17.524  0.00  0.00    +0.000 C 
ATOM     37  C   UNL     1      -3.991  10.490  16.637  0.00  0.00    +0.000 C 
ENDBRANCH  34  36
ENDBRANCH  27  29
ENDBRANCH  24  26
ENDBRANCH  23  24
ENDBRANCH   2  22
TORSDOF 12
ENDMDL
MODEL 3
REMARK VINA RESULT:      -7.8      1.063      1.186
REMARK  Name = 
REMARK  18 active torsions:
REMARK  status: ('A' for Active; 'I' for Inactive)
REMARK    1  A    between atoms: C_1  and  C_2
REMARK    2  A    between atoms: C_2  and  C_3
REMARK    3  A    between atoms: C_3  and  C_5
REMARK    4  A    between atoms: C_5  and  C_6
REMARK    5  A    between atoms: C_8  and  O_9
REMARK    6  A    between atoms: C_10  and  O_11
REMARK    7  A    between atoms: C_12  and  C_13
REMARK    8  A    between atoms: C_14  and  C_15
REMARK    9  A    between atoms: C_16  and  C_17
REMARK   10  A    between atoms: C_18  and  C_19
REMARK   11  A    between atoms: C_19  and  C_20
REMARK   12  A    between atoms: C_19  and  C_21
REMARK   13  A    between atoms: C_22  and  C_23
REMARK   14  A    between atoms: C_22  and  C_24
REMARK   15  A    between atoms: C_27  and  C_28
REMARK   16  A    between atoms: C_29  and  C_30
REMARK   17  A    between atoms: C_30  and  C_31
REMARK   18  A    between atoms: C_33  and  C_34
REMARK                            x       y       z     vdW  Elec       q    Type
REMARK                         _______ _______ _______ _____ _____    ______ ____
ROOT
ATOM      1  C   UNL     1       0.704   7.841  21.188  0.00  0.00    +0.000 C 
ATOM      2  C   UNL     1       0.954   9.205  20.577  0.00  0.00    +0.000 C 
ATOM      3  C   UNL     1       1.160   8.985  22.054  0.00  0.00    +0.000 C 
ATOM      4  C   UNL     1       0.250   9.534  23.099  0.00  0.00    +0.000 C 
ENDROOT
BRANCH   1   6
ATOM      5  C   UNL     1       1.738   6.137  19.683  0.00  0.00    +0.000 C 
ATOM      6  C   UNL     1       1.632   6.753  20.874  0.00  0.00    +0.000 C 
BRANCH   5  11
ATOM      7  C   UNL     1       4.382   4.209  18.015  0.00  0.00    +0.000 C 
ATOM      8  C   UNL     1       3.718   2.832  17.854  0.00  0.00    +0.000 C 
ATOM      9  C   UNL     1       2.753   2.503  18.987  0.00  0.00    +0.000 C 
ATOM     10  C   UNL     1       1.779   3.663  19.247  0.00  0.00    +0.000 C 
ATOM     11  C   UNL     1       2.613   4.945  19.435  0.00  0.00    +0.000 C 
ATOM     12  O   UNL     1       3.371   5.198  18.243  0.00  0.00    +0.000 OA
BRANCH   9  13
ATOM     13  O   UNL     1       2.052   1.299  18.668  0.00  0.00    +0.000 OA
ATOM     14  H   UNL     1       1.266   1.243  19.241  0.00  0.00    +0.000 HD
ENDBRANCH   9  13
BRANCH  10  15
ATOM     15  O   UNL     1       0.943   3.375  20.372  0.00  0.00    +0.000 OA
ATOM     16  H   UNL     1       0.174   3.968  20.351  0.00  0.00    +0.000 HD
ENDBRANCH  10  15
BRANCH   7  17
ATOM     17  C   UNL     1       5.139   4.536  16.724  0.00  0.00    +0.000 C 
BRANCH  17  18
ATOM     18  C   UNL     1       6.429   5.331  16.856  0.00  0.00    +0.000 C 
ATOM     19  O   UNL     1       6.513   6.438  16.317  0.00  0.00    +0.000 OA
BRANCH  18  21
ATOM     20  C   UNL     1       7.816   5.669  18.947  0.00  0.00    +0.000 C 
ATOM     21  C   UNL     1       7.538   4.790  17.737  0.00  0.00    +0.000 C 
ENDBRANCH  18  21
ENDBRANCH  17  18
ENDBRANCH   7  17
ENDBRANCH   5  11
ENDBRANCH   1   6
BRANCH   2  22
ATOM     22  C   UNL     1      -0.201   9.916  20.016  0.00  0.00    +0.000 C 
ATOM     23  C   UNL     1      -0.197  10.542  18.826  0.00  0.00    +0.000 C 
BRANCH  23  24
ATOM     24  C   UNL     1      -1.315  11.405  18.306  0.00  0.00    +0.000 C 
ATOM     25  C   UNL     1      -2.069  10.652  17.200  0.00  0.00    +0.000 C 
BRANCH  24  26
ATOM     26  C   UNL     1      -2.292  11.786  19.396  0.00  0.00    +0.000 C 
ATOM     27  C   UNL     1      -2.278  12.921  20.132  0.00  0.00    +0.000 C 
ATOM     28  C   UNL     1      -1.184  13.961  20.033  0.00  0.00    +0.000 C 
BRANCH  27  29
ATOM     29  C   UNL     1      -3.442  13.369  21.022  0.00  0.00    +0.000 C 
ATOM     30  C   UNL     1      -3.654  14.884  21.208  0.00  0.00    +0.000 C 
ATOM     31  C   UNL     1      -4.962  15.406  20.727  0.00  0.00    +0.000 C 
ATOM     32  C   UNL     1      -5.919  14.603  20.252  0.00  0.00    +0.000 C 
ATOM     33  C   UNL     1      -7.265  15.159  19.874  0.00  0.00    +0.000 C 
ATOM     34  C   UNL     1      -5.737  13.102  20.134  0.00  0.00    +0.000 C 
ATOM     35  O   UNL     1      -4.599  12.565  20.814  0.00  0.00    +0.000 OA
BRANCH  34  36
ATOM     36  C   UNL     1      -5.788  12.621  18.673  0.00  0.00    +0.000 C 
ATOM     37  C   UNL     1      -5.868  11.104  18.551  0.00  0.00    +0.000 C 
ENDBRANCH  34  36
ENDBRANCH  27  29
ENDBRANCH  24  26
ENDBRANCH  23  24
ENDBRANCH   2  22
TORSDOF 12
ENDMDL
MODEL 4
REMARK VINA RESULT:      -7.8      1.859      2.650
REMARK  Name = 
REMARK  18 active torsions:
REMARK  status: ('A' for Active; 'I' for Inactive)
REMARK    1  A    between atoms: C_1  and  C_2
REMARK    2  A    between atoms: C_2  and  C_3
REMARK    3  A    between atoms: C_3  and  C_5
REMARK    4  A    between atoms: C_5  and  C_6
REMARK    5  A    between atoms: C_8  and  O_9
REMARK    6  A    between atoms: C_10  and  O_11
REMARK    7  A    between atoms: C_12  and  C_13
REMARK    8  A    between atoms: C_14  and  C_15
REMARK    9  A    between atoms: C_16  and  C_17
REMARK   10  A    between atoms: C_18  and  C_19
REMARK   11  A    between atoms: C_19  and  C_20
REMARK   12  A    between atoms: C_19  and  C_21
REMARK   13  A    between atoms: C_22  and  C_23
REMARK   14  A    between atoms: C_22  and  C_24
REMARK   15  A    between atoms: C_27  and  C_28
REMARK   16  A    between atoms: C_29  and  C_30
REMARK   17  A    between atoms: C_30  and  C_31
REMARK   18  A    between atoms: C_33  and  C_34
REMARK                            x       y       z     vdW  Elec       q    Type
REMARK                         _______ _______ _______ _____ _____    ______ ____
ROOT
ATOM      1  C   UNL     1       1.574   8.940  18.816  0.00  0.00    +0.000 C 
ATOM      2  C   UNL     1       0.548   9.455  17.828  0.00  0.00    +0.000 C 
ATOM      3  C   UNL     1       1.940  10.031  17.845  0.00  0.00    +0.000 C 
ATOM      4  C   UNL     1       2.256  11.398  18.348  0.00  0.00    +0.000 C 
ENDROOT
BRANCH   1   6
ATOM      5  C   UNL     1       2.448   6.742  19.615  0.00  0.00    +0.000 C 
ATOM      6  C   UNL     1       2.110   7.590  18.629  0.00  0.00    +0.000 C 
BRANCH   5  11
ATOM      7  C   UNL     1       4.931   4.434  18.200  0.00  0.00    +0.000 C 
ATOM      8  C   UNL     1       4.056   3.240  17.785  0.00  0.00    +0.000 C 
ATOM      9  C   UNL     1       2.857   3.037  18.703  0.00  0.00    +0.000 C 
ATOM     10  C   UNL     1       2.094   4.352  18.926  0.00  0.00    +0.000 C 
ATOM     11  C   UNL     1       3.110   5.415  19.385  0.00  0.00    +0.000 C 
ATOM     12  O   UNL     1       4.105   5.592  18.367  0.00  0.00    +0.000 OA
BRANCH   9  13
ATOM     13  O   UNL     1       2.008   2.031  18.146  0.00  0.00    +0.000 OA
ATOM     14  H   UNL     1       2.122   1.214  18.665  0.00  0.00    +0.000 HD
ENDBRANCH   9  13
BRANCH  10  15
ATOM     15  O   UNL     1       1.028   4.161  19.862  0.00  0.00    +0.000 OA
ATOM     16  H   UNL     1       0.319   3.655  19.432  0.00  0.00    +0.000 HD
ENDBRANCH  10  15
BRANCH   7  17
ATOM     17  C   UNL     1       5.959   4.691  17.092  0.00  0.00    +0.000 C 
BRANCH  17  18
ATOM     18  C   UNL     1       6.132   6.127  16.622  0.00  0.00    +0.000 C 
ATOM     19  O   UNL     1       5.469   6.532  15.663  0.00  0.00    +0.000 OA
BRANCH  18  21
ATOM     20  C   UNL     1       7.773   6.344  18.538  0.00  0.00    +0.000 C 
ATOM     21  C   UNL     1       7.034   7.054  17.413  0.00  0.00    +0.000 C 
ENDBRANCH  18  21
ENDBRANCH  17  18
ENDBRANCH   7  17
ENDBRANCH   5  11
ENDBRANCH   1   6
BRANCH   2  22
ATOM     22  C   UNL     1      -0.625  10.150  18.371  0.00  0.00    +0.000 C 
ATOM     23  C   UNL     1      -1.613  10.666  17.619  0.00  0.00    +0.000 C 
BRANCH  23  24
ATOM     24  C   UNL     1      -2.739  11.515  18.146  0.00  0.00    +0.000 C 
ATOM     25  C   UNL     1      -4.081  10.926  17.686  0.00  0.00    +0.000 C 
BRANCH  24  26
ATOM     26  C   UNL     1      -2.730  11.597  19.656  0.00  0.00    +0.000 C 
ATOM     27  C   UNL     1      -2.131  12.548  20.409  0.00  0.00    +0.000 C 
ATOM     28  C   UNL     1      -1.270  13.647  19.827  0.00  0.00    +0.000 C 
BRANCH  27  29
ATOM     29  C   UNL     1      -2.386  12.727  21.909  0.00  0.00    +0.000 C 
ATOM     30  C   UNL     1      -1.858  14.015  22.572  0.00  0.00    +0.000 C 
ATOM     31  C   UNL     1      -2.899  14.890  23.176  0.00  0.00    +0.000 C 
ATOM     32  C   UNL     1      -4.188  14.539  23.220  0.00  0.00    +0.000 C 
ATOM     33  C   UNL     1      -5.192  15.405  23.932  0.00  0.00    +0.000 C 
ATOM     34  C   UNL     1      -4.698  13.239  22.629  0.00  0.00    +0.000 C 
ATOM     35  O   UNL     1      -3.690  12.288  22.275  0.00  0.00    +0.000 OA
BRANCH  34  36
ATOM     36  C   UNL     1      -5.676  13.470  21.465  0.00  0.00    +0.000 C 
ATOM     37  C   UNL     1      -6.212  12.172  20.874  0.00  0.00    +0.000 C 
ENDBRANCH  34  36
ENDBRANCH  27  29
ENDBRANCH  24  26
ENDBRANCH  23  24
ENDBRANCH   2  22
TORSDOF 12
ENDMDL
MODEL 5
REMARK VINA RESULT:      -7.7      2.046      3.429
REMARK  Name = 
REMARK  18 active torsions:
REMARK  status: ('A' for Active; 'I' for Inactive)
REMARK    1  A    between atoms: C_1  and  C_2
REMARK    2  A    between atoms: C_2  and  C_3
REMARK    3  A    between atoms: C_3  and  C_5
REMARK    4  A    between atoms: C_5  and  C_6
REMARK    5  A    between atoms: C_8  and  O_9
REMARK    6  A    between atoms: C_10  and  O_11
REMARK    7  A    between atoms: C_12  and  C_13
REMARK    8  A    between atoms: C_14  and  C_15
REMARK    9  A    between atoms: C_16  and  C_17
REMARK   10  A    between atoms: C_18  and  C_19
REMARK   11  A    between atoms: C_19  and  C_20
REMARK   12  A    between atoms: C_19  and  C_21
REMARK   13  A    between atoms: C_22  and  C_23
REMARK   14  A    between atoms: C_22  and  C_24
REMARK   15  A    between atoms: C_27  and  C_28
REMARK   16  A    between atoms: C_29  and  C_30
REMARK   17  A    between atoms: C_30  and  C_31
REMARK   18  A    between atoms: C_33  and  C_34
REMARK                            x       y       z     vdW  Elec       q    Type
REMARK                         _______ _______ _______ _____ _____    ______ ____
ROOT
ATOM      1  C   UNL     1       1.526   9.057  18.809  0.00  0.00    +0.000 C 
ATOM      2  C   UNL     1       0.520   9.597  17.812  0.00  0.00    +0.000 C 
ATOM      3  C   UNL     1       1.903  10.191  17.892  0.00  0.00    +0.000 C 
ATOM      4  C   UNL     1       2.183  11.541  18.457  0.00  0.00    +0.000 C 
ENDROOT
BRANCH   1   6
ATOM      5  C   UNL     1       2.349   6.817  19.541  0.00  0.00    +0.000 C 
ATOM      6  C   UNL     1       2.088   7.724  18.584  0.00  0.00    +0.000 C 
BRANCH   5  11
ATOM      7  C   UNL     1       4.670   4.524  17.852  0.00  0.00    +0.000 C 
ATOM      8  C   UNL     1       3.810   3.259  17.696  0.00  0.00    +0.000 C 
ATOM      9  C   UNL     1       2.816   3.074  18.836  0.00  0.00    +0.000 C 
ATOM     10  C   UNL     1       2.025   4.364  19.104  0.00  0.00    +0.000 C 
ATOM     11  C   UNL     1       3.039   5.509  19.286  0.00  0.00    +0.000 C 
ATOM     12  O   UNL     1       3.817   5.650  18.088  0.00  0.00    +0.000 OA
BRANCH   9  13
ATOM     13  O   UNL     1       1.944   1.985  18.523  0.00  0.00    +0.000 OA
ATOM     14  H   UNL     1       1.665   2.075  17.594  0.00  0.00    +0.000 HD
ENDBRANCH   9  13
BRANCH  10  15
ATOM     15  O   UNL     1       1.164   4.199  20.235  0.00  0.00    +0.000 OA
ATOM     16  H   UNL     1       0.241   4.245  19.936  0.00  0.00    +0.000 HD
ENDBRANCH  10  15
BRANCH   7  17
ATOM     17  C   UNL     1       5.457   4.739  16.555  0.00  0.00    +0.000 C 
BRANCH  17  18
ATOM     18  C   UNL     1       6.870   5.287  16.681  0.00  0.00    +0.000 C 
ATOM     19  O   UNL     1       7.765   4.817  15.971  0.00  0.00    +0.000 OA
BRANCH  18  21
ATOM     20  C   UNL     1       7.864   6.084  18.868  0.00  0.00    +0.000 C 
ATOM     21  C   UNL     1       7.120   6.468  17.598  0.00  0.00    +0.000 C 
ENDBRANCH  18  21
ENDBRANCH  17  18
ENDBRANCH   7  17
ENDBRANCH   5  11
ENDBRANCH   1   6
BRANCH   2  22
ATOM     22  C   UNL     1      -0.678  10.253  18.348  0.00  0.00    +0.000 C 
ATOM     23  C   UNL     1      -1.690  10.713  17.591  0.00  0.00    +0.000 C 
BRANCH  23  24
ATOM     24  C   UNL     1      -2.847  11.525  18.108  0.00  0.00    +0.000 C 
ATOM     25  C   UNL     1      -4.145  10.716  17.959  0.00  0.00    +0.000 C 
BRANCH  24  26
ATOM     26  C   UNL     1      -2.670  11.908  19.561  0.00  0.00    +0.000 C 
ATOM     27  C   UNL     1      -3.548  12.592  20.328  0.00  0.00    +0.000 C 
ATOM     28  C   UNL     1      -4.836  13.178  19.794  0.00  0.00    +0.000 C 
BRANCH  27  29
ATOM     29  C   UNL     1      -3.431  12.709  21.851  0.00  0.00    +0.000 C 
ATOM     30  C   UNL     1      -2.133  12.197  22.507  0.00  0.00    +0.000 C 
ATOM     31  C   UNL     1      -1.344  13.224  23.240  0.00  0.00    +0.000 C 
ATOM     32  C   UNL     1      -1.777  14.479  23.394  0.00  0.00    +0.000 C 
ATOM     33  C   UNL     1      -0.998  15.458  24.230  0.00  0.00    +0.000 C 
ATOM     34  C   UNL     1      -3.088  14.966  22.808  0.00  0.00    +0.000 C 
ATOM     35  O   UNL     1      -3.962  13.943  22.324  0.00  0.00    +0.000 OA
BRANCH  34  36
ATOM     36  C   UNL     1      -2.884  16.066  21.752  0.00  0.00    +0.000 C 
ATOM     37  C   UNL     1      -4.195  16.588  21.177  0.00  0.00    +0.000 C 
ENDBRANCH  34  36
ENDBRANCH  27  29
ENDBRANCH  24  26
ENDBRANCH  23  24
ENDBRANCH   2  22
TORSDOF 12
ENDMDL
MODEL 6
REMARK VINA RESULT:      -7.7      1.651      2.111
REMARK  Name = 
REMARK  18 active torsions:
REMARK  status: ('A' for Active; 'I' for Inactive)
REMARK    1  A    between atoms: C_1  and  C_2
REMARK    2  A    between atoms: C_2  and  C_3
REMARK    3  A    between atoms: C_3  and  C_5
REMARK    4  A    between atoms: C_5  and  C_6
REMARK    5  A    between atoms: C_8  and  O_9
REMARK    6  A    between atoms: C_10  and  O_11
REMARK    7  A    between atoms: C_12  and  C_13
REMARK    8  A    between atoms: C_14  and  C_15
REMARK    9  A    between atoms: C_16  and  C_17
REMARK   10  A    between atoms: C_18  and  C_19
REMARK   11  A    between atoms: C_19  and  C_20
REMARK   12  A    between atoms: C_19  and  C_21
REMARK   13  A    between atoms: C_22  and  C_23
REMARK   14  A    between atoms: C_22  and  C_24
REMARK   15  A    between atoms: C_27  and  C_28
REMARK   16  A    between atoms: C_29  and  C_30
REMARK   17  A    between atoms: C_30  and  C_31
REMARK   18  A    between atoms: C_33  and  C_34
REMARK                            x       y       z     vdW  Elec       q    Type
REMARK                         _______ _______ _______ _____ _____    ______ ____
ROOT
ATOM      1  C   UNL     1       0.622   8.319  21.193  0.00  0.00    +0.000 C 
ATOM      2  C   UNL     1       1.020   9.772  21.030  0.00  0.00    +0.000 C 
ATOM      3  C   UNL     1       0.995   9.142  22.398  0.00  0.00    +0.000 C 
ATOM      4  C   UNL     1      -0.034   9.460  23.428  0.00  0.00    +0.000 C 
ENDROOT
BRANCH   1   6
ATOM      5  C   UNL     1       1.369   5.960  20.865  0.00  0.00    +0.000 C 
ATOM      6  C   UNL     1       1.537   7.284  20.709  0.00  0.00    +0.000 C 
BRANCH   5  11
ATOM      7  C   UNL     1       4.450   4.738  19.282  0.00  0.00    +0.000 C 
ATOM      8  C   UNL     1       3.966   3.451  18.594  0.00  0.00    +0.000 C 
ATOM      9  C   UNL     1       2.847   2.755  19.360  0.00  0.00    +0.000 C 
ATOM     10  C   UNL     1       1.733   3.741  19.744  0.00  0.00    +0.000 C 
ATOM     11  C   UNL     1       2.388   4.935  20.464  0.00  0.00    +0.000 C 
ATOM     12  O   UNL     1       3.323   5.570  19.579  0.00  0.00    +0.000 OA
BRANCH   9  13
ATOM     13  O   UNL     1       2.339   1.679  18.568  0.00  0.00    +0.000 OA
ATOM     14  H   UNL     1       2.748   1.730  17.685  0.00  0.00    +0.000 HD
ENDBRANCH   9  13
BRANCH  10  15
ATOM     15  O   UNL     1       0.738   3.090  20.540  0.00  0.00    +0.000 OA
ATOM     16  H   UNL     1       0.894   2.131  20.515  0.00  0.00    +0.000 HD
ENDBRANCH  10  15
BRANCH   7  17
ATOM     17  C   UNL     1       5.395   5.473  18.326  0.00  0.00    +0.000 C 
BRANCH  17  18
ATOM     18  C   UNL     1       4.760   6.256  17.187  0.00  0.00    +0.000 C 
ATOM     19  O   UNL     1       3.886   7.090  17.441  0.00  0.00    +0.000 OA
BRANCH  18  21
ATOM     20  C   UNL     1       5.421   4.606  15.385  0.00  0.00    +0.000 C 
ATOM     21  C   UNL     1       5.294   6.069  15.780  0.00  0.00    +0.000 C 
ENDBRANCH  18  21
ENDBRANCH  17  18
ENDBRANCH   7  17
ENDBRANCH   5  11
ENDBRANCH   1   6
BRANCH   2  22
ATOM     22  C   UNL     1      -0.005  10.704  20.546  0.00  0.00    +0.000 C 
ATOM     23  C   UNL     1       0.072  12.041  20.667  0.00  0.00    +0.000 C 
BRANCH  23  24
ATOM     24  C   UNL     1      -1.036  12.999  20.320  0.00  0.00    +0.000 C 
ATOM     25  C   UNL     1      -1.393  12.851  18.833  0.00  0.00    +0.000 C 
BRANCH  24  26
ATOM     26  C   UNL     1      -2.277  12.758  21.150  0.00  0.00    +0.000 C 
ATOM     27  C   UNL     1      -2.435  13.034  22.465  0.00  0.00    +0.000 C 
ATOM     28  C   UNL     1      -1.318  13.550  23.345  0.00  0.00    +0.000 C 
BRANCH  27  29
ATOM     29  C   UNL     1      -3.792  13.021  23.177  0.00  0.00    +0.000 C 
ATOM     30  C   UNL     1      -4.285  14.345  23.795  0.00  0.00    +0.000 C 
ATOM     31  C   UNL     1      -5.561  14.869  23.238  0.00  0.00    +0.000 C 
ATOM     32  C   UNL     1      -6.275  14.192  22.332  0.00  0.00    +0.000 C 
ATOM     33  C   UNL     1      -7.611  14.708  21.873  0.00  0.00    +0.000 C 
ATOM     34  C   UNL     1      -5.825  12.856  21.775  0.00  0.00    +0.000 C 
ATOM     35  O   UNL     1      -4.745  12.231  22.473  0.00  0.00    +0.000 OA
BRANCH  34  36
ATOM     36  C   UNL     1      -5.545  12.917  20.263  0.00  0.00    +0.000 C 
ATOM     37  C   UNL     1      -6.062  11.695  19.514  0.00  0.00    +0.000 C 
ENDBRANCH  34  36
ENDBRANCH  27  29
ENDBRANCH  24  26
ENDBRANCH  23  24
ENDBRANCH   2  22
TORSDOF 12
ENDMDL
MODEL 7
REMARK VINA RESULT:      -7.6      2.281      4.481
REMARK  Name = 
REMARK  18 active torsions:
REMARK  status: ('A' for Active; 'I' for Inactive)
REMARK    1  A    between atoms: C_1  and  C_2
REMARK    2  A    between atoms: C_2  and  C_3
REMARK    3  A    between atoms: C_3  and  C_5
REMARK    4  A    between atoms: C_5  and  C_6
REMARK    5  A    between atoms: C_8  and  O_9
REMARK    6  A    between atoms: C_10  and  O_11
REMARK    7  A    between atoms: C_12  and  C_13
REMARK    8  A    between atoms: C_14  and  C_15
REMARK    9  A    between atoms: C_16  and  C_17
REMARK   10  A    between atoms: C_18  and  C_19
REMARK   11  A    between atoms: C_19  and  C_20
REMARK   12  A    between atoms: C_19  and  C_21
REMARK   13  A    between atoms: C_22  and  C_23
REMARK   14  A    between atoms: C_22  and  C_24
REMARK   15  A    between atoms: C_27  and  C_28
REMARK   16  A    between atoms: C_29  and  C_30
REMARK   17  A    between atoms: C_30  and  C_31
REMARK   18  A    between atoms: C_33  and  C_34
REMARK                            x       y       z     vdW  Elec       q    Type
REMARK                         _______ _______ _______ _____ _____    ______ ____
ROOT
ATOM      1  C   UNL     1       1.549   9.007  18.633  0.00  0.00    +0.000 C 
ATOM      2  C   UNL     1       0.449   9.631  17.798  0.00  0.00    +0.000 C 
ATOM      3  C   UNL     1       1.848  10.190  17.751  0.00  0.00    +0.000 C 
ATOM      4  C   UNL     1       2.230  11.494  18.362  0.00  0.00    +0.000 C 
ENDROOT
BRANCH   1   6
ATOM      5  C   UNL     1       3.327   7.368  18.011  0.00  0.00    +0.000 C 
ATOM      6  C   UNL     1       2.043   7.680  18.261  0.00  0.00    +0.000 C 
BRANCH   5  11
ATOM      7  C   UNL     1       3.422   3.698  17.880  0.00  0.00    +0.000 C 
ATOM      8  C   UNL     1       4.931   3.423  17.781  0.00  0.00    +0.000 C 
ATOM      9  C   UNL     1       5.682   4.507  17.018  0.00  0.00    +0.000 C 
ATOM     10  C   UNL     1       5.314   5.908  17.529  0.00  0.00    +0.000 C 
ATOM     11  C   UNL     1       3.778   6.027  17.513  0.00  0.00    +0.000 C 
ATOM     12  O   UNL     1       3.215   5.027  18.373  0.00  0.00    +0.000 OA
BRANCH   9  13
ATOM     13  O   UNL     1       7.087   4.267  17.128  0.00  0.00    +0.000 OA
ATOM     14  H   UNL     1       7.227   3.578  17.803  0.00  0.00    +0.000 HD
ENDBRANCH   9  13
BRANCH  10  15
ATOM     15  O   UNL     1       5.957   6.915  16.742  0.00  0.00    +0.000 OA
ATOM     16  H   UNL     1       5.992   7.740  17.255  0.00  0.00    +0.000 HD
ENDBRANCH  10  15
BRANCH   7  17
ATOM     17  C   UNL     1       2.807   2.687  18.854  0.00  0.00    +0.000 C 
BRANCH  17  18
ATOM     18  C   UNL     1       1.336   2.859  19.198  0.00  0.00    +0.000 C 
ATOM     19  O   UNL     1       0.480   2.514  18.378  0.00  0.00    +0.000 OA
BRANCH  18  21
ATOM     20  C   UNL     1       2.158   3.495  21.506  0.00  0.00    +0.000 C 
ATOM     21  C   UNL     1       0.958   3.349  20.582  0.00  0.00    +0.000 C 
ENDBRANCH  18  21
ENDBRANCH  17  18
ENDBRANCH   7  17
ENDBRANCH   5  11
ENDBRANCH   1   6
BRANCH   2  22
ATOM     22  C   UNL     1      -0.659  10.275  18.512  0.00  0.00    +0.000 C 
ATOM     23  C   UNL     1      -1.456  11.217  17.977  0.00  0.00    +0.000 C 
BRANCH  23  24
ATOM     24  C   UNL     1      -2.492  11.998  18.740  0.00  0.00    +0.000 C 
ATOM     25  C   UNL     1      -3.875  11.368  18.514  0.00  0.00    +0.000 C 
BRANCH  24  26
ATOM     26  C   UNL     1      -2.203  12.029  20.224  0.00  0.00    +0.000 C 
ATOM     27  C   UNL     1      -1.403  12.906  20.872  0.00  0.00    +0.000 C 
ATOM     28  C   UNL     1      -0.576  13.956  20.163  0.00  0.00    +0.000 C 
BRANCH  27  29
ATOM     29  C   UNL     1      -1.366  13.054  22.396  0.00  0.00    +0.000 C 
ATOM     30  C   UNL     1      -0.661  14.297  22.975  0.00  0.00    +0.000 C 
ATOM     31  C   UNL     1      -1.526  15.201  23.779  0.00  0.00    +0.000 C 
ATOM     32  C   UNL     1      -2.801  14.908  24.056  0.00  0.00    +0.000 C 
ATOM     33  C   UNL     1      -3.611  15.799  24.959  0.00  0.00    +0.000 C 
ATOM     34  C   UNL     1      -3.476  13.650  23.545  0.00  0.00    +0.000 C 
ATOM     35  O   UNL     1      -2.601  12.665  22.990  0.00  0.00    +0.000 OA
BRANCH  34  36
ATOM     36  C   UNL     1      -4.640  13.959  22.588  0.00  0.00    +0.000 C 
ATOM     37  C   UNL     1      -4.267  14.961  21.503  0.00  0.00    +0.000 C 
ENDBRANCH  34  36
ENDBRANCH  27  29
ENDBRANCH  24  26
ENDBRANCH  23  24
ENDBRANCH   2  22
TORSDOF 12
ENDMDL
MODEL 8
REMARK VINA RESULT:      -7.6      2.070      2.672
REMARK  Name = 
REMARK  18 active torsions:
REMARK  status: ('A' for Active; 'I' for Inactive)
REMARK    1  A    between atoms: C_1  and  C_2
REMARK    2  A    between atoms: C_2  and  C_3
REMARK    3  A    between atoms: C_3  and  C_5
REMARK    4  A    between atoms: C_5  and  C_6
REMARK    5  A    between atoms: C_8  and  O_9
REMARK    6  A    between atoms: C_10  and  O_11
REMARK    7  A    between atoms: C_12  and  C_13
REMARK    8  A    between atoms: C_14  and  C_15
REMARK    9  A    between atoms: C_16  and  C_17
REMARK   10  A    between atoms: C_18  and  C_19
REMARK   11  A    between atoms: C_19  and  C_20
REMARK   12  A    between atoms: C_19  and  C_21
REMARK   13  A    between atoms: C_22  and  C_23
REMARK   14  A    between atoms: C_22  and  C_24
REMARK   15  A    between atoms: C_27  and  C_28
REMARK   16  A    between atoms: C_29  and  C_30
REMARK   17  A    between atoms: C_30  and  C_31
REMARK   18  A    between atoms: C_33  and  C_34
REMARK                            x       y       z     vdW  Elec       q    Type
REMARK                         _______ _______ _______ _____ _____    ______ ____
ROOT
ATOM      1  C   UNL     1       0.817   8.365  20.959  0.00  0.00    +0.000 C 
ATOM      2  C   UNL     1       1.392   9.766  20.907  0.00  0.00    +0.000 C 
ATOM      3  C   UNL     1       1.272   9.043  22.224  0.00  0.00    +0.000 C 
ATOM      4  C   UNL     1       0.277   9.408  23.271  0.00  0.00    +0.000 C 
ENDROOT
BRANCH   1   6
ATOM      5  C   UNL     1       1.550   5.983  20.806  0.00  0.00    +0.000 C 
ATOM      6  C   UNL     1       1.605   7.264  20.402  0.00  0.00    +0.000 C 
BRANCH   5  11
ATOM      7  C   UNL     1       4.269   4.577  18.776  0.00  0.00    +0.000 C 
ATOM      8  C   UNL     1       3.645   3.265  18.272  0.00  0.00    +0.000 C 
ATOM      9  C   UNL     1       2.672   2.650  19.272  0.00  0.00    +0.000 C 
ATOM     10  C   UNL     1       1.665   3.690  19.785  0.00  0.00    +0.000 C 
ATOM     11  C   UNL     1       2.461   4.907  20.295  0.00  0.00    +0.000 C 
ATOM     12  O   UNL     1       3.229   5.458  19.216  0.00  0.00    +0.000 OA
BRANCH   9  13
ATOM     13  O   UNL     1       2.009   1.543  18.657  0.00  0.00    +0.000 OA
ATOM     14  H   UNL     1       2.466   0.726  18.925  0.00  0.00    +0.000 HD
ENDBRANCH   9  13
BRANCH  10  15
ATOM     15  O   UNL     1       0.820   3.119  20.789  0.00  0.00    +0.000 OA
ATOM     16  H   UNL     1       0.025   2.758  20.362  0.00  0.00    +0.000 HD
ENDBRANCH  10  15
BRANCH   7  17
ATOM     17  C   UNL     1       5.036   5.224  17.618  0.00  0.00    +0.000 C 
BRANCH  17  18
ATOM     18  C   UNL     1       6.332   4.558  17.183  0.00  0.00    +0.000 C 
ATOM     19  O   UNL     1       6.353   3.904  16.136  0.00  0.00    +0.000 OA
BRANCH  18  21
ATOM     20  C   UNL     1       7.660   6.209  18.569  0.00  0.00    +0.000 C 
ATOM     21  C   UNL     1       7.591   4.802  17.992  0.00  0.00    +0.000 C 
ENDBRANCH  18  21
ENDBRANCH  17  18
ENDBRANCH   7  17
ENDBRANCH   5  11
ENDBRANCH   1   6
BRANCH   2  22
ATOM     22  C   UNL     1       0.494  10.849  20.492  0.00  0.00    +0.000 C 
ATOM     23  C   UNL     1       0.843  12.148  20.456  0.00  0.00    +0.000 C 
BRANCH  23  24
ATOM     24  C   UNL     1      -0.106  13.284  20.184  0.00  0.00    +0.000 C 
ATOM     25  C   UNL     1      -0.031  13.668  18.699  0.00  0.00    +0.000 C 
BRANCH  24  26
ATOM     26  C   UNL     1      -1.535  12.927  20.529  0.00  0.00    +0.000 C 
ATOM     27  C   UNL     1      -2.109  12.987  21.752  0.00  0.00    +0.000 C 
ATOM     28  C   UNL     1      -1.347  13.337  23.011  0.00  0.00    +0.000 C 
BRANCH  27  29
ATOM     29  C   UNL     1      -3.619  12.875  21.986  0.00  0.00    +0.000 C 
ATOM     30  C   UNL     1      -4.097  12.584  23.422  0.00  0.00    +0.000 C 
ATOM     31  C   UNL     1      -4.960  13.632  24.029  0.00  0.00    +0.000 C 
ATOM     32  C   UNL     1      -5.366  14.707  23.344  0.00  0.00    +0.000 C 
ATOM     33  C   UNL     1      -6.322  15.690  23.962  0.00  0.00    +0.000 C 
ATOM     34  C   UNL     1      -4.952  14.959  21.907  0.00  0.00    +0.000 C 
ATOM     35  O   UNL     1      -4.338  13.852  21.241  0.00  0.00    +0.000 OA
BRANCH  34  36
ATOM     36  C   UNL     1      -4.105  16.235  21.758  0.00  0.00    +0.000 C 
ATOM     37  C   UNL     1      -4.151  16.817  20.351  0.00  0.00    +0.000 C 
ENDBRANCH  34  36
ENDBRANCH  27  29
ENDBRANCH  24  26
ENDBRANCH  23  24
ENDBRANCH   2  22
TORSDOF 12
ENDMDL
MODEL 9
REMARK VINA RESULT:      -7.6      1.771      2.582
REMARK  Name = 
REMARK  18 active torsions:
REMARK  status: ('A' for Active; 'I' for Inactive)
REMARK    1  A    between atoms: C_1  and  C_2
REMARK    2  A    between atoms: C_2  and  C_3
REMARK    3  A    between atoms: C_3  and  C_5
REMARK    4  A    between atoms: C_5  and  C_6
REMARK    5  A    between atoms: C_8  and  O_9
REMARK    6  A    between atoms: C_10  and  O_11
REMARK    7  A    between atoms: C_12  and  C_13
REMARK    8  A    between atoms: C_14  and  C_15
REMARK    9  A    between atoms: C_16  and  C_17
REMARK   10  A    between atoms: C_18  and  C_19
REMARK   11  A    between atoms: C_19  and  C_20
REMARK   12  A    between atoms: C_19  and  C_21
REMARK   13  A    between atoms: C_22  and  C_23
REMARK   14  A    between atoms: C_22  and  C_24
REMARK   15  A    between atoms: C_27  and  C_28
REMARK   16  A    between atoms: C_29  and  C_30
REMARK   17  A    between atoms: C_30  and  C_31
REMARK   18  A    between atoms: C_33  and  C_34
REMARK                            x       y       z     vdW  Elec       q    Type
REMARK                         _______ _______ _______ _____ _____    ______ ____
ROOT
ATOM      1  C   UNL     1       0.603   8.360  21.133  0.00  0.00    +0.000 C 
ATOM      2  C   UNL     1       1.166   9.761  21.010  0.00  0.00    +0.000 C 
ATOM      3  C   UNL     1       0.811   9.202  22.364  0.00  0.00    +0.000 C 
ATOM      4  C   UNL     1      -0.364   9.661  23.157  0.00  0.00    +0.000 C 
ENDROOT
BRANCH   1   6
ATOM      5  C   UNL     1       1.561   6.539  19.718  0.00  0.00    +0.000 C 
ATOM      6  C   UNL     1       1.490   7.224  20.872  0.00  0.00    +0.000 C 
BRANCH   5  11
ATOM      7  C   UNL     1       4.105   4.422  18.125  0.00  0.00    +0.000 C 
ATOM      8  C   UNL     1       3.393   3.060  18.065  0.00  0.00    +0.000 C 
ATOM      9  C   UNL     1       2.443   2.836  19.235  0.00  0.00    +0.000 C 
ATOM     10  C   UNL     1       1.513   4.043  19.440  0.00  0.00    +0.000 C 
ATOM     11  C   UNL     1       2.392   5.305  19.529  0.00  0.00    +0.000 C 
ATOM     12  O   UNL     1       3.132   5.457  18.309  0.00  0.00    +0.000 OA
BRANCH   9  13
ATOM     13  O   UNL     1       1.697   1.638  19.008  0.00  0.00    +0.000 OA
ATOM     14  H   UNL     1       1.146   1.468  19.794  0.00  0.00    +0.000 HD
ENDBRANCH   9  13
BRANCH  10  15
ATOM     15  O   UNL     1       0.693   3.854  20.597  0.00  0.00    +0.000 OA
ATOM     16  H   UNL     1      -0.120   4.377  20.494  0.00  0.00    +0.000 HD
ENDBRANCH  10  15
BRANCH   7  17
ATOM     17  C   UNL     1       4.844   4.641  16.801  0.00  0.00    +0.000 C 
BRANCH  17  18
ATOM     18  C   UNL     1       5.673   5.909  16.669  0.00  0.00    +0.000 C 
ATOM     19  O   UNL     1       5.473   6.664  15.712  0.00  0.00    +0.000 OA
BRANCH  18  21
ATOM     20  C   UNL     1       7.647   5.157  18.063  0.00  0.00    +0.000 C 
ATOM     21  C   UNL     1       6.648   6.268  17.773  0.00  0.00    +0.000 C 
ENDBRANCH  18  21
ENDBRANCH  17  18
ENDBRANCH   7  17
ENDBRANCH   5  11
ENDBRANCH   1   6
BRANCH   2  22
ATOM     22  C   UNL     1       0.352  10.757  20.304  0.00  0.00    +0.000 C 
ATOM     23  C   UNL     1      -0.742  10.462  19.580  0.00  0.00    +0.000 C 
BRANCH  23  24
ATOM     24  C   UNL     1      -1.496  11.444  18.725  0.00  0.00    +0.000 C 
ATOM     25  C   UNL     1      -1.854  10.786  17.384  0.00  0.00    +0.000 C 
BRANCH  24  26
ATOM     26  C   UNL     1      -2.767  11.922  19.393  0.00  0.00    +0.000 C 
ATOM     27  C   UNL     1      -2.908  13.022  20.166  0.00  0.00    +0.000 C 
ATOM     28  C   UNL     1      -1.750  13.907  20.569  0.00  0.00    +0.000 C 
BRANCH  27  29
ATOM     29  C   UNL     1      -4.266  13.595  20.584  0.00  0.00    +0.000 C 
ATOM     30  C   UNL     1      -5.494  12.669  20.478  0.00  0.00    +0.000 C 
ATOM     31  C   UNL     1      -6.194  12.392  21.761  0.00  0.00    +0.000 C 
ATOM     32  C   UNL     1      -5.837  12.978  22.909  0.00  0.00    +0.000 C 
ATOM     33  C   UNL     1      -6.636  12.751  24.163  0.00  0.00    +0.000 C 
ATOM     34  C   UNL     1      -4.671  13.944  23.001  0.00  0.00    +0.000 C 
ATOM     35  O   UNL     1      -4.155  14.406  21.750  0.00  0.00    +0.000 OA
BRANCH  34  36
ATOM     36  C   UNL     1      -3.544  13.415  23.905  0.00  0.00    +0.000 C 
ATOM     37  C   UNL     1      -3.079  14.438  24.934  0.00  0.00    +0.000 C 
ENDBRANCH  34  36
ENDBRANCH  27  29
ENDBRANCH  24  26
ENDBRANCH  23  24
ENDBRANCH   2  22
TORSDOF 12
ENDMDL
