MODEL 1
REMARK VINA RESULT:      -7.9      0.000      0.000
REMARK  Name = 
REMARK  12 active torsions:
REMARK  status: ('A' for Active; 'I' for Inactive)
REMARK    1  A    between atoms: C_1  and  C_2
REMARK    2  A    between atoms: C_2  and  C_3
REMARK    3  A    between atoms: C_3  and  C_4
REMARK    4  A    between atoms: C_4  and  N_5
REMARK    5  A    between atoms: N_8  and  C_9
REMARK    6  A    between atoms: C_12  and  S_13
REMARK    7  A    between atoms: S_13  and  O_16
REMARK    8  A    between atoms: O_16  and  C_17
REMARK    9  A    between atoms: C_19  and  O_20
REMARK   10  A    between atoms: O_20  and  C_21
REMARK   11  A    between atoms: C_23  and  O_24
REMARK   12  A    between atoms: O_24  and  C_25
REMARK                            x       y       z     vdW  Elec       q    Type
REMARK                         _______ _______ _______ _____ _____    ______ ____
ROOT
ATOM      1  C   UNL     1       2.028   7.525  19.274  0.00  0.00    +0.000 A 
ATOM      2  C   UNL     1       2.567   7.099  18.052  0.00  0.00    +0.000 A 
ATOM      3  C   UNL     1       3.116   5.821  17.913  0.00  0.00    +0.000 A 
ATOM      4  C   UNL     1       3.114   4.948  19.002  0.00  0.00    +0.000 A 
ATOM      5  C   UNL     1       2.598   5.353  20.232  0.00  0.00    +0.000 A 
ATOM      6  C   UNL     1       2.066   6.640  20.364  0.00  0.00    +0.000 A 
ENDROOT
BRANCH   1  10
ATOM      7  N   UNL     1       0.725  10.751  20.315  0.00  0.00    +0.000 N 
ATOM      8  C   UNL     1       0.520  10.884  18.896  0.00  0.00    +0.000 C 
ATOM      9  C   UNL     1       1.380   9.769  18.327  0.00  0.00    +0.000 C 
ATOM     10  N   UNL     1       1.477   8.819  19.414  0.00  0.00    +0.000 N 
ATOM     11  C   UNL     1       1.168   9.462  20.638  0.00  0.00    +0.000 C 
ATOM     12  O   UNL     1       1.291   9.034  21.774  0.00  0.00    +0.000 OA
BRANCH   7  13
ATOM     13  C   UNL     1       0.383  11.773  21.284  0.00  0.00    +0.000 C 
BRANCH  13  14
ATOM     14  C   UNL     1      -1.114  11.902  21.545  0.00  0.00    +0.000 C 
BRANCH  14  16
ATOM     15  C   UNL     1      -2.813  12.040  23.392  0.00  0.00    +0.000 C 
ATOM     16  C   UNL     1      -1.517  11.394  22.929  0.00  0.00    +0.000 C 
ENDBRANCH  14  16
ENDBRANCH  13  14
ENDBRANCH   7  13
ENDBRANCH   1  10
BRANCH   4  17
ATOM     17  S   UNL     1       3.937   3.378  18.852  0.00  0.00    +0.000 S 
ATOM     18  O   UNL     1       3.386   2.549  19.910  0.00  0.00    +0.000 OA
ATOM     19  O   UNL     1       3.822   2.969  17.464  0.00  0.00    +0.000 OA
BRANCH  17  20
ATOM     20  O   UNL     1       5.509   3.710  19.175  0.00  0.00    +0.000 OA
BRANCH  20  21
ATOM     21  C   UNL     1       6.191   4.655  18.442  0.00  0.00    +0.000 A 
ATOM     22  C   UNL     1       6.122   4.558  17.050  0.00  0.00    +0.000 A 
ATOM     23  C   UNL     1       6.789   5.484  16.237  0.00  0.00    +0.000 A 
ATOM     24  C   UNL     1       7.505   6.525  16.832  0.00  0.00    +0.000 A 
ATOM     25  C   UNL     1       7.570   6.637  18.221  0.00  0.00    +0.000 A 
ATOM     26  C   UNL     1       6.903   5.706  19.014  0.00  0.00    +0.000 A 
BRANCH  23  27
ATOM     27  O   UNL     1       6.678   5.267  14.889  0.00  0.00    +0.000 OA
ATOM     28  C   UNL     1       6.028   4.064  14.487  0.00  0.00    +0.000 C 
ENDBRANCH  23  27
BRANCH  25  29
ATOM     29  O   UNL     1       8.309   7.693  18.684  0.00  0.00    +0.000 OA
ATOM     30  C   UNL     1       8.229   8.907  17.939  0.00  0.00    +0.000 C 
ENDBRANCH  25  29
ENDBRANCH  20  21
ENDBRANCH  17  20
ENDBRANCH   4  17
TORSDOF 9
ENDMDL
MODEL 2
REMARK VINA RESULT:      -7.8      3.480     10.039
REMARK  Name = 
REMARK  12 active torsions:
REMARK  status: ('A' for Active; 'I' for Inactive)
REMARK    1  A    between atoms: C_1  and  C_2
REMARK    2  A    between atoms: C_2  and  C_3
REMARK    3  A    between atoms: C_3  and  C_4
REMARK    4  A    between atoms: C_4  and  N_5
REMARK    5  A    between atoms: N_8  and  C_9
REMARK    6  A    between atoms: C_12  and  S_13
REMARK    7  A    between atoms: S_13  and  O_16
REMARK    8  A    between atoms: O_16  and  C_17
REMARK    9  A    between atoms: C_19  and  O_20
REMARK   10  A    between atoms: O_20  and  C_21
REMARK   11  A    between atoms: C_23  and  O_24
REMARK   12  A    between atoms: O_24  and  C_25
REMARK                            x       y       z     vdW  Elec       q    Type
REMARK                         _______ _______ _______ _____ _____    ______ ____
ROOT
ATOM      1  C   UNL     1       2.951   6.805  18.394  0.00  0.00    +0.000 A 
ATOM      2  C   UNL     1       2.559   7.980  17.738  0.00  0.00    +0.000 A 
ATOM      3  C   UNL     1       1.814   8.960  18.399  0.00  0.00    +0.000 A 
ATOM      4  C   UNL     1       1.467   8.775  19.738  0.00  0.00    +0.000 A 
ATOM      5  C   UNL     1       1.832   7.609  20.409  0.00  0.00    +0.000 A 
ATOM      6  C   UNL     1       2.563   6.627  19.732  0.00  0.00    +0.000 A 
ENDROOT
BRANCH   1  10
ATOM      7  N   UNL     1       5.384   4.738  16.663  0.00  0.00    +0.000 N 
ATOM      8  C   UNL     1       4.296   3.795  16.711  0.00  0.00    +0.000 C 
ATOM      9  C   UNL     1       3.370   4.404  17.749  0.00  0.00    +0.000 C 
ATOM     10  N   UNL     1       3.701   5.813  17.723  0.00  0.00    +0.000 N 
ATOM     11  C   UNL     1       4.981   5.990  17.143  0.00  0.00    +0.000 C 
ATOM     12  O   UNL     1       5.659   7.004  17.090  0.00  0.00    +0.000 OA
BRANCH   7  13
ATOM     13  C   UNL     1       6.674   4.457  16.066  0.00  0.00    +0.000 C 
BRANCH  13  14
ATOM     14  C   UNL     1       6.749   4.773  14.576  0.00  0.00    +0.000 C 
BRANCH  14  16
ATOM     15  C   UNL     1       6.511   3.631  12.349  0.00  0.00    +0.000 C 
ATOM     16  C   UNL     1       5.902   3.823  13.729  0.00  0.00    +0.000 C 
ENDBRANCH  14  16
ENDBRANCH  13  14
ENDBRANCH   7  13
ENDBRANCH   1  10
BRANCH   4  17
ATOM     17  S   UNL     1       0.404   9.964  20.527  0.00  0.00    +0.000 S 
ATOM     18  O   UNL     1      -0.717   9.198  21.044  0.00  0.00    +0.000 OA
ATOM     19  O   UNL     1       1.234  10.747  21.424  0.00  0.00    +0.000 OA
BRANCH  17  20
ATOM     20  O   UNL     1      -0.106  10.928  19.303  0.00  0.00    +0.000 OA
BRANCH  20  21
ATOM     21  C   UNL     1      -1.419  11.334  19.231  0.00  0.00    +0.000 A 
ATOM     22  C   UNL     1      -1.885  12.177  20.243  0.00  0.00    +0.000 A 
ATOM     23  C   UNL     1      -3.211  12.632  20.236  0.00  0.00    +0.000 A 
ATOM     24  C   UNL     1      -4.058  12.256  19.191  0.00  0.00    +0.000 A 
ATOM     25  C   UNL     1      -3.597  11.425  18.170  0.00  0.00    +0.000 A 
ATOM     26  C   UNL     1      -2.278  10.978  18.194  0.00  0.00    +0.000 A 
BRANCH  23  27
ATOM     27  O   UNL     1      -3.564  13.424  21.297  0.00  0.00    +0.000 OA
ATOM     28  C   UNL     1      -3.725  12.771  22.554  0.00  0.00    +0.000 C 
ENDBRANCH  23  27
BRANCH  25  29
ATOM     29  O   UNL     1      -4.524  11.119  17.208  0.00  0.00    +0.000 OA
ATOM     30  C   UNL     1      -5.629  12.011  17.078  0.00  0.00    +0.000 C 
ENDBRANCH  25  29
ENDBRANCH  20  21
ENDBRANCH  17  20
ENDBRANCH   4  17
TORSDOF 9
ENDMDL
MODEL 3
REMARK VINA RESULT:      -7.7      1.498      2.241
REMARK  Name = 
REMARK  12 active torsions:
REMARK  status: ('A' for Active; 'I' for Inactive)
REMARK    1  A    between atoms: C_1  and  C_2
REMARK    2  A    between atoms: C_2  and  C_3
REMARK    3  A    between atoms: C_3  and  C_4
REMARK    4  A    between atoms: C_4  and  N_5
REMARK    5  A    between atoms: N_8  and  C_9
REMARK    6  A    between atoms: C_12  and  S_13
REMARK    7  A    between atoms: S_13  and  O_16
REMARK    8  A    between atoms: O_16  and  C_17
REMARK    9  A    between atoms: C_19  and  O_20
REMARK   10  A    between atoms: O_20  and  C_21
REMARK   11  A    between atoms: C_23  and  O_24
REMARK   12  A    between atoms: O_24  and  C_25
REMARK                            x       y       z     vdW  Elec       q    Type
REMARK                         _______ _______ _______ _____ _____    ______ ____
ROOT
ATOM      1  C   UNL     1       1.812   7.597  19.821  0.00  0.00    +0.000 A 
ATOM      2  C   UNL     1       1.745   6.643  20.845  0.00  0.00    +0.000 A 
ATOM      3  C   UNL     1       2.271   5.361  20.671  0.00  0.00    +0.000 A 
ATOM      4  C   UNL     1       2.888   5.027  19.465  0.00  0.00    +0.000 A 
ATOM      5  C   UNL     1       2.954   5.953  18.425  0.00  0.00    +0.000 A 
ATOM      6  C   UNL     1       2.409   7.228  18.605  0.00  0.00    +0.000 A 
ENDROOT
BRANCH   1  10
ATOM      7  N   UNL     1       0.323  10.901  19.586  0.00  0.00    +0.000 N 
ATOM      8  C   UNL     1       0.583  10.883  21.002  0.00  0.00    +0.000 C 
ATOM      9  C   UNL     1       0.841   9.412  21.277  0.00  0.00    +0.000 C 
ATOM     10  N   UNL     1       1.275   8.893  19.997  0.00  0.00    +0.000 N 
ATOM     11  C   UNL     1       0.863   9.769  18.963  0.00  0.00    +0.000 C 
ATOM     12  O   UNL     1       0.907   9.595  17.756  0.00  0.00    +0.000 OA
BRANCH   7  13
ATOM     13  C   UNL     1      -0.293  12.012  18.888  0.00  0.00    +0.000 C 
BRANCH  13  14
ATOM     14  C   UNL     1      -1.806  11.886  18.738  0.00  0.00    +0.000 C 
BRANCH  14  16
ATOM     15  C   UNL     1      -3.633  10.723  17.462  0.00  0.00    +0.000 C 
ATOM     16  C   UNL     1      -2.216  11.270  17.400  0.00  0.00    +0.000 C 
ENDBRANCH  14  16
ENDBRANCH  13  14
ENDBRANCH   7  13
ENDBRANCH   1  10
BRANCH   4  17
ATOM     17  S   UNL     1       3.430   3.353  19.206  0.00  0.00    +0.000 S 
ATOM     18  O   UNL     1       2.934   2.603  20.348  0.00  0.00    +0.000 OA
ATOM     19  O   UNL     1       3.038   2.982  17.858  0.00  0.00    +0.000 OA
BRANCH  17  20
ATOM     20  O   UNL     1       5.065   3.440  19.274  0.00  0.00    +0.000 OA
BRANCH  20  21
ATOM     21  C   UNL     1       5.756   4.301  18.452  0.00  0.00    +0.000 A 
ATOM     22  C   UNL     1       5.614   4.123  17.074  0.00  0.00    +0.000 A 
ATOM     23  C   UNL     1       6.285   4.962  16.174  0.00  0.00    +0.000 A 
ATOM     24  C   UNL     1       7.080   5.998  16.668  0.00  0.00    +0.000 A 
ATOM     25  C   UNL     1       7.219   6.190  18.043  0.00  0.00    +0.000 A 
ATOM     26  C   UNL     1       6.547   5.345  18.923  0.00  0.00    +0.000 A 
BRANCH  23  27
ATOM     27  O   UNL     1       6.097   4.670  14.848  0.00  0.00    +0.000 OA
ATOM     28  C   UNL     1       7.200   4.914  13.979  0.00  0.00    +0.000 C 
ENDBRANCH  23  27
BRANCH  25  29
ATOM     29  O   UNL     1       8.032   7.233  18.403  0.00  0.00    +0.000 OA
ATOM     30  C   UNL     1       7.852   8.459  17.698  0.00  0.00    +0.000 C 
ENDBRANCH  25  29
ENDBRANCH  20  21
ENDBRANCH  17  20
ENDBRANCH   4  17
TORSDOF 9
ENDMDL
MODEL 4
REMARK VINA RESULT:      -7.7      4.090      9.393
REMARK  Name = 
REMARK  12 active torsions:
REMARK  status: ('A' for Active; 'I' for Inactive)
REMARK    1  A    between atoms: C_1  and  C_2
REMARK    2  A    between atoms: C_2  and  C_3
REMARK    3  A    between atoms: C_3  and  C_4
REMARK    4  A    between atoms: C_4  and  N_5
REMARK    5  A    between atoms: N_8  and  C_9
REMARK    6  A    between atoms: C_12  and  S_13
REMARK    7  A    between atoms: S_13  and  O_16
REMARK    8  A    between atoms: O_16  and  C_17
REMARK    9  A    between atoms: C_19  and  O_20
REMARK   10  A    between atoms: O_20  and  C_21
REMARK   11  A    between atoms: C_23  and  O_24
REMARK   12  A    between atoms: O_24  and  C_25
REMARK                            x       y       z     vdW  Elec       q    Type
REMARK                         _______ _______ _______ _____ _____    ______ ____
ROOT
ATOM      1  C   UNL     1       2.474   7.411  18.659  0.00  0.00    +0.000 A 
ATOM      2  C   UNL     1       1.940   7.615  19.938  0.00  0.00    +0.000 A 
ATOM      3  C   UNL     1       1.286   8.807  20.263  0.00  0.00    +0.000 A 
ATOM      4  C   UNL     1       1.147   9.803  19.296  0.00  0.00    +0.000 A 
ATOM      5  C   UNL     1       1.682   9.630  18.021  0.00  0.00    +0.000 A 
ATOM      6  C   UNL     1       2.350   8.440  17.712  0.00  0.00    +0.000 A 
ENDROOT
BRANCH   1  10
ATOM      7  N   UNL     1       3.545   4.035  17.854  0.00  0.00    +0.000 N 
ATOM      8  C   UNL     1       4.829   4.685  17.804  0.00  0.00    +0.000 C 
ATOM      9  C   UNL     1       4.457   6.156  17.738  0.00  0.00    +0.000 C 
ATOM     10  N   UNL     1       3.139   6.207  18.332  0.00  0.00    +0.000 N 
ATOM     11  C   UNL     1       2.555   4.916  18.306  0.00  0.00    +0.000 C 
ATOM     12  O   UNL     1       1.408   4.595  18.571  0.00  0.00    +0.000 OA
BRANCH   7  13
ATOM     13  C   UNL     1       3.340   2.622  17.602  0.00  0.00    +0.000 C 
BRANCH  13  14
ATOM     14  C   UNL     1       3.628   1.731  18.807  0.00  0.00    +0.000 C 
BRANCH  14  16
ATOM     15  C   UNL     1       2.855   2.523  21.064  0.00  0.00    +0.000 C 
ATOM     16  C   UNL     1       3.994   2.531  20.057  0.00  0.00    +0.000 C 
ENDBRANCH  14  16
ENDBRANCH  13  14
ENDBRANCH   7  13
ENDBRANCH   1  10
BRANCH   4  17
ATOM     17  S   UNL     1       0.435  11.365  19.762  0.00  0.00    +0.000 S 
ATOM     18  O   UNL     1       1.048  11.707  21.034  0.00  0.00    +0.000 OA
ATOM     19  O   UNL     1       0.572  12.251  18.620  0.00  0.00    +0.000 OA
BRANCH  17  20
ATOM     20  O   UNL     1      -1.155  11.037  19.987  0.00  0.00    +0.000 OA
BRANCH  20  21
ATOM     21  C   UNL     1      -2.026  11.026  18.921  0.00  0.00    +0.000 A 
ATOM     22  C   UNL     1      -3.208  11.759  19.053  0.00  0.00    +0.000 A 
ATOM     23  C   UNL     1      -4.143  11.797  18.010  0.00  0.00    +0.000 A 
ATOM     24  C   UNL     1      -3.871  11.114  16.822  0.00  0.00    +0.000 A 
ATOM     25  C   UNL     1      -2.688  10.389  16.678  0.00  0.00    +0.000 A 
ATOM     26  C   UNL     1      -1.771  10.360  17.725  0.00  0.00    +0.000 A 
BRANCH  23  27
ATOM     27  O   UNL     1      -5.279  12.518  18.267  0.00  0.00    +0.000 OA
ATOM     28  C   UNL     1      -6.213  12.640  17.197  0.00  0.00    +0.000 C 
ENDBRANCH  23  27
BRANCH  25  29
ATOM     29  O   UNL     1      -2.540   9.756  15.472  0.00  0.00    +0.000 OA
ATOM     30  C   UNL     1      -3.440  10.137  14.433  0.00  0.00    +0.000 C 
ENDBRANCH  25  29
ENDBRANCH  20  21
ENDBRANCH  17  20
ENDBRANCH   4  17
TORSDOF 9
ENDMDL
MODEL 5
REMARK VINA RESULT:      -7.6      0.528      2.464
REMARK  Name = 
REMARK  12 active torsions:
REMARK  status: ('A' for Active; 'I' for Inactive)
REMARK    1  A    between atoms: C_1  and  C_2
REMARK    2  A    between atoms: C_2  and  C_3
REMARK    3  A    between atoms: C_3  and  C_4
REMARK    4  A    between atoms: C_4  and  N_5
REMARK    5  A    between atoms: N_8  and  C_9
REMARK    6  A    between atoms: C_12  and  S_13
REMARK    7  A    between atoms: S_13  and  O_16
REMARK    8  A    between atoms: O_16  and  C_17
REMARK    9  A    between atoms: C_19  and  O_20
REMARK   10  A    between atoms: O_20  and  C_21
REMARK   11  A    between atoms: C_23  and  O_24
REMARK   12  A    between atoms: O_24  and  C_25
REMARK                            x       y       z     vdW  Elec       q    Type
REMARK                         _______ _______ _______ _____ _____    ______ ____
ROOT
ATOM      1  C   UNL     1       1.824   7.795  19.633  0.00  0.00    +0.000 A 
ATOM      2  C   UNL     1       1.744   6.848  20.663  0.00  0.00    +0.000 A 
ATOM      3  C   UNL     1       2.372   5.606  20.551  0.00  0.00    +0.000 A 
ATOM      4  C   UNL     1       3.105   5.306  19.402  0.00  0.00    +0.000 A 
ATOM      5  C   UNL     1       3.188   6.224  18.356  0.00  0.00    +0.000 A 
ATOM      6  C   UNL     1       2.541   7.458  18.473  0.00  0.00    +0.000 A 
ENDROOT
BRANCH   1  10
ATOM      7  N   UNL     1       0.432  11.014  20.577  0.00  0.00    +0.000 N 
ATOM      8  C   UNL     1      -0.057  10.957  19.224  0.00  0.00    +0.000 C 
ATOM      9  C   UNL     1       0.782   9.850  18.610  0.00  0.00    +0.000 C 
ATOM     10  N   UNL     1       1.184   9.050  19.747  0.00  0.00    +0.000 N 
ATOM     11  C   UNL     1       1.056   9.812  20.934  0.00  0.00    +0.000 C 
ATOM     12  O   UNL     1       1.440   9.537  22.060  0.00  0.00    +0.000 OA
BRANCH   7  13
ATOM     13  C   UNL     1       0.185  12.117  21.483  0.00  0.00    +0.000 C 
BRANCH  13  14
ATOM     14  C   UNL     1      -1.205  12.731  21.346  0.00  0.00    +0.000 C 
BRANCH  14  16
ATOM     15  C   UNL     1      -2.513  13.009  23.474  0.00  0.00    +0.000 C 
ATOM     16  C   UNL     1      -2.224  12.097  22.293  0.00  0.00    +0.000 C 
ENDBRANCH  14  16
ENDBRANCH  13  14
ENDBRANCH   7  13
ENDBRANCH   1  10
BRANCH   4  17
ATOM     17  S   UNL     1       3.785   3.673  19.212  0.00  0.00    +0.000 S 
ATOM     18  O   UNL     1       3.323   2.924  20.369  0.00  0.00    +0.000 OA
ATOM     19  O   UNL     1       3.454   3.228  17.871  0.00  0.00    +0.000 OA
BRANCH  17  20
ATOM     20  O   UNL     1       5.406   3.893  19.310  0.00  0.00    +0.000 OA
BRANCH  20  21
ATOM     21  C   UNL     1       6.062   4.691  18.400  0.00  0.00    +0.000 A 
ATOM     22  C   UNL     1       6.847   5.728  18.908  0.00  0.00    +0.000 A 
ATOM     23  C   UNL     1       7.546   6.582  18.044  0.00  0.00    +0.000 A 
ATOM     24  C   UNL     1       7.471   6.370  16.665  0.00  0.00    +0.000 A 
ATOM     25  C   UNL     1       6.698   5.329  16.150  0.00  0.00    +0.000 A 
ATOM     26  C   UNL     1       6.008   4.492  17.023  0.00  0.00    +0.000 A 
BRANCH  23  27
ATOM     27  O   UNL     1       8.254   7.583  18.654  0.00  0.00    +0.000 OA
ATOM     28  C   UNL     1       8.229   8.860  18.020  0.00  0.00    +0.000 C 
ENDBRANCH  23  27
BRANCH  25  29
ATOM     29  O   UNL     1       6.697   5.230  14.783  0.00  0.00    +0.000 OA
ATOM     30  C   UNL     1       5.842   4.241  14.214  0.00  0.00    +0.000 C 
ENDBRANCH  25  29
ENDBRANCH  20  21
ENDBRANCH  17  20
ENDBRANCH   4  17
TORSDOF 9
ENDMDL
MODEL 6
REMARK VINA RESULT:      -7.6      1.493      3.134
REMARK  Name = 
REMARK  12 active torsions:
REMARK  status: ('A' for Active; 'I' for Inactive)
REMARK    1  A    between atoms: C_1  and  C_2
REMARK    2  A    between atoms: C_2  and  C_3
REMARK    3  A    between atoms: C_3  and  C_4
REMARK    4  A    between atoms: C_4  and  N_5
REMARK    5  A    between atoms: N_8  and  C_9
REMARK    6  A    between atoms: C_12  and  S_13
REMARK    7  A    between atoms: S_13  and  O_16
REMARK    8  A    between atoms: O_16  and  C_17
REMARK    9  A    between atoms: C_19  and  O_20
REMARK   10  A    between atoms: O_20  and  C_21
REMARK   11  A    between atoms: C_23  and  O_24
REMARK   12  A    between atoms: O_24  and  C_25
REMARK                            x       y       z     vdW  Elec       q    Type
REMARK                         _______ _______ _______ _____ _____    ______ ____
ROOT
ATOM      1  C   UNL     1       1.989   7.630  19.616  0.00  0.00    +0.000 A 
ATOM      2  C   UNL     1       1.916   6.665  20.630  0.00  0.00    +0.000 A 
ATOM      3  C   UNL     1       2.508   5.409  20.474  0.00  0.00    +0.000 A 
ATOM      4  C   UNL     1       3.198   5.114  19.297  0.00  0.00    +0.000 A 
ATOM      5  C   UNL     1       3.273   6.051  18.267  0.00  0.00    +0.000 A 
ATOM      6  C   UNL     1       2.662   7.299  18.428  0.00  0.00    +0.000 A 
ENDROOT
BRANCH   1  10
ATOM      7  N   UNL     1       0.544  10.949  19.334  0.00  0.00    +0.000 N 
ATOM      8  C   UNL     1       0.362  10.755  20.750  0.00  0.00    +0.000 C 
ATOM      9  C   UNL     1       0.569   9.259  20.912  0.00  0.00    +0.000 C 
ATOM     10  N   UNL     1       1.386   8.898  19.774  0.00  0.00    +0.000 N 
ATOM     11  C   UNL     1       1.282   9.898  18.776  0.00  0.00    +0.000 C 
ATOM     12  O   UNL     1       1.696   9.874  17.628  0.00  0.00    +0.000 OA
BRANCH   7  13
ATOM     13  C   UNL     1       0.136  12.143  18.620  0.00  0.00    +0.000 C 
BRANCH  13  14
ATOM     14  C   UNL     1       0.612  13.442  19.264  0.00  0.00    +0.000 C 
BRANCH  14  16
ATOM     15  C   UNL     1      -0.042  15.809  18.731  0.00  0.00    +0.000 C 
ATOM     16  C   UNL     1      -0.492  14.495  19.350  0.00  0.00    +0.000 C 
ENDBRANCH  14  16
ENDBRANCH  13  14
ENDBRANCH   7  13
ENDBRANCH   1  10
BRANCH   4  17
ATOM     17  S   UNL     1       3.829   3.468  19.055  0.00  0.00    +0.000 S 
ATOM     18  O   UNL     1       3.389   2.710  20.213  0.00  0.00    +0.000 OA
ATOM     19  O   UNL     1       3.440   3.057  17.718  0.00  0.00    +0.000 OA
BRANCH  17  20
ATOM     20  O   UNL     1       5.457   3.646  19.099  0.00  0.00    +0.000 OA
BRANCH  20  21
ATOM     21  C   UNL     1       6.093   4.502  18.229  0.00  0.00    +0.000 A 
ATOM     22  C   UNL     1       6.821   5.556  18.785  0.00  0.00    +0.000 A 
ATOM     23  C   UNL     1       7.497   6.468  17.962  0.00  0.00    +0.000 A 
ATOM     24  C   UNL     1       7.458   6.296  16.576  0.00  0.00    +0.000 A 
ATOM     25  C   UNL     1       6.743   5.239  16.013  0.00  0.00    +0.000 A 
ATOM     26  C   UNL     1       6.075   4.345  16.845  0.00  0.00    +0.000 A 
BRANCH  23  27
ATOM     27  O   UNL     1       8.147   7.479  18.617  0.00  0.00    +0.000 OA
ATOM     28  C   UNL     1       8.184   8.744  17.961  0.00  0.00    +0.000 C 
ENDBRANCH  23  27
BRANCH  25  29
ATOM     29  O   UNL     1       6.773   5.183  14.644  0.00  0.00    +0.000 OA
ATOM     30  C   UNL     1       6.039   4.126  14.030  0.00  0.00    +0.000 C 
ENDBRANCH  25  29
ENDBRANCH  20  21
ENDBRANCH  17  20
ENDBRANCH   4  17
TORSDOF 9
ENDMDL
MODEL 7
REMARK VINA RESULT:      -7.6      4.026      9.683
REMARK  Name = 
REMARK  12 active torsions:
REMARK  status: ('A' for Active; 'I' for Inactive)
REMARK    1  A    between atoms: C_1  and  C_2
REMARK    2  A    between atoms: C_2  and  C_3
REMARK    3  A    between atoms: C_3  and  C_4
REMARK    4  A    between atoms: C_4  and  N_5
REMARK    5  A    between atoms: N_8  and  C_9
REMARK    6  A    between atoms: C_12  and  S_13
REMARK    7  A    between atoms: S_13  and  O_16
REMARK    8  A    between atoms: O_16  and  C_17
REMARK    9  A    between atoms: C_19  and  O_20
REMARK   10  A    between atoms: O_20  and  C_21
REMARK   11  A    between atoms: C_23  and  O_24
REMARK   12  A    between atoms: O_24  and  C_25
REMARK                            x       y       z     vdW  Elec       q    Type
REMARK                         _______ _______ _______ _____ _____    ______ ____
ROOT
ATOM      1  C   UNL     1       2.860   7.238  18.529  0.00  0.00    +0.000 A 
ATOM      2  C   UNL     1       2.210   7.314  19.768  0.00  0.00    +0.000 A 
ATOM      3  C   UNL     1       1.400   8.406  20.091  0.00  0.00    +0.000 A 
ATOM      4  C   UNL     1       1.222   9.431  19.162  0.00  0.00    +0.000 A 
ATOM      5  C   UNL     1       1.869   9.387  17.928  0.00  0.00    +0.000 A 
ATOM      6  C   UNL     1       2.691   8.297  17.621  0.00  0.00    +0.000 A 
ENDROOT
BRANCH   1  10
ATOM      7  N   UNL     1       5.365   4.878  17.369  0.00  0.00    +0.000 N 
ATOM      8  C   UNL     1       4.504   3.955  18.062  0.00  0.00    +0.000 C 
ATOM      9  C   UNL     1       3.642   4.873  18.911  0.00  0.00    +0.000 C 
ATOM     10  N   UNL     1       3.682   6.135  18.205  0.00  0.00    +0.000 N 
ATOM     11  C   UNL     1       4.801   6.160  17.336  0.00  0.00    +0.000 C 
ATOM     12  O   UNL     1       5.250   7.099  16.700  0.00  0.00    +0.000 OA
BRANCH   7  13
ATOM     13  C   UNL     1       6.582   4.494  16.682  0.00  0.00    +0.000 C 
BRANCH  13  14
ATOM     14  C   UNL     1       6.354   3.564  15.494  0.00  0.00    +0.000 C 
BRANCH  14  16
ATOM     15  C   UNL     1       6.018   3.718  13.008  0.00  0.00    +0.000 C 
ATOM     16  C   UNL     1       5.568   4.232  14.366  0.00  0.00    +0.000 C 
ENDBRANCH  14  16
ENDBRANCH  13  14
ENDBRANCH   7  13
ENDBRANCH   1  10
BRANCH   4  17
ATOM     17  S   UNL     1       0.302  10.878  19.636  0.00  0.00    +0.000 S 
ATOM     18  O   UNL     1       0.780  11.222  20.964  0.00  0.00    +0.000 OA
ATOM     19  O   UNL     1       0.414  11.829  18.546  0.00  0.00    +0.000 OA
BRANCH  17  20
ATOM     20  O   UNL     1      -1.250  10.360  19.727  0.00  0.00    +0.000 OA
BRANCH  20  21
ATOM     21  C   UNL     1      -2.166  10.716  18.762  0.00  0.00    +0.000 A 
ATOM     22  C   UNL     1      -1.972  10.204  17.477  0.00  0.00    +0.000 A 
ATOM     23  C   UNL     1      -2.863  10.520  16.442  0.00  0.00    +0.000 A 
ATOM     24  C   UNL     1      -3.965  11.334  16.714  0.00  0.00    +0.000 A 
ATOM     25  C   UNL     1      -4.173  11.839  17.998  0.00  0.00    +0.000 A 
ATOM     26  C   UNL     1      -3.276  11.518  19.013  0.00  0.00    +0.000 A 
BRANCH  23  27
ATOM     27  O   UNL     1      -2.552   9.990  15.218  0.00  0.00    +0.000 OA
ATOM     28  C   UNL     1      -3.575  10.031  14.227  0.00  0.00    +0.000 C 
ENDBRANCH  23  27
BRANCH  25  29
ATOM     29  O   UNL     1      -5.283  12.631  18.136  0.00  0.00    +0.000 OA
ATOM     30  C   UNL     1      -6.103  12.791  16.981  0.00  0.00    +0.000 C 
ENDBRANCH  25  29
ENDBRANCH  20  21
ENDBRANCH  17  20
ENDBRANCH   4  17
TORSDOF 9
ENDMDL
MODEL 8
REMARK VINA RESULT:      -7.5      1.099      2.468
REMARK  Name = 
REMARK  12 active torsions:
REMARK  status: ('A' for Active; 'I' for Inactive)
REMARK    1  A    between atoms: C_1  and  C_2
REMARK    2  A    between atoms: C_2  and  C_3
REMARK    3  A    between atoms: C_3  and  C_4
REMARK    4  A    between atoms: C_4  and  N_5
REMARK    5  A    between atoms: N_8  and  C_9
REMARK    6  A    between atoms: C_12  and  S_13
REMARK    7  A    between atoms: S_13  and  O_16
REMARK    8  A    between atoms: O_16  and  C_17
REMARK    9  A    between atoms: C_19  and  O_20
REMARK   10  A    between atoms: O_20  and  C_21
REMARK   11  A    between atoms: C_23  and  O_24
REMARK   12  A    between atoms: O_24  and  C_25
REMARK                            x       y       z     vdW  Elec       q    Type
REMARK                         _______ _______ _______ _____ _____    ______ ____
ROOT
ATOM      1  C   UNL     1       1.492   8.389  19.649  0.00  0.00    +0.000 A 
ATOM      2  C   UNL     1       2.231   8.022  18.516  0.00  0.00    +0.000 A 
ATOM      3  C   UNL     1       2.773   6.740  18.393  0.00  0.00    +0.000 A 
ATOM      4  C   UNL     1       2.564   5.803  19.406  0.00  0.00    +0.000 A 
ATOM      5  C   UNL     1       1.846   6.147  20.550  0.00  0.00    +0.000 A 
ATOM      6  C   UNL     1       1.322   7.439  20.669  0.00  0.00    +0.000 A 
ENDROOT
BRANCH   1  10
ATOM      7  N   UNL     1       0.320  11.684  20.628  0.00  0.00    +0.000 N 
ATOM      8  C   UNL     1      -0.120  11.697  19.257  0.00  0.00    +0.000 C 
ATOM      9  C   UNL     1       0.654  10.543  18.644  0.00  0.00    +0.000 C 
ATOM     10  N   UNL     1       0.948   9.687  19.773  0.00  0.00    +0.000 N 
ATOM     11  C   UNL     1       0.834  10.428  20.975  0.00  0.00    +0.000 C 
ATOM     12  O   UNL     1       1.152  10.098  22.106  0.00  0.00    +0.000 OA
BRANCH   7  13
ATOM     13  C   UNL     1       0.125  12.781  21.553  0.00  0.00    +0.000 C 
BRANCH  13  14
ATOM     14  C   UNL     1      -1.337  13.036  21.911  0.00  0.00    +0.000 C 
BRANCH  14  16
ATOM     15  C   UNL     1      -3.149  12.449  23.551  0.00  0.00    +0.000 C 
ATOM     16  C   UNL     1      -1.921  11.946  22.809  0.00  0.00    +0.000 C 
ENDBRANCH  14  16
ENDBRANCH  13  14
ENDBRANCH   7  13
ENDBRANCH   1  10
BRANCH   4  17
ATOM     17  S   UNL     1       3.373   4.222  19.301  0.00  0.00    +0.000 S 
ATOM     18  O   UNL     1       3.089   3.557  20.562  0.00  0.00    +0.000 OA
ATOM     19  O   UNL     1       2.966   3.619  18.045  0.00  0.00    +0.000 OA
BRANCH  17  20
ATOM     20  O   UNL     1       4.969   4.587  19.219  0.00  0.00    +0.000 OA
BRANCH  20  21
ATOM     21  C   UNL     1       5.582   4.781  18.002  0.00  0.00    +0.000 A 
ATOM     22  C   UNL     1       6.439   5.878  17.885  0.00  0.00    +0.000 A 
ATOM     23  C   UNL     1       7.100   6.141  16.678  0.00  0.00    +0.000 A 
ATOM     24  C   UNL     1       6.914   5.277  15.595  0.00  0.00    +0.000 A 
ATOM     25  C   UNL     1       6.070   4.173  15.707  0.00  0.00    +0.000 A 
ATOM     26  C   UNL     1       5.418   3.929  16.913  0.00  0.00    +0.000 A 
BRANCH  23  27
ATOM     27  O   UNL     1       7.886   7.262  16.671  0.00  0.00    +0.000 OA
ATOM     28  C   UNL     1       7.653   8.211  17.709  0.00  0.00    +0.000 C 
ENDBRANCH  23  27
BRANCH  25  29
ATOM     29  O   UNL     1       5.963   3.408  14.575  0.00  0.00    +0.000 OA
ATOM     30  C   UNL     1       6.505   3.959  13.376  0.00  0.00    +0.000 C 
ENDBRANCH  25  29
ENDBRANCH  20  21
ENDBRANCH  17  20
ENDBRANCH   4  17
TORSDOF 9
ENDMDL
MODEL 9
REMARK VINA RESULT:      -7.5      3.808      9.138
REMARK  Name = 
REMARK  12 active torsions:
REMARK  status: ('A' for Active; 'I' for Inactive)
REMARK    1  A    between atoms: C_1  and  C_2
REMARK    2  A    between atoms: C_2  and  C_3
REMARK    3  A    between atoms: C_3  and  C_4
REMARK    4  A    between atoms: C_4  and  N_5
REMARK    5  A    between atoms: N_8  and  C_9
REMARK    6  A    between atoms: C_12  and  S_13
REMARK    7  A    between atoms: S_13  and  O_16
REMARK    8  A    between atoms: O_16  and  C_17
REMARK    9  A    between atoms: C_19  and  O_20
REMARK   10  A    between atoms: O_20  and  C_21
REMARK   11  A    between atoms: C_23  and  O_24
REMARK   12  A    between atoms: O_24  and  C_25
REMARK                            x       y       z     vdW  Elec       q    Type
REMARK                         _______ _______ _______ _____ _____    ______ ____
ROOT
ATOM      1  C   UNL     1       2.797   7.105  18.367  0.00  0.00    +0.000 A 
ATOM      2  C   UNL     1       2.350   7.115  19.695  0.00  0.00    +0.000 A 
ATOM      3  C   UNL     1       1.630   8.199  20.204  0.00  0.00    +0.000 A 
ATOM      4  C   UNL     1       1.335   9.282  19.375  0.00  0.00    +0.000 A 
ATOM      5  C   UNL     1       1.781   9.303  18.054  0.00  0.00    +0.000 A 
ATOM      6  C   UNL     1       2.516   8.220  17.560  0.00  0.00    +0.000 A 
ENDROOT
BRANCH   1  10
ATOM      7  N   UNL     1       5.194   4.756  16.979  0.00  0.00    +0.000 N 
ATOM      8  C   UNL     1       4.085   3.854  17.152  0.00  0.00    +0.000 C 
ATOM      9  C   UNL     1       3.166   4.628  18.082  0.00  0.00    +0.000 C 
ATOM     10  N   UNL     1       3.529   6.010  17.854  0.00  0.00    +0.000 N 
ATOM     11  C   UNL     1       4.817   6.074  17.268  0.00  0.00    +0.000 C 
ATOM     12  O   UNL     1       5.518   7.054  17.075  0.00  0.00    +0.000 OA
BRANCH   7  13
ATOM     13  C   UNL     1       6.482   4.365  16.443  0.00  0.00    +0.000 C 
BRANCH  13  14
ATOM     14  C   UNL     1       6.698   4.774  14.989  0.00  0.00    +0.000 C 
BRANCH  14  16
ATOM     15  C   UNL     1       6.518   3.756  12.698  0.00  0.00    +0.000 C 
ATOM     16  C   UNL     1       5.807   3.998  14.020  0.00  0.00    +0.000 C 
ENDBRANCH  14  16
ENDBRANCH  13  14
ENDBRANCH   7  13
ENDBRANCH   1  10
BRANCH   4  17
ATOM     17  S   UNL     1       0.539  10.712  20.072  0.00  0.00    +0.000 S 
ATOM     18  O   UNL     1      -0.788  10.265  20.460  0.00  0.00    +0.000 OA
ATOM     19  O   UNL     1       1.446  11.264  21.061  0.00  0.00    +0.000 OA
BRANCH  17  20
ATOM     20  O   UNL     1       0.421  11.762  18.819  0.00  0.00    +0.000 OA
BRANCH  20  21
ATOM     21  C   UNL     1       1.168  12.919  18.801  0.00  0.00    +0.000 A 
ATOM     22  C   UNL     1       0.552  14.085  19.261  0.00  0.00    +0.000 A 
ATOM     23  C   UNL     1       1.249  15.301  19.274  0.00  0.00    +0.000 A 
ATOM     24  C   UNL     1       2.579  15.332  18.847  0.00  0.00    +0.000 A 
ATOM     25  C   UNL     1       3.205  14.169  18.398  0.00  0.00    +0.000 A 
ATOM     26  C   UNL     1       2.496  12.970  18.388  0.00  0.00    +0.000 A 
BRANCH  23  27
ATOM     27  O   UNL     1       0.532  16.383  19.713  0.00  0.00    +0.000 OA
ATOM     28  C   UNL     1      -0.883  16.317  19.555  0.00  0.00    +0.000 C 
ENDBRANCH  23  27
BRANCH  25  29
ATOM     29  O   UNL     1       4.506  14.329  17.997  0.00  0.00    +0.000 OA
ATOM     30  C   UNL     1       5.311  15.211  18.776  0.00  0.00    +0.000 C 
ENDBRANCH  25  29
ENDBRANCH  20  21
ENDBRANCH  17  20
ENDBRANCH   4  17
TORSDOF 9
ENDMDL
