MODEL 1
REMARK VINA RESULT:      -8.9      0.000      0.000
REMARK  Name = 
REMARK  6 active torsions:
REMARK  status: ('A' for Active; 'I' for Inactive)
REMARK    1  A    between atoms: C_1  and  O_2
REMARK    2  A    between atoms: O_2  and  C_3
REMARK    3  A    between atoms: C_6  and  C_7
REMARK    4  A    between atoms: C_12  and  C_14
REMARK    5  A    between atoms: C_17  and  S_18
REMARK    6  A    between atoms: S_18  and  N_21
REMARK                            x       y       z     vdW  Elec       q    Type
REMARK                         _______ _______ _______ _____ _____    ______ ____
ROOT
ATOM      1  C   UNL     1      -1.038  11.515  21.633  0.00  0.00    +0.000 A 
ATOM      2  C   UNL     1      -1.505  11.362  22.941  0.00  0.00    +0.000 A 
ATOM      3  C   UNL     1      -2.552  12.141  23.425  0.00  0.00    +0.000 A 
ATOM      4  C   UNL     1      -3.143  13.110  22.619  0.00  0.00    +0.000 A 
ATOM      5  C   UNL     1      -2.611  13.359  21.341  0.00  0.00    +0.000 A 
ATOM      6  C   UNL     1      -1.556  12.558  20.850  0.00  0.00    +0.000 A 
ENDROOT
BRANCH   1  12
ATOM      7  C   UNL     1       2.195   7.967  18.657  0.00  0.00    +0.000 A 
ATOM      8  N   UNL     1       2.225   8.758  17.593  0.00  0.00    +0.000 NA
ATOM      9  N   UNL     1       1.486   9.869  17.909  0.00  0.00    +0.000 NA
ATOM     10  C   UNL     1       1.088   9.712  19.154  0.00  0.00    +0.000 A 
ATOM     11  N   UNL     1       0.293  10.603  19.819  0.00  0.00    +0.000 N 
ATOM     12  C   UNL     1      -0.045  10.499  21.140  0.00  0.00    +0.000 C 
ATOM     13  O   UNL     1       0.354   9.630  21.913  0.00  0.00    +0.000 OA
ATOM     14  O   UNL     1       1.499   8.536  19.700  0.00  0.00    +0.000 OA
ATOM     15  H   UNL     1      -0.061  11.343  19.232  0.00  0.00    +0.000 HD
BRANCH   7  19
ATOM     16  C   UNL     1       3.774   4.002  18.941  0.00  0.00    +0.000 A 
ATOM     17  C   UNL     1       4.107   4.832  17.874  0.00  0.00    +0.000 A 
ATOM     18  C   UNL     1       3.608   6.136  17.811  0.00  0.00    +0.000 A 
ATOM     19  C   UNL     1       2.750   6.631  18.807  0.00  0.00    +0.000 A 
ATOM     20  C   UNL     1       2.421   5.790  19.879  0.00  0.00    +0.000 A 
ATOM     21  C   UNL     1       2.927   4.479  19.942  0.00  0.00    +0.000 A 
BRANCH  16  23
ATOM     22  C   UNL     1       3.470   1.753  18.272  0.00  0.00    +0.000 C 
ATOM     23  O   UNL     1       4.300   2.741  18.872  0.00  0.00    +0.000 OA
ENDBRANCH  16  23
ENDBRANCH   7  19
ENDBRANCH   1  12
BRANCH   4  24
ATOM     24  S   UNL     1      -4.587  14.015  23.184  0.00  0.00    +0.000 S 
ATOM     25  O   UNL     1      -5.100  13.223  24.315  0.00  0.00    +0.000 OA
ATOM     26  O   UNL     1      -4.186  15.375  23.369  0.00  0.00    +0.000 OA
BRANCH  24  27
ATOM     27  N   UNL     1      -5.739  13.917  21.939  0.00  0.00    +0.000 NA
ATOM     28  C   UNL     1      -6.269  12.565  21.768  0.00  0.00    +0.000 C 
ATOM     29  C   UNL     1      -6.267  12.062  20.357  0.00  0.00    +0.000 C 
ATOM     30  C   UNL     1      -5.906  12.973  19.234  0.00  0.00    +0.000 A 
ATOM     31  C   UNL     1      -5.791  12.347  17.982  0.00  0.00    +0.000 A 
ATOM     32  C   UNL     1      -6.304  12.969  16.872  0.00  0.00    +0.000 A 
ATOM     33  C   UNL     1      -6.869  14.230  17.036  0.00  0.00    +0.000 A 
ATOM     34  C   UNL     1      -6.759  14.935  18.276  0.00  0.00    +0.000 A 
ATOM     35  C   UNL     1      -6.189  14.323  19.407  0.00  0.00    +0.000 A 
ATOM     36  C   UNL     1      -5.836  14.910  20.791  0.00  0.00    +0.000 C 
ENDBRANCH  24  27
ENDBRANCH   4  24
TORSDOF 5
ENDMDL
MODEL 2
REMARK VINA RESULT:      -8.9      2.537      3.499
REMARK  Name = 
REMARK  6 active torsions:
REMARK  status: ('A' for Active; 'I' for Inactive)
REMARK    1  A    between atoms: C_1  and  O_2
REMARK    2  A    between atoms: O_2  and  C_3
REMARK    3  A    between atoms: C_6  and  C_7
REMARK    4  A    between atoms: C_12  and  C_14
REMARK    5  A    between atoms: C_17  and  S_18
REMARK    6  A    between atoms: S_18  and  N_21
REMARK                            x       y       z     vdW  Elec       q    Type
REMARK                         _______ _______ _______ _____ _____    ______ ____
ROOT
ATOM      1  C   UNL     1       0.826   9.851  20.501  0.00  0.00    +0.000 A 
ATOM      2  C   UNL     1       0.075   9.416  21.595  0.00  0.00    +0.000 A 
ATOM      3  C   UNL     1      -0.704  10.305  22.329  0.00  0.00    +0.000 A 
ATOM      4  C   UNL     1      -0.733  11.657  22.001  0.00  0.00    +0.000 A 
ATOM      5  C   UNL     1       0.106  12.134  20.978  0.00  0.00    +0.000 A 
ATOM      6  C   UNL     1       0.887  11.226  20.228  0.00  0.00    +0.000 A 
ENDROOT
BRANCH   1  12
ATOM      7  C   UNL     1       3.683   5.442  18.428  0.00  0.00    +0.000 A 
ATOM      8  N   UNL     1       3.436   4.681  19.485  0.00  0.00    +0.000 NA
ATOM      9  N   UNL     1       2.678   5.436  20.344  0.00  0.00    +0.000 NA
ATOM     10  C   UNL     1       2.472   6.589  19.744  0.00  0.00    +0.000 A 
ATOM     11  N   UNL     1       1.780   7.626  20.304  0.00  0.00    +0.000 N 
ATOM     12  C   UNL     1       1.476   8.791  19.654  0.00  0.00    +0.000 C 
ATOM     13  O   UNL     1       1.734   9.041  18.479  0.00  0.00    +0.000 OA
ATOM     14  O   UNL     1       3.071   6.672  18.526  0.00  0.00    +0.000 OA
ATOM     15  H   UNL     1       1.536   7.473  21.271  0.00  0.00    +0.000 HD
BRANCH   7  19
ATOM     16  C   UNL     1       6.020   4.646  14.935  0.00  0.00    +0.000 A 
ATOM     17  C   UNL     1       5.610   5.940  15.245  0.00  0.00    +0.000 A 
ATOM     18  C   UNL     1       4.874   6.189  16.406  0.00  0.00    +0.000 A 
ATOM     19  C   UNL     1       4.516   5.143  17.273  0.00  0.00    +0.000 A 
ATOM     20  C   UNL     1       4.934   3.844  16.956  0.00  0.00    +0.000 A 
ATOM     21  C   UNL     1       5.678   3.597  15.788  0.00  0.00    +0.000 A 
BRANCH  16  23
ATOM     22  C   UNL     1       6.197   3.576  12.832  0.00  0.00    +0.000 C 
ATOM     23  O   UNL     1       6.706   4.529  13.758  0.00  0.00    +0.000 OA
ENDBRANCH  16  23
ENDBRANCH   7  19
ENDBRANCH   1  12
BRANCH   4  24
ATOM     24  S   UNL     1      -1.848  12.782  22.848  0.00  0.00    +0.000 S 
ATOM     25  O   UNL     1      -2.519  11.946  23.858  0.00  0.00    +0.000 OA
ATOM     26  O   UNL     1      -1.078  13.922  23.240  0.00  0.00    +0.000 OA
BRANCH  24  27
ATOM     27  N   UNL     1      -3.027  13.242  21.715  0.00  0.00    +0.000 NA
ATOM     28  C   UNL     1      -4.135  13.978  22.321  0.00  0.00    +0.000 C 
ATOM     29  C   UNL     1      -5.499  13.484  21.949  0.00  0.00    +0.000 C 
ATOM     30  C   UNL     1      -5.659  12.435  20.903  0.00  0.00    +0.000 A 
ATOM     31  C   UNL     1      -6.968  11.947  20.754  0.00  0.00    +0.000 A 
ATOM     32  C   UNL     1      -7.462  11.728  19.493  0.00  0.00    +0.000 A 
ATOM     33  C   UNL     1      -6.612  11.951  18.414  0.00  0.00    +0.000 A 
ATOM     34  C   UNL     1      -5.221  12.219  18.611  0.00  0.00    +0.000 A 
ATOM     35  C   UNL     1      -4.695  12.395  19.903  0.00  0.00    +0.000 A 
ATOM     36  C   UNL     1      -3.232  12.551  20.375  0.00  0.00    +0.000 C 
ENDBRANCH  24  27
ENDBRANCH   4  24
TORSDOF 5
ENDMDL
MODEL 3
REMARK VINA RESULT:      -8.8      7.454     11.875
REMARK  Name = 
REMARK  6 active torsions:
REMARK  status: ('A' for Active; 'I' for Inactive)
REMARK    1  A    between atoms: C_1  and  O_2
REMARK    2  A    between atoms: O_2  and  C_3
REMARK    3  A    between atoms: C_6  and  C_7
REMARK    4  A    between atoms: C_12  and  C_14
REMARK    5  A    between atoms: C_17  and  S_18
REMARK    6  A    between atoms: S_18  and  N_21
REMARK                            x       y       z     vdW  Elec       q    Type
REMARK                         _______ _______ _______ _____ _____    ______ ____
ROOT
ATOM      1  C   UNL     1       7.818   7.667  18.204  0.00  0.00    +0.000 A 
ATOM      2  C   UNL     1       6.744   7.572  17.316  0.00  0.00    +0.000 A 
ATOM      3  C   UNL     1       5.871   6.490  17.359  0.00  0.00    +0.000 A 
ATOM      4  C   UNL     1       6.063   5.462  18.278  0.00  0.00    +0.000 A 
ATOM      5  C   UNL     1       7.204   5.481  19.100  0.00  0.00    +0.000 A 
ATOM      6  C   UNL     1       8.082   6.587  19.061  0.00  0.00    +0.000 A 
ENDROOT
BRANCH   1  12
ATOM      7  C   UNL     1      10.287  12.598  19.421  0.00  0.00    +0.000 A 
ATOM      8  N   UNL     1      10.499  12.272  20.689  0.00  0.00    +0.000 NA
ATOM      9  N   UNL     1      10.003  11.005  20.856  0.00  0.00    +0.000 NA
ATOM     10  C   UNL     1       9.561  10.618  19.678  0.00  0.00    +0.000 A 
ATOM     11  N   UNL     1       8.959   9.413  19.448  0.00  0.00    +0.000 N 
ATOM     12  C   UNL     1       8.586   8.961  18.212  0.00  0.00    +0.000 C 
ATOM     13  O   UNL     1       8.781   9.545  17.148  0.00  0.00    +0.000 OA
ATOM     14  O   UNL     1       9.707  11.568  18.716  0.00  0.00    +0.000 OA
ATOM     15  H   UNL     1       8.778   8.885  20.288  0.00  0.00    +0.000 HD
BRANCH   7  19
ATOM     16  C   UNL     1      10.896  16.380  17.516  0.00  0.00    +0.000 A 
ATOM     17  C   UNL     1      10.487  16.303  18.845  0.00  0.00    +0.000 A 
ATOM     18  C   UNL     1      10.323  15.061  19.463  0.00  0.00    +0.000 A 
ATOM     19  C   UNL     1      10.547  13.867  18.758  0.00  0.00    +0.000 A 
ATOM     20  C   UNL     1      10.960  13.952  17.421  0.00  0.00    +0.000 A 
ATOM     21  C   UNL     1      11.129  15.204  16.803  0.00  0.00    +0.000 A 
BRANCH  16  23
ATOM     22  C   UNL     1      10.182  18.631  17.657  0.00  0.00    +0.000 C 
ATOM     23  O   UNL     1      10.991  17.650  17.019  0.00  0.00    +0.000 OA
ENDBRANCH  16  23
ENDBRANCH   7  19
ENDBRANCH   1  12
BRANCH   4  24
ATOM     24  S   UNL     1       4.859   4.140  18.440  0.00  0.00    +0.000 S 
ATOM     25  O   UNL     1       4.715   3.602  17.076  0.00  0.00    +0.000 OA
ATOM     26  O   UNL     1       5.298   3.301  19.512  0.00  0.00    +0.000 OA
BRANCH  24  27
ATOM     27  N   UNL     1       3.383   4.875  18.847  0.00  0.00    +0.000 NA
ATOM     28  C   UNL     1       2.539   5.128  17.681  0.00  0.00    +0.000 C 
ATOM     29  C   UNL     1       1.985   6.517  17.593  0.00  0.00    +0.000 C 
ATOM     30  C   UNL     1       2.168   7.472  18.722  0.00  0.00    +0.000 A 
ATOM     31  C   UNL     1       1.741   8.784  18.458  0.00  0.00    +0.000 A 
ATOM     32  C   UNL     1       1.058   9.474  19.428  0.00  0.00    +0.000 A 
ATOM     33  C   UNL     1       0.868   8.852  20.658  0.00  0.00    +0.000 A 
ATOM     34  C   UNL     1       1.517   7.616  20.969  0.00  0.00    +0.000 A 
ATOM     35  C   UNL     1       2.262   6.926  19.996  0.00  0.00    +0.000 A 
ATOM     36  C   UNL     1       3.154   5.671  20.123  0.00  0.00    +0.000 C 
ENDBRANCH  24  27
ENDBRANCH   4  24
TORSDOF 5
ENDMDL
MODEL 4
REMARK VINA RESULT:      -8.7      2.554      3.710
REMARK  Name = 
REMARK  6 active torsions:
REMARK  status: ('A' for Active; 'I' for Inactive)
REMARK    1  A    between atoms: C_1  and  O_2
REMARK    2  A    between atoms: O_2  and  C_3
REMARK    3  A    between atoms: C_6  and  C_7
REMARK    4  A    between atoms: C_12  and  C_14
REMARK    5  A    between atoms: C_17  and  S_18
REMARK    6  A    between atoms: S_18  and  N_21
REMARK                            x       y       z     vdW  Elec       q    Type
REMARK                         _______ _______ _______ _____ _____    ______ ____
ROOT
ATOM      1  C   UNL     1       0.208  10.373  20.560  0.00  0.00    +0.000 A 
ATOM      2  C   UNL     1       0.030  11.556  19.838  0.00  0.00    +0.000 A 
ATOM      3  C   UNL     1      -0.565  12.670  20.422  0.00  0.00    +0.000 A 
ATOM      4  C   UNL     1      -1.019  12.622  21.737  0.00  0.00    +0.000 A 
ATOM      5  C   UNL     1      -0.955  11.406  22.441  0.00  0.00    +0.000 A 
ATOM      6  C   UNL     1      -0.340  10.281  21.849  0.00  0.00    +0.000 A 
ENDROOT
BRANCH   1  12
ATOM      7  C   UNL     1       3.378   5.872  19.301  0.00  0.00    +0.000 A 
ATOM      8  N   UNL     1       2.812   5.112  20.227  0.00  0.00    +0.000 NA
ATOM      9  N   UNL     1       1.867   5.888  20.848  0.00  0.00    +0.000 NA
ATOM     10  C   UNL     1       1.883   7.055  20.239  0.00  0.00    +0.000 A 
ATOM     11  N   UNL     1       1.098   8.114  20.599  0.00  0.00    +0.000 N 
ATOM     12  C   UNL     1       1.035   9.296  19.913  0.00  0.00    +0.000 C 
ATOM     13  O   UNL     1       1.628   9.547  18.866  0.00  0.00    +0.000 OA
ATOM     14  O   UNL     1       2.809   7.125  19.245  0.00  0.00    +0.000 OA
ATOM     15  H   UNL     1       0.581   7.962  21.452  0.00  0.00    +0.000 HD
BRANCH   7  19
ATOM     16  C   UNL     1       6.577   4.798  16.672  0.00  0.00    +0.000 A 
ATOM     17  C   UNL     1       5.281   4.972  16.192  0.00  0.00    +0.000 A 
ATOM     18  C   UNL     1       4.253   5.354  17.058  0.00  0.00    +0.000 A 
ATOM     19  C   UNL     1       4.497   5.551  18.427  0.00  0.00    +0.000 A 
ATOM     20  C   UNL     1       5.803   5.377  18.902  0.00  0.00    +0.000 A 
ATOM     21  C   UNL     1       6.837   4.996  18.028  0.00  0.00    +0.000 A 
BRANCH  16  23
ATOM     22  C   UNL     1       7.239   4.829  14.401  0.00  0.00    +0.000 C 
ATOM     23  O   UNL     1       7.486   4.395  15.733  0.00  0.00    +0.000 OA
ENDBRANCH  16  23
ENDBRANCH   7  19
ENDBRANCH   1  12
BRANCH   4  24
ATOM     24  S   UNL     1      -1.651  14.097  22.542  0.00  0.00    +0.000 S 
ATOM     25  O   UNL     1      -1.545  13.806  23.982  0.00  0.00    +0.000 OA
ATOM     26  O   UNL     1      -0.965  15.215  21.971  0.00  0.00    +0.000 OA
BRANCH  24  27
ATOM     27  N   UNL     1      -3.306  14.183  22.169  0.00  0.00    +0.000 NA
ATOM     28  C   UNL     1      -4.040  15.074  23.066  0.00  0.00    +0.000 C 
ATOM     29  C   UNL     1      -5.291  14.491  23.648  0.00  0.00    +0.000 C 
ATOM     30  C   UNL     1      -5.793  13.168  23.181  0.00  0.00    +0.000 A 
ATOM     31  C   UNL     1      -6.882  12.661  23.908  0.00  0.00    +0.000 A 
ATOM     32  C   UNL     1      -7.916  12.060  23.236  0.00  0.00    +0.000 A 
ATOM     33  C   UNL     1      -7.807  11.933  21.854  0.00  0.00    +0.000 A 
ATOM     34  C   UNL     1      -6.586  12.247  21.177  0.00  0.00    +0.000 A 
ATOM     35  C   UNL     1      -5.502  12.816  21.868  0.00  0.00    +0.000 A 
ATOM     36  C   UNL     1      -4.060  13.109  21.399  0.00  0.00    +0.000 C 
ENDBRANCH  24  27
ENDBRANCH   4  24
TORSDOF 5
ENDMDL
MODEL 5
REMARK VINA RESULT:      -8.6      1.165      1.674
REMARK  Name = 
REMARK  6 active torsions:
REMARK  status: ('A' for Active; 'I' for Inactive)
REMARK    1  A    between atoms: C_1  and  O_2
REMARK    2  A    between atoms: O_2  and  C_3
REMARK    3  A    between atoms: C_6  and  C_7
REMARK    4  A    between atoms: C_12  and  C_14
REMARK    5  A    between atoms: C_17  and  S_18
REMARK    6  A    between atoms: S_18  and  N_21
REMARK                            x       y       z     vdW  Elec       q    Type
REMARK                         _______ _______ _______ _____ _____    ______ ____
ROOT
ATOM      1  C   UNL     1      -0.216  11.223  21.941  0.00  0.00    +0.000 A 
ATOM      2  C   UNL     1      -1.188  10.842  22.869  0.00  0.00    +0.000 A 
ATOM      3  C   UNL     1      -2.124  11.757  23.344  0.00  0.00    +0.000 A 
ATOM      4  C   UNL     1      -2.096  13.082  22.919  0.00  0.00    +0.000 A 
ATOM      5  C   UNL     1      -1.055  13.511  22.076  0.00  0.00    +0.000 A 
ATOM      6  C   UNL     1      -0.114  12.577  21.588  0.00  0.00    +0.000 A 
ENDROOT
BRANCH   1  12
ATOM      7  C   UNL     1       2.398   7.487  18.608  0.00  0.00    +0.000 A 
ATOM      8  N   UNL     1       2.458   8.322  17.581  0.00  0.00    +0.000 NA
ATOM      9  N   UNL     1       1.875   9.493  17.993  0.00  0.00    +0.000 NA
ATOM     10  C   UNL     1       1.534   9.319  19.253  0.00  0.00    +0.000 A 
ATOM     11  N   UNL     1       0.890  10.259  20.006  0.00  0.00    +0.000 N 
ATOM     12  C   UNL     1       0.621  10.126  21.340  0.00  0.00    +0.000 C 
ATOM     13  O   UNL     1       0.959   9.179  22.047  0.00  0.00    +0.000 OA
ATOM     14  O   UNL     1       1.835   8.076  19.718  0.00  0.00    +0.000 OA
ATOM     15  H   UNL     1       0.593  11.065  19.477  0.00  0.00    +0.000 HD
BRANCH   7  19
ATOM     16  C   UNL     1       3.669   3.413  18.906  0.00  0.00    +0.000 A 
ATOM     17  C   UNL     1       3.103   4.070  19.995  0.00  0.00    +0.000 A 
ATOM     18  C   UNL     1       2.664   5.390  19.874  0.00  0.00    +0.000 A 
ATOM     19  C   UNL     1       2.799   6.089  18.663  0.00  0.00    +0.000 A 
ATOM     20  C   UNL     1       3.367   5.421  17.570  0.00  0.00    +0.000 A 
ATOM     21  C   UNL     1       3.806   4.090  17.694  0.00  0.00    +0.000 A 
BRANCH  16  23
ATOM     22  C   UNL     1       4.627   1.904  20.456  0.00  0.00    +0.000 C 
ATOM     23  O   UNL     1       4.086   2.136  19.160  0.00  0.00    +0.000 OA
ENDBRANCH  16  23
ENDBRANCH   7  19
ENDBRANCH   1  12
BRANCH   4  24
ATOM     24  S   UNL     1      -3.387  14.229  23.410  0.00  0.00    +0.000 S 
ATOM     25  O   UNL     1      -3.953  13.644  24.637  0.00  0.00    +0.000 OA
ATOM     26  O   UNL     1      -2.804  15.536  23.427  0.00  0.00    +0.000 OA
BRANCH  24  27
ATOM     27  N   UNL     1      -4.590  14.148  22.214  0.00  0.00    +0.000 NA
ATOM     28  C   UNL     1      -5.919  13.897  22.768  0.00  0.00    +0.000 C 
ATOM     29  C   UNL     1      -6.681  12.793  22.103  0.00  0.00    +0.000 C 
ATOM     30  C   UNL     1      -6.150  12.151  20.867  0.00  0.00    +0.000 A 
ATOM     31  C   UNL     1      -6.874  11.031  20.427  0.00  0.00    +0.000 A 
ATOM     32  C   UNL     1      -7.118  10.874  19.086  0.00  0.00    +0.000 A 
ATOM     33  C   UNL     1      -6.583  11.816  18.213  0.00  0.00    +0.000 A 
ATOM     34  C   UNL     1      -5.658  12.808  18.671  0.00  0.00    +0.000 A 
ATOM     35  C   UNL     1      -5.363  12.943  20.039  0.00  0.00    +0.000 A 
ATOM     36  C   UNL     1      -4.315  13.825  20.753  0.00  0.00    +0.000 C 
ENDBRANCH  24  27
ENDBRANCH   4  24
TORSDOF 5
ENDMDL
MODEL 6
REMARK VINA RESULT:      -8.5      4.294     11.656
REMARK  Name = 
REMARK  6 active torsions:
REMARK  status: ('A' for Active; 'I' for Inactive)
REMARK    1  A    between atoms: C_1  and  O_2
REMARK    2  A    between atoms: O_2  and  C_3
REMARK    3  A    between atoms: C_6  and  C_7
REMARK    4  A    between atoms: C_12  and  C_14
REMARK    5  A    between atoms: C_17  and  S_18
REMARK    6  A    between atoms: S_18  and  N_21
REMARK                            x       y       z     vdW  Elec       q    Type
REMARK                         _______ _______ _______ _____ _____    ______ ____
ROOT
ATOM      1  C   UNL     1       1.587   7.748  20.203  0.00  0.00    +0.000 A 
ATOM      2  C   UNL     1       2.270   7.415  19.031  0.00  0.00    +0.000 A 
ATOM      3  C   UNL     1       2.486   6.087  18.679  0.00  0.00    +0.000 A 
ATOM      4  C   UNL     1       2.044   5.056  19.504  0.00  0.00    +0.000 A 
ATOM      5  C   UNL     1       1.458   5.371  20.743  0.00  0.00    +0.000 A 
ATOM      6  C   UNL     1       1.231   6.722  21.091  0.00  0.00    +0.000 A 
ENDROOT
BRANCH   1  12
ATOM      7  C   UNL     1      -0.579  12.726  21.761  0.00  0.00    +0.000 A 
ATOM      8  N   UNL     1      -0.794  12.334  23.009  0.00  0.00    +0.000 NA
ATOM      9  N   UNL     1      -0.361  11.035  23.092  0.00  0.00    +0.000 NA
ATOM     10  C   UNL     1       0.129  10.728  21.910  0.00  0.00    +0.000 A 
ATOM     11  N   UNL     1       0.630   9.498  21.588  0.00  0.00    +0.000 N 
ATOM     12  C   UNL     1       1.230   9.197  20.397  0.00  0.00    +0.000 C 
ATOM     13  O   UNL     1       1.444   9.991  19.484  0.00  0.00    +0.000 OA
ATOM     14  O   UNL     1       0.032  11.745  21.012  0.00  0.00    +0.000 OA
ATOM     15  H   UNL     1       0.487   8.804  22.306  0.00  0.00    +0.000 HD
BRANCH   7  19
ATOM     16  C   UNL     1      -1.480  16.466  19.891  0.00  0.00    +0.000 A 
ATOM     17  C   UNL     1      -0.677  15.521  19.257  0.00  0.00    +0.000 A 
ATOM     18  C   UNL     1      -0.418  14.291  19.866  0.00  0.00    +0.000 A 
ATOM     19  C   UNL     1      -0.942  13.988  21.134  0.00  0.00    +0.000 A 
ATOM     20  C   UNL     1      -1.750  14.943  21.765  0.00  0.00    +0.000 A 
ATOM     21  C   UNL     1      -2.013  16.179  21.147  0.00  0.00    +0.000 A 
BRANCH  16  23
ATOM     22  C   UNL     1      -0.636  17.927  18.232  0.00  0.00    +0.000 C 
ATOM     23  O   UNL     1      -1.633  17.640  19.206  0.00  0.00    +0.000 OA
ENDBRANCH  16  23
ENDBRANCH   7  19
ENDBRANCH   1  12
BRANCH   4  24
ATOM     24  S   UNL     1       2.187   3.343  18.986  0.00  0.00    +0.000 S 
ATOM     25  O   UNL     1       2.226   2.578  20.244  0.00  0.00    +0.000 OA
ATOM     26  O   UNL     1       1.156   3.108  18.022  0.00  0.00    +0.000 OA
BRANCH  24  27
ATOM     27  N   UNL     1       3.711   3.182  18.254  0.00  0.00    +0.000 NA
ATOM     28  C   UNL     1       4.810   3.499  19.165  0.00  0.00    +0.000 C 
ATOM     29  C   UNL     1       5.829   4.450  18.617  0.00  0.00    +0.000 C 
ATOM     30  C   UNL     1       5.772   4.871  17.188  0.00  0.00    +0.000 A 
ATOM     31  C   UNL     1       6.685   5.879  16.835  0.00  0.00    +0.000 A 
ATOM     32  C   UNL     1       7.356   5.788  15.641  0.00  0.00    +0.000 A 
ATOM     33  C   UNL     1       7.054   4.717  14.806  0.00  0.00    +0.000 A 
ATOM     34  C   UNL     1       5.956   3.844  15.089  0.00  0.00    +0.000 A 
ATOM     35  C   UNL     1       5.230   3.962  16.288  0.00  0.00    +0.000 A 
ATOM     36  C   UNL     1       3.943   3.245  16.752  0.00  0.00    +0.000 C 
ENDBRANCH  24  27
ENDBRANCH   4  24
TORSDOF 5
ENDMDL
MODEL 7
REMARK VINA RESULT:      -8.5      2.345      3.275
REMARK  Name = 
REMARK  6 active torsions:
REMARK  status: ('A' for Active; 'I' for Inactive)
REMARK    1  A    between atoms: C_1  and  O_2
REMARK    2  A    between atoms: O_2  and  C_3
REMARK    3  A    between atoms: C_6  and  C_7
REMARK    4  A    between atoms: C_12  and  C_14
REMARK    5  A    between atoms: C_17  and  S_18
REMARK    6  A    between atoms: S_18  and  N_21
REMARK                            x       y       z     vdW  Elec       q    Type
REMARK                         _______ _______ _______ _____ _____    ______ ____
ROOT
ATOM      1  C   UNL     1       0.445   9.861  21.122  0.00  0.00    +0.000 A 
ATOM      2  C   UNL     1      -0.264   9.441  22.250  0.00  0.00    +0.000 A 
ATOM      3  C   UNL     1      -1.106  10.314  22.933  0.00  0.00    +0.000 A 
ATOM      4  C   UNL     1      -1.241  11.636  22.519  0.00  0.00    +0.000 A 
ATOM      5  C   UNL     1      -0.448  12.108  21.459  0.00  0.00    +0.000 A 
ATOM      6  C   UNL     1       0.397  11.216  20.760  0.00  0.00    +0.000 A 
ENDROOT
BRANCH   1  12
ATOM      7  C   UNL     1       3.353   5.370  19.313  0.00  0.00    +0.000 A 
ATOM      8  N   UNL     1       2.876   4.577  20.263  0.00  0.00    +0.000 NA
ATOM      9  N   UNL     1       2.025   5.340  21.020  0.00  0.00    +0.000 NA
ATOM     10  C   UNL     1       1.998   6.534  20.466  0.00  0.00    +0.000 A 
ATOM     11  N   UNL     1       1.282   7.588  20.959  0.00  0.00    +0.000 N 
ATOM     12  C   UNL     1       1.170   8.801  20.338  0.00  0.00    +0.000 C 
ATOM     13  O   UNL     1       1.648   9.091  19.243  0.00  0.00    +0.000 OA
ATOM     14  O   UNL     1       2.809   6.634  19.378  0.00  0.00    +0.000 OA
ATOM     15  H   UNL     1       0.861   7.404  21.857  0.00  0.00    +0.000 HD
BRANCH   7  19
ATOM     16  C   UNL     1       6.332   4.659  16.326  0.00  0.00    +0.000 A 
ATOM     17  C   UNL     1       6.582   5.506  17.403  0.00  0.00    +0.000 A 
ATOM     18  C   UNL     1       5.611   5.704  18.387  0.00  0.00    +0.000 A 
ATOM     19  C   UNL     1       4.359   5.072  18.305  0.00  0.00    +0.000 A 
ATOM     20  C   UNL     1       4.115   4.219  17.221  0.00  0.00    +0.000 A 
ATOM     21  C   UNL     1       5.096   4.018  16.233  0.00  0.00    +0.000 A 
BRANCH  16  23
ATOM     22  C   UNL     1       6.956   4.431  14.056  0.00  0.00    +0.000 C 
ATOM     23  O   UNL     1       7.349   4.573  15.416  0.00  0.00    +0.000 OA
ENDBRANCH  16  23
ENDBRANCH   7  19
ENDBRANCH   1  12
BRANCH   4  24
ATOM     24  S   UNL     1      -2.435  12.724  23.304  0.00  0.00    +0.000 S 
ATOM     25  O   UNL     1      -3.413  11.814  23.923  0.00  0.00    +0.000 OA
ATOM     26  O   UNL     1      -1.696  13.653  24.102  0.00  0.00    +0.000 OA
BRANCH  24  27
ATOM     27  N   UNL     1      -3.237  13.547  22.053  0.00  0.00    +0.000 NA
ATOM     28  C   UNL     1      -3.687  14.880  22.453  0.00  0.00    +0.000 C 
ATOM     29  C   UNL     1      -5.117  15.186  22.131  0.00  0.00    +0.000 C 
ATOM     30  C   UNL     1      -5.922  14.237  21.311  0.00  0.00    +0.000 A 
ATOM     31  C   UNL     1      -7.286  14.559  21.207  0.00  0.00    +0.000 A 
ATOM     32  C   UNL     1      -7.917  14.425  19.996  0.00  0.00    +0.000 A 
ATOM     33  C   UNL     1      -7.178  13.919  18.931  0.00  0.00    +0.000 A 
ATOM     34  C   UNL     1      -5.866  13.383  19.128  0.00  0.00    +0.000 A 
ATOM     35  C   UNL     1      -5.231  13.471  20.379  0.00  0.00    +0.000 A 
ATOM     36  C   UNL     1      -3.902  12.857  20.871  0.00  0.00    +0.000 C 
ENDBRANCH  24  27
ENDBRANCH   4  24
TORSDOF 5
ENDMDL
MODEL 8
REMARK VINA RESULT:      -8.4      4.529     11.664
REMARK  Name = 
REMARK  6 active torsions:
REMARK  status: ('A' for Active; 'I' for Inactive)
REMARK    1  A    between atoms: C_1  and  O_2
REMARK    2  A    between atoms: O_2  and  C_3
REMARK    3  A    between atoms: C_6  and  C_7
REMARK    4  A    between atoms: C_12  and  C_14
REMARK    5  A    between atoms: C_17  and  S_18
REMARK    6  A    between atoms: S_18  and  N_21
REMARK                            x       y       z     vdW  Elec       q    Type
REMARK                         _______ _______ _______ _____ _____    ______ ____
ROOT
ATOM      1  C   UNL     1       1.542   8.518  19.337  0.00  0.00    +0.000 A 
ATOM      2  C   UNL     1       2.063   7.836  18.234  0.00  0.00    +0.000 A 
ATOM      3  C   UNL     1       2.361   6.479  18.304  0.00  0.00    +0.000 A 
ATOM      4  C   UNL     1       2.167   5.773  19.489  0.00  0.00    +0.000 A 
ATOM      5  C   UNL     1       1.755   6.465  20.641  0.00  0.00    +0.000 A 
ATOM      6  C   UNL     1       1.442   7.841  20.562  0.00  0.00    +0.000 A 
ENDROOT
BRANCH   1  12
ATOM      7  C   UNL     1       0.961  14.102  18.729  0.00  0.00    +0.000 A 
ATOM      8  N   UNL     1       2.188  14.260  18.251  0.00  0.00    +0.000 NA
ATOM      9  N   UNL     1       2.759  13.014  18.218  0.00  0.00    +0.000 NA
ATOM     10  C   UNL     1       1.839  12.169  18.633  0.00  0.00    +0.000 A 
ATOM     11  N   UNL     1       2.044  10.825  18.772  0.00  0.00    +0.000 N 
ATOM     12  C   UNL     1       1.069   9.927  19.107  0.00  0.00    +0.000 C 
ATOM     13  O   UNL     1      -0.119  10.192  19.278  0.00  0.00    +0.000 OA
ATOM     14  O   UNL     1       0.671  12.778  18.972  0.00  0.00    +0.000 OA
ATOM     15  H   UNL     1       3.004  10.548  18.637  0.00  0.00    +0.000 HD
BRANCH   7  19
ATOM     16  C   UNL     1      -1.816  17.218  19.666  0.00  0.00    +0.000 A 
ATOM     17  C   UNL     1      -0.873  17.377  18.654  0.00  0.00    +0.000 A 
ATOM     18  C   UNL     1       0.007  16.339  18.338  0.00  0.00    +0.000 A 
ATOM     19  C   UNL     1      -0.026  15.124  19.042  0.00  0.00    +0.000 A 
ATOM     20  C   UNL     1      -0.979  14.970  20.058  0.00  0.00    +0.000 A 
ATOM     21  C   UNL     1      -1.866  16.016  20.372  0.00  0.00    +0.000 A 
BRANCH  16  23
ATOM     22  C   UNL     1      -3.633  18.555  18.954  0.00  0.00    +0.000 C 
ATOM     23  O   UNL     1      -2.597  18.316  19.899  0.00  0.00    +0.000 OA
ENDBRANCH  16  23
ENDBRANCH   7  19
ENDBRANCH   1  12
BRANCH   4  24
ATOM     24  S   UNL     1       2.407   3.994  19.545  0.00  0.00    +0.000 S 
ATOM     25  O   UNL     1       2.661   3.700  20.965  0.00  0.00    +0.000 OA
ATOM     26  O   UNL     1       1.299   3.399  18.864  0.00  0.00    +0.000 OA
BRANCH  24  27
ATOM     27  N   UNL     1       3.846   3.672  18.701  0.00  0.00    +0.000 NA
ATOM     28  C   UNL     1       5.030   4.183  19.390  0.00  0.00    +0.000 C 
ATOM     29  C   UNL     1       5.960   4.986  18.533  0.00  0.00    +0.000 C 
ATOM     30  C   UNL     1       5.738   5.077  17.062  0.00  0.00    +0.000 A 
ATOM     31  C   UNL     1       6.582   5.979  16.394  0.00  0.00    +0.000 A 
ATOM     32  C   UNL     1       7.120   5.623  15.183  0.00  0.00    +0.000 A 
ATOM     33  C   UNL     1       6.754   4.392  14.646  0.00  0.00    +0.000 A 
ATOM     34  C   UNL     1       5.715   3.607  15.237  0.00  0.00    +0.000 A 
ATOM     35  C   UNL     1       5.122   3.990  16.453  0.00  0.00    +0.000 A 
ATOM     36  C   UNL     1       3.910   3.397  17.206  0.00  0.00    +0.000 C 
ENDBRANCH  24  27
ENDBRANCH   4  24
TORSDOF 5
ENDMDL
MODEL 9
REMARK VINA RESULT:      -8.3      2.275      3.302
REMARK  Name = 
REMARK  6 active torsions:
REMARK  status: ('A' for Active; 'I' for Inactive)
REMARK    1  A    between atoms: C_1  and  O_2
REMARK    2  A    between atoms: O_2  and  C_3
REMARK    3  A    between atoms: C_6  and  C_7
REMARK    4  A    between atoms: C_12  and  C_14
REMARK    5  A    between atoms: C_17  and  S_18
REMARK    6  A    between atoms: S_18  and  N_21
REMARK                            x       y       z     vdW  Elec       q    Type
REMARK                         _______ _______ _______ _____ _____    ______ ____
ROOT
ATOM      1  C   UNL     1       0.544  11.224  20.030  0.00  0.00    +0.000 A 
ATOM      2  C   UNL     1      -0.034  11.033  21.288  0.00  0.00    +0.000 A 
ATOM      3  C   UNL     1      -0.769  12.043  21.901  0.00  0.00    +0.000 A 
ATOM      4  C   UNL     1      -0.925  13.279  21.281  0.00  0.00    +0.000 A 
ATOM      5  C   UNL     1      -0.255  13.530  20.070  0.00  0.00    +0.000 A 
ATOM      6  C   UNL     1       0.481  12.498  19.445  0.00  0.00    +0.000 A 
ENDROOT
BRANCH   1  12
ATOM      7  C   UNL     1       3.078   6.351  18.714  0.00  0.00    +0.000 A 
ATOM      8  N   UNL     1       2.658   5.742  19.814  0.00  0.00    +0.000 NA
ATOM      9  N   UNL     1       1.913   6.659  20.511  0.00  0.00    +0.000 NA
ATOM     10  C   UNL     1       1.886   7.753  19.779  0.00  0.00    +0.000 A 
ATOM     11  N   UNL     1       1.265   8.909  20.158  0.00  0.00    +0.000 N 
ATOM     12  C   UNL     1       1.147  10.017  19.365  0.00  0.00    +0.000 C 
ATOM     13  O   UNL     1       1.533  10.108  18.201  0.00  0.00    +0.000 OA
ATOM     14  O   UNL     1       2.596   7.638  18.624  0.00  0.00    +0.000 OA
ATOM     15  H   UNL     1       0.921   8.890  21.106  0.00  0.00    +0.000 HD
BRANCH   7  19
ATOM     16  C   UNL     1       5.754   4.738  15.792  0.00  0.00    +0.000 A 
ATOM     17  C   UNL     1       4.793   3.938  16.405  0.00  0.00    +0.000 A 
ATOM     18  C   UNL     1       3.905   4.486  17.334  0.00  0.00    +0.000 A 
ATOM     19  C   UNL     1       3.973   5.845  17.684  0.00  0.00    +0.000 A 
ATOM     20  C   UNL     1       4.941   6.645  17.062  0.00  0.00    +0.000 A 
ATOM     21  C   UNL     1       5.831   6.091  16.124  0.00  0.00    +0.000 A 
BRANCH  16  23
ATOM     22  C   UNL     1       6.062   3.853  13.620  0.00  0.00    +0.000 C 
ATOM     23  O   UNL     1       6.581   4.078  14.926  0.00  0.00    +0.000 OA
ENDBRANCH  16  23
ENDBRANCH   7  19
ENDBRANCH   1  12
BRANCH   4  24
ATOM     24  S   UNL     1      -1.993  14.533  21.995  0.00  0.00    +0.000 S 
ATOM     25  O   UNL     1      -2.095  14.166  23.418  0.00  0.00    +0.000 OA
ATOM     26  O   UNL     1      -1.466  15.805  21.607  0.00  0.00    +0.000 OA
BRANCH  24  27
ATOM     27  N   UNL     1      -3.531  14.310  21.309  0.00  0.00    +0.000 NA
ATOM     28  C   UNL     1      -4.554  15.148  21.934  0.00  0.00    +0.000 C 
ATOM     29  C   UNL     1      -5.801  14.423  22.338  0.00  0.00    +0.000 C 
ATOM     30  C   UNL     1      -6.001  12.998  21.951  0.00  0.00    +0.000 A 
ATOM     31  C   UNL     1      -7.133  12.388  22.517  0.00  0.00    +0.000 A 
ATOM     32  C   UNL     1      -7.910  11.565  21.741  0.00  0.00    +0.000 A 
ATOM     33  C   UNL     1      -7.502  11.330  20.431  0.00  0.00    +0.000 A 
ATOM     34  C   UNL     1      -6.226  11.776  19.963  0.00  0.00    +0.000 A 
ATOM     35  C   UNL     1      -5.400  12.578  20.770  0.00  0.00    +0.000 A 
ATOM     36  C   UNL     1      -3.949  13.060  20.549  0.00  0.00    +0.000 C 
ENDBRANCH  24  27
ENDBRANCH   4  24
TORSDOF 5
ENDMDL
