MODEL 1
REMARK VINA RESULT:      -7.6      0.000      0.000
REMARK  Name = 
REMARK  8 active torsions:
REMARK  status: ('A' for Active; 'I' for Inactive)
REMARK    1  A    between atoms: C_1  and  C_2
REMARK    2  A    between atoms: C_5  and  C_6
REMARK    3  A    between atoms: C_6  and  N_7
REMARK    4  A    between atoms: N_10  and  N_11
REMARK    5  A    between atoms: C_12  and  C_13
REMARK    6  A    between atoms: C_16  and  N_17
REMARK    7  A    between atoms: N_17  and  C_18
REMARK    8  A    between atoms: N_17  and  C_19
REMARK                            x       y       z     vdW  Elec       q    Type
REMARK                         _______ _______ _______ _____ _____    ______ ____
ROOT
ATOM      1  N   UNL     1       5.149   5.178  17.301  0.00  0.00    +0.000 NA
ATOM      2  C   UNL     1       5.339   5.627  18.688  0.00  0.00    +0.000 C 
ATOM      3  C   UNL     1       6.833   5.489  18.984  0.00  0.00    +0.000 C 
ATOM      4  N   UNL     1       7.698   6.312  18.115  0.00  0.00    +0.000 N 
ATOM      5  C   UNL     1       7.271   6.271  16.697  0.00  0.00    +0.000 C 
ATOM      6  C   UNL     1       5.746   6.183  16.420  0.00  0.00    +0.000 C 
ENDROOT
BRANCH   4   7
ATOM      7  N   UNL     1       8.106   7.474  18.675  0.00  0.00    +0.000 NA
ATOM      8  C   UNL     1       7.938   8.501  17.898  0.00  0.00    +0.000 C 
BRANCH   8   9
ATOM      9  C   UNL     1       8.581   9.793  18.208  0.00  0.00    +0.000 A 
ATOM     10  C   UNL     1       8.257  10.921  17.459  0.00  0.00    +0.000 A 
ATOM     11  C   UNL     1       8.785  12.167  17.805  0.00  0.00    +0.000 A 
ATOM     12  C   UNL     1       9.661  12.332  18.890  0.00  0.00    +0.000 A 
ATOM     13  C   UNL     1       9.958  11.175  19.633  0.00  0.00    +0.000 A 
ATOM     14  C   UNL     1       9.421   9.917  19.308  0.00  0.00    +0.000 A 
BRANCH  12  15
ATOM     15  N   UNL     1      10.175  13.576  19.208  0.00  0.00    +0.000 N 
ATOM     16  C   UNL     1       9.453  14.817  18.955  0.00  0.00    +0.000 C 
ATOM     17  C   UNL     1      11.427  13.713  19.945  0.00  0.00    +0.000 C 
ENDBRANCH  12  15
ENDBRANCH   8   9
ENDBRANCH   4   7
BRANCH   1  18
ATOM     18  C   UNL     1       3.794   4.752  16.981  0.00  0.00    +0.000 C 
BRANCH  18  23
ATOM     19  C   UNL     1       1.417   2.535  21.841  0.00  0.00    +0.000 C 
ATOM     20  C   UNL     1       2.004   3.099  20.582  0.00  0.00    +0.000 A 
ATOM     21  C   UNL     1       1.496   4.272  20.011  0.00  0.00    +0.000 A 
ATOM     22  C   UNL     1       2.052   4.793  18.838  0.00  0.00    +0.000 A 
ATOM     23  C   UNL     1       3.129   4.153  18.214  0.00  0.00    +0.000 A 
ATOM     24  C   UNL     1       3.626   2.968  18.783  0.00  0.00    +0.000 A 
ATOM     25  C   UNL     1       3.074   2.451  19.958  0.00  0.00    +0.000 A 
ENDBRANCH  18  23
ENDBRANCH   1  18
TORSDOF 5
ENDMDL
MODEL 2
REMARK VINA RESULT:      -7.6      0.676      1.493
REMARK  Name = 
REMARK  8 active torsions:
REMARK  status: ('A' for Active; 'I' for Inactive)
REMARK    1  A    between atoms: C_1  and  C_2
REMARK    2  A    between atoms: C_5  and  C_6
REMARK    3  A    between atoms: C_6  and  N_7
REMARK    4  A    between atoms: N_10  and  N_11
REMARK    5  A    between atoms: C_12  and  C_13
REMARK    6  A    between atoms: C_16  and  N_17
REMARK    7  A    between atoms: N_17  and  C_18
REMARK    8  A    between atoms: N_17  and  C_19
REMARK                            x       y       z     vdW  Elec       q    Type
REMARK                         _______ _______ _______ _____ _____    ______ ____
ROOT
ATOM      1  N   UNL     1       5.009   4.881  17.017  0.00  0.00    +0.000 NA
ATOM      2  C   UNL     1       4.986   5.975  17.999  0.00  0.00    +0.000 C 
ATOM      3  C   UNL     1       6.428   6.161  18.471  0.00  0.00    +0.000 C 
ATOM      4  N   UNL     1       7.370   6.534  17.397  0.00  0.00    +0.000 N 
ATOM      5  C   UNL     1       7.147   5.753  16.159  0.00  0.00    +0.000 C 
ATOM      6  C   UNL     1       5.680   5.377  15.814  0.00  0.00    +0.000 C 
ENDROOT
BRANCH   4   7
ATOM      7  N   UNL     1       7.646   7.857  17.332  0.00  0.00    +0.000 NA
ATOM      8  C   UNL     1       8.483   8.249  18.244  0.00  0.00    +0.000 C 
BRANCH   8   9
ATOM      9  C   UNL     1       8.680   9.685  18.519  0.00  0.00    +0.000 A 
ATOM     10  C   UNL     1       9.276  10.083  19.713  0.00  0.00    +0.000 A 
ATOM     11  C   UNL     1       9.555  11.432  19.941  0.00  0.00    +0.000 A 
ATOM     12  C   UNL     1       9.237  12.430  19.005  0.00  0.00    +0.000 A 
ATOM     13  C   UNL     1       8.646  11.993  17.806  0.00  0.00    +0.000 A 
ATOM     14  C   UNL     1       8.375  10.637  17.553  0.00  0.00    +0.000 A 
BRANCH  12  15
ATOM     15  N   UNL     1       9.518  13.760  19.258  0.00  0.00    +0.000 N 
ATOM     16  C   UNL     1       8.893  14.853  18.523  0.00  0.00    +0.000 C 
ATOM     17  C   UNL     1      10.366  14.156  20.378  0.00  0.00    +0.000 C 
ENDBRANCH  12  15
ENDBRANCH   8   9
ENDBRANCH   4   7
BRANCH   1  18
ATOM     18  C   UNL     1       3.731   4.212  16.823  0.00  0.00    +0.000 C 
BRANCH  18  23
ATOM     19  C   UNL     1       1.282   2.603  21.882  0.00  0.00    +0.000 C 
ATOM     20  C   UNL     1       1.930   3.028  20.599  0.00  0.00    +0.000 A 
ATOM     21  C   UNL     1       3.192   2.546  20.232  0.00  0.00    +0.000 A 
ATOM     22  C   UNL     1       3.787   2.945  19.030  0.00  0.00    +0.000 A 
ATOM     23  C   UNL     1       3.130   3.831  18.170  0.00  0.00    +0.000 A 
ATOM     24  C   UNL     1       1.869   4.324  18.549  0.00  0.00    +0.000 A 
ATOM     25  C   UNL     1       1.273   3.921  19.747  0.00  0.00    +0.000 A 
ENDBRANCH  18  23
ENDBRANCH   1  18
TORSDOF 5
ENDMDL
MODEL 3
REMARK VINA RESULT:      -7.5      0.174      1.199
REMARK  Name = 
REMARK  8 active torsions:
REMARK  status: ('A' for Active; 'I' for Inactive)
REMARK    1  A    between atoms: C_1  and  C_2
REMARK    2  A    between atoms: C_5  and  C_6
REMARK    3  A    between atoms: C_6  and  N_7
REMARK    4  A    between atoms: N_10  and  N_11
REMARK    5  A    between atoms: C_12  and  C_13
REMARK    6  A    between atoms: C_16  and  N_17
REMARK    7  A    between atoms: N_17  and  C_18
REMARK    8  A    between atoms: N_17  and  C_19
REMARK                            x       y       z     vdW  Elec       q    Type
REMARK                         _______ _______ _______ _____ _____    ______ ____
ROOT
ATOM      1  N   UNL     1       5.303   5.105  17.273  0.00  0.00    +0.000 NA
ATOM      2  C   UNL     1       5.524   5.504  18.670  0.00  0.00    +0.000 C 
ATOM      3  C   UNL     1       7.037   5.478  18.892  0.00  0.00    +0.000 C 
ATOM      4  N   UNL     1       7.788   6.410  18.027  0.00  0.00    +0.000 N 
ATOM      5  C   UNL     1       7.297   6.400  16.630  0.00  0.00    +0.000 C 
ATOM      6  C   UNL     1       5.773   6.196  16.418  0.00  0.00    +0.000 C 
ENDROOT
BRANCH   4   7
ATOM      7  N   UNL     1       8.126   7.576  18.627  0.00  0.00    +0.000 NA
ATOM      8  C   UNL     1       8.048   8.599  17.832  0.00  0.00    +0.000 C 
BRANCH   8   9
ATOM      9  C   UNL     1       8.648   9.894  18.208  0.00  0.00    +0.000 A 
ATOM     10  C   UNL     1       8.280  11.050  17.524  0.00  0.00    +0.000 A 
ATOM     11  C   UNL     1       8.768  12.292  17.935  0.00  0.00    +0.000 A 
ATOM     12  C   UNL     1       9.645  12.428  19.023  0.00  0.00    +0.000 A 
ATOM     13  C   UNL     1       9.987  11.243  19.699  0.00  0.00    +0.000 A 
ATOM     14  C   UNL     1       9.492   9.987  19.309  0.00  0.00    +0.000 A 
BRANCH  12  15
ATOM     15  N   UNL     1      10.119  13.670  19.406  0.00  0.00    +0.000 N 
ATOM     16  C   UNL     1      11.485  13.886  19.866  0.00  0.00    +0.000 C 
ATOM     17  C   UNL     1       9.308  14.873  19.245  0.00  0.00    +0.000 C 
ENDBRANCH  12  15
ENDBRANCH   8   9
ENDBRANCH   4   7
BRANCH   1  18
ATOM     18  C   UNL     1       3.974   4.582  16.994  0.00  0.00    +0.000 C 
BRANCH  18  23
ATOM     19  C   UNL     1       1.310   2.598  21.805  0.00  0.00    +0.000 C 
ATOM     20  C   UNL     1       2.015   3.112  20.586  0.00  0.00    +0.000 A 
ATOM     21  C   UNL     1       3.139   2.455  20.071  0.00  0.00    +0.000 A 
ATOM     22  C   UNL     1       3.788   2.940  18.930  0.00  0.00    +0.000 A 
ATOM     23  C   UNL     1       3.325   4.089  18.281  0.00  0.00    +0.000 A 
ATOM     24  C   UNL     1       2.205   4.753  18.810  0.00  0.00    +0.000 A 
ATOM     25  C   UNL     1       1.553   4.265  19.946  0.00  0.00    +0.000 A 
ENDBRANCH  18  23
ENDBRANCH   1  18
TORSDOF 5
ENDMDL
MODEL 4
REMARK VINA RESULT:      -7.2      1.625      2.369
REMARK  Name = 
REMARK  8 active torsions:
REMARK  status: ('A' for Active; 'I' for Inactive)
REMARK    1  A    between atoms: C_1  and  C_2
REMARK    2  A    between atoms: C_5  and  C_6
REMARK    3  A    between atoms: C_6  and  N_7
REMARK    4  A    between atoms: N_10  and  N_11
REMARK    5  A    between atoms: C_12  and  C_13
REMARK    6  A    between atoms: C_16  and  N_17
REMARK    7  A    between atoms: N_17  and  C_18
REMARK    8  A    between atoms: N_17  and  C_19
REMARK                            x       y       z     vdW  Elec       q    Type
REMARK                         _______ _______ _______ _____ _____    ______ ____
ROOT
ATOM      1  N   UNL     1       5.359   5.502  17.837  0.00  0.00    +0.000 NA
ATOM      2  C   UNL     1       6.015   5.666  19.142  0.00  0.00    +0.000 C 
ATOM      3  C   UNL     1       7.517   5.732  18.864  0.00  0.00    +0.000 C 
ATOM      4  N   UNL     1       7.921   6.863  18.004  0.00  0.00    +0.000 N 
ATOM      5  C   UNL     1       7.000   7.056  16.861  0.00  0.00    +0.000 C 
ATOM      6  C   UNL     1       5.496   6.762  17.107  0.00  0.00    +0.000 C 
ENDROOT
BRANCH   4   7
ATOM      7  N   UNL     1       8.408   7.930  18.680  0.00  0.00    +0.000 NA
ATOM      8  C   UNL     1       8.164   9.061  18.092  0.00  0.00    +0.000 C 
BRANCH   8   9
ATOM      9  C   UNL     1       8.856  10.295  18.513  0.00  0.00    +0.000 A 
ATOM     10  C   UNL     1       9.574  10.310  19.705  0.00  0.00    +0.000 A 
ATOM     11  C   UNL     1      10.312  11.439  20.065  0.00  0.00    +0.000 A 
ATOM     12  C   UNL     1      10.347  12.594  19.267  0.00  0.00    +0.000 A 
ATOM     13  C   UNL     1       9.620  12.542  18.063  0.00  0.00    +0.000 A 
ATOM     14  C   UNL     1       8.887  11.406  17.679  0.00  0.00    +0.000 A 
BRANCH  12  15
ATOM     15  N   UNL     1      11.081  13.703  19.648  0.00  0.00    +0.000 N 
ATOM     16  C   UNL     1      10.788  14.465  20.856  0.00  0.00    +0.000 C 
ATOM     17  C   UNL     1      12.285  14.100  18.927  0.00  0.00    +0.000 C 
ENDBRANCH  12  15
ENDBRANCH   8   9
ENDBRANCH   4   7
BRANCH   1  18
ATOM     18  C   UNL     1       4.025   4.923  17.898  0.00  0.00    +0.000 C 
BRANCH  18  23
ATOM     19  C   UNL     1       0.704   8.323  21.303  0.00  0.00    +0.000 C 
ATOM     20  C   UNL     1       1.536   7.451  20.411  0.00  0.00    +0.000 A 
ATOM     21  C   UNL     1       2.021   7.926  19.187  0.00  0.00    +0.000 A 
ATOM     22  C   UNL     1       2.800   7.107  18.362  0.00  0.00    +0.000 A 
ATOM     23  C   UNL     1       3.113   5.798  18.748  0.00  0.00    +0.000 A 
ATOM     24  C   UNL     1       2.612   5.323  19.972  0.00  0.00    +0.000 A 
ATOM     25  C   UNL     1       1.838   6.143  20.798  0.00  0.00    +0.000 A 
ENDBRANCH  18  23
ENDBRANCH   1  18
TORSDOF 5
ENDMDL
MODEL 5
REMARK VINA RESULT:      -7.2      1.611      2.211
REMARK  Name = 
REMARK  8 active torsions:
REMARK  status: ('A' for Active; 'I' for Inactive)
REMARK    1  A    between atoms: C_1  and  C_2
REMARK    2  A    between atoms: C_5  and  C_6
REMARK    3  A    between atoms: C_6  and  N_7
REMARK    4  A    between atoms: N_10  and  N_11
REMARK    5  A    between atoms: C_12  and  C_13
REMARK    6  A    between atoms: C_16  and  N_17
REMARK    7  A    between atoms: N_17  and  C_18
REMARK    8  A    between atoms: N_17  and  C_19
REMARK                            x       y       z     vdW  Elec       q    Type
REMARK                         _______ _______ _______ _____ _____    ______ ____
ROOT
ATOM      1  N   UNL     1       4.931   5.447  17.667  0.00  0.00    +0.000 NA
ATOM      2  C   UNL     1       5.498   5.687  19.002  0.00  0.00    +0.000 C 
ATOM      3  C   UNL     1       7.007   5.480  18.873  0.00  0.00    +0.000 C 
ATOM      4  N   UNL     1       7.663   6.404  17.926  0.00  0.00    +0.000 N 
ATOM      5  C   UNL     1       6.884   6.577  16.679  0.00  0.00    +0.000 C 
ATOM      6  C   UNL     1       5.336   6.557  16.804  0.00  0.00    +0.000 C 
ENDROOT
BRANCH   4   7
ATOM      7  N   UNL     1       8.265   7.466  18.511  0.00  0.00    +0.000 NA
ATOM      8  C   UNL     1       7.875   8.605  18.025  0.00  0.00    +0.000 C 
BRANCH   8   9
ATOM      9  C   UNL     1       8.618   9.845  18.321  0.00  0.00    +0.000 A 
ATOM     10  C   UNL     1       8.463  10.956  17.496  0.00  0.00    +0.000 A 
ATOM     11  C   UNL     1       9.085  12.163  17.821  0.00  0.00    +0.000 A 
ATOM     12  C   UNL     1       9.892  12.304  18.962  0.00  0.00    +0.000 A 
ATOM     13  C   UNL     1      10.018  11.166  19.781  0.00  0.00    +0.000 A 
ATOM     14  C   UNL     1       9.385   9.950  19.476  0.00  0.00    +0.000 A 
BRANCH  12  15
ATOM     15  N   UNL     1      10.502  13.509  19.260  0.00  0.00    +0.000 N 
ATOM     16  C   UNL     1      11.739  13.946  18.623  0.00  0.00    +0.000 C 
ATOM     17  C   UNL     1       9.866  14.484  20.140  0.00  0.00    +0.000 C 
ENDBRANCH  12  15
ENDBRANCH   8   9
ENDBRANCH   4   7
BRANCH   1  18
ATOM     18  C   UNL     1       3.519   5.096  17.661  0.00  0.00    +0.000 C 
BRANCH  18  23
ATOM     19  C   UNL     1       0.771   8.521  21.522  0.00  0.00    +0.000 C 
ATOM     20  C   UNL     1       1.456   7.648  20.514  0.00  0.00    +0.000 A 
ATOM     21  C   UNL     1       1.967   8.181  19.325  0.00  0.00    +0.000 A 
ATOM     22  C   UNL     1       2.609   7.359  18.392  0.00  0.00    +0.000 A 
ATOM     23  C   UNL     1       2.754   5.988  18.631  0.00  0.00    +0.000 A 
ATOM     24  C   UNL     1       2.226   5.455  19.820  0.00  0.00    +0.000 A 
ATOM     25  C   UNL     1       1.590   6.277  20.754  0.00  0.00    +0.000 A 
ENDBRANCH  18  23
ENDBRANCH   1  18
TORSDOF 5
ENDMDL
MODEL 6
REMARK VINA RESULT:      -7.1      5.493      8.061
REMARK  Name = 
REMARK  8 active torsions:
REMARK  status: ('A' for Active; 'I' for Inactive)
REMARK    1  A    between atoms: C_1  and  C_2
REMARK    2  A    between atoms: C_5  and  C_6
REMARK    3  A    between atoms: C_6  and  N_7
REMARK    4  A    between atoms: N_10  and  N_11
REMARK    5  A    between atoms: C_12  and  C_13
REMARK    6  A    between atoms: C_16  and  N_17
REMARK    7  A    between atoms: N_17  and  C_18
REMARK    8  A    between atoms: N_17  and  C_19
REMARK                            x       y       z     vdW  Elec       q    Type
REMARK                         _______ _______ _______ _____ _____    ______ ____
ROOT
ATOM      1  N   UNL     1       4.483   5.803  18.298  0.00  0.00    +0.000 NA
ATOM      2  C   UNL     1       4.423   7.214  17.887  0.00  0.00    +0.000 C 
ATOM      3  C   UNL     1       2.951   7.520  17.611  0.00  0.00    +0.000 C 
ATOM      4  N   UNL     1       2.070   7.349  18.784  0.00  0.00    +0.000 N 
ATOM      5  C   UNL     1       2.385   6.121  19.549  0.00  0.00    +0.000 C 
ATOM      6  C   UNL     1       3.878   5.700  19.626  0.00  0.00    +0.000 C 
ENDROOT
BRANCH   4   7
ATOM      7  N   UNL     1       1.771   8.501  19.429  0.00  0.00    +0.000 NA
ATOM      8  C   UNL     1       1.237   8.308  20.596  0.00  0.00    +0.000 C 
BRANCH   8   9
ATOM      9  C   UNL     1       0.582   9.416  21.318  0.00  0.00    +0.000 A 
ATOM     10  C   UNL     1       0.576  10.693  20.762  0.00  0.00    +0.000 A 
ATOM     11  C   UNL     1      -0.123  11.726  21.389  0.00  0.00    +0.000 A 
ATOM     12  C   UNL     1      -0.822  11.534  22.591  0.00  0.00    +0.000 A 
ATOM     13  C   UNL     1      -0.806  10.230  23.120  0.00  0.00    +0.000 A 
ATOM     14  C   UNL     1      -0.121   9.175  22.492  0.00  0.00    +0.000 A 
BRANCH  12  15
ATOM     15  N   UNL     1      -1.502  12.576  23.195  0.00  0.00    +0.000 N 
ATOM     16  C   UNL     1      -0.923  13.903  23.364  0.00  0.00    +0.000 C 
ATOM     17  C   UNL     1      -2.902  12.443  23.584  0.00  0.00    +0.000 C 
ENDBRANCH  12  15
ENDBRANCH   8   9
ENDBRANCH   4   7
BRANCH   1  18
ATOM     18  C   UNL     1       5.784   5.175  18.122  0.00  0.00    +0.000 C 
BRANCH  18  23
ATOM     19  C   UNL     1       6.347   3.756  12.478  0.00  0.00    +0.000 C 
ATOM     20  C   UNL     1       6.226   4.109  13.931  0.00  0.00    +0.000 A 
ATOM     21  C   UNL     1       7.103   5.023  14.527  0.00  0.00    +0.000 A 
ATOM     22  C   UNL     1       6.981   5.349  15.882  0.00  0.00    +0.000 A 
ATOM     23  C   UNL     1       5.977   4.770  16.667  0.00  0.00    +0.000 A 
ATOM     24  C   UNL     1       5.109   3.842  16.067  0.00  0.00    +0.000 A 
ATOM     25  C   UNL     1       5.228   3.520  14.712  0.00  0.00    +0.000 A 
ENDBRANCH  18  23
ENDBRANCH   1  18
TORSDOF 5
ENDMDL
MODEL 7
REMARK VINA RESULT:      -7.0      5.283      8.121
REMARK  Name = 
REMARK  8 active torsions:
REMARK  status: ('A' for Active; 'I' for Inactive)
REMARK    1  A    between atoms: C_1  and  C_2
REMARK    2  A    between atoms: C_5  and  C_6
REMARK    3  A    between atoms: C_6  and  N_7
REMARK    4  A    between atoms: N_10  and  N_11
REMARK    5  A    between atoms: C_12  and  C_13
REMARK    6  A    between atoms: C_16  and  N_17
REMARK    7  A    between atoms: N_17  and  C_18
REMARK    8  A    between atoms: N_17  and  C_19
REMARK                            x       y       z     vdW  Elec       q    Type
REMARK                         _______ _______ _______ _____ _____    ______ ____
ROOT
ATOM      1  N   UNL     1       4.808   5.561  18.194  0.00  0.00    +0.000 NA
ATOM      2  C   UNL     1       4.391   6.851  17.625  0.00  0.00    +0.000 C 
ATOM      3  C   UNL     1       2.863   6.860  17.654  0.00  0.00    +0.000 C 
ATOM      4  N   UNL     1       2.285   6.752  19.008  0.00  0.00    +0.000 N 
ATOM      5  C   UNL     1       2.982   5.741  19.837  0.00  0.00    +0.000 C 
ATOM      6  C   UNL     1       4.513   5.589  19.627  0.00  0.00    +0.000 C 
ENDROOT
BRANCH   4   7
ATOM      7  N   UNL     1       1.901   7.933  19.547  0.00  0.00    +0.000 NA
ATOM      8  C   UNL     1       1.158   7.795  20.603  0.00  0.00    +0.000 C 
BRANCH   8   9
ATOM      9  C   UNL     1       0.409   8.941  21.152  0.00  0.00    +0.000 A 
ATOM     10  C   UNL     1       0.089   8.970  22.507  0.00  0.00    +0.000 A 
ATOM     11  C   UNL     1      -0.534  10.092  23.056  0.00  0.00    +0.000 A 
ATOM     12  C   UNL     1      -0.874  11.213  22.280  0.00  0.00    +0.000 A 
ATOM     13  C   UNL     1      -0.525  11.156  20.918  0.00  0.00    +0.000 A 
ATOM     14  C   UNL     1       0.117  10.041  20.354  0.00  0.00    +0.000 A 
BRANCH  12  15
ATOM     15  N   UNL     1      -1.496  12.311  22.847  0.00  0.00    +0.000 N 
ATOM     16  C   UNL     1      -2.799  12.232  23.495  0.00  0.00    +0.000 C 
ATOM     17  C   UNL     1      -0.817  13.599  22.947  0.00  0.00    +0.000 C 
ENDBRANCH  12  15
ENDBRANCH   8   9
ENDBRANCH   4   7
BRANCH   1  18
ATOM     18  C   UNL     1       6.145   5.132  17.811  0.00  0.00    +0.000 C 
BRANCH  18  23
ATOM     19  C   UNL     1       6.430   3.615  12.172  0.00  0.00    +0.000 C 
ATOM     20  C   UNL     1       6.335   4.018  13.613  0.00  0.00    +0.000 A 
ATOM     21  C   UNL     1       5.266   3.596  14.412  0.00  0.00    +0.000 A 
ATOM     22  C   UNL     1       5.187   3.974  15.757  0.00  0.00    +0.000 A 
ATOM     23  C   UNL     1       6.178   4.779  16.330  0.00  0.00    +0.000 A 
ATOM     24  C   UNL     1       7.242   5.212  15.520  0.00  0.00    +0.000 A 
ATOM     25  C   UNL     1       7.323   4.830  14.178  0.00  0.00    +0.000 A 
ENDBRANCH  18  23
ENDBRANCH   1  18
TORSDOF 5
ENDMDL
MODEL 8
REMARK VINA RESULT:      -6.9      5.293      8.165
REMARK  Name = 
REMARK  8 active torsions:
REMARK  status: ('A' for Active; 'I' for Inactive)
REMARK    1  A    between atoms: C_1  and  C_2
REMARK    2  A    between atoms: C_5  and  C_6
REMARK    3  A    between atoms: C_6  and  N_7
REMARK    4  A    between atoms: N_10  and  N_11
REMARK    5  A    between atoms: C_12  and  C_13
REMARK    6  A    between atoms: C_16  and  N_17
REMARK    7  A    between atoms: N_17  and  C_18
REMARK    8  A    between atoms: N_17  and  C_19
REMARK                            x       y       z     vdW  Elec       q    Type
REMARK                         _______ _______ _______ _____ _____    ______ ____
ROOT
ATOM      1  N   UNL     1       4.897   5.632  18.333  0.00  0.00    +0.000 NA
ATOM      2  C   UNL     1       4.604   7.026  17.969  0.00  0.00    +0.000 C 
ATOM      3  C   UNL     1       3.081   7.138  17.884  0.00  0.00    +0.000 C 
ATOM      4  N   UNL     1       2.384   6.842  19.151  0.00  0.00    +0.000 N 
ATOM      5  C   UNL     1       2.949   5.659  19.840  0.00  0.00    +0.000 C 
ATOM      6  C   UNL     1       4.482   5.438  19.723  0.00  0.00    +0.000 C 
ENDROOT
BRANCH   4   7
ATOM      7  N   UNL     1       2.022   7.939  19.857  0.00  0.00    +0.000 NA
ATOM      8  C   UNL     1       0.946   7.759  20.561  0.00  0.00    +0.000 C 
BRANCH   8   9
ATOM      9  C   UNL     1       0.237   8.907  21.159  0.00  0.00    +0.000 A 
ATOM     10  C   UNL     1       0.098   8.988  22.542  0.00  0.00    +0.000 A 
ATOM     11  C   UNL     1      -0.485  10.116  23.123  0.00  0.00    +0.000 A 
ATOM     12  C   UNL     1      -0.964  11.190  22.354  0.00  0.00    +0.000 A 
ATOM     13  C   UNL     1      -0.798  11.081  20.961  0.00  0.00    +0.000 A 
ATOM     14  C   UNL     1      -0.198   9.961  20.363  0.00  0.00    +0.000 A 
BRANCH  12  15
ATOM     15  N   UNL     1      -1.543  12.293  22.954  0.00  0.00    +0.000 N 
ATOM     16  C   UNL     1      -0.895  13.598  22.998  0.00  0.00    +0.000 C 
ATOM     17  C   UNL     1      -2.909  12.248  23.467  0.00  0.00    +0.000 C 
ENDBRANCH  12  15
ENDBRANCH   8   9
ENDBRANCH   4   7
BRANCH   1  18
ATOM     18  C   UNL     1       6.236   5.182  17.983  0.00  0.00    +0.000 C 
BRANCH  18  23
ATOM     19  C   UNL     1       6.219   3.634  12.345  0.00  0.00    +0.000 C 
ATOM     20  C   UNL     1       6.246   4.016  13.794  0.00  0.00    +0.000 A 
ATOM     21  C   UNL     1       7.269   4.822  14.309  0.00  0.00    +0.000 A 
ATOM     22  C   UNL     1       7.284   5.179  15.662  0.00  0.00    +0.000 A 
ATOM     23  C   UNL     1       6.275   4.738  16.526  0.00  0.00    +0.000 A 
ATOM     24  C   UNL     1       5.259   3.917  16.007  0.00  0.00    +0.000 A 
ATOM     25  C   UNL     1       5.241   3.566  14.655  0.00  0.00    +0.000 A 
ENDBRANCH  18  23
ENDBRANCH   1  18
TORSDOF 5
ENDMDL
MODEL 9
REMARK VINA RESULT:      -6.9      6.533      9.702
REMARK  Name = 
REMARK  8 active torsions:
REMARK  status: ('A' for Active; 'I' for Inactive)
REMARK    1  A    between atoms: C_1  and  C_2
REMARK    2  A    between atoms: C_5  and  C_6
REMARK    3  A    between atoms: C_6  and  N_7
REMARK    4  A    between atoms: N_10  and  N_11
REMARK    5  A    between atoms: C_12  and  C_13
REMARK    6  A    between atoms: C_16  and  N_17
REMARK    7  A    between atoms: N_17  and  C_18
REMARK    8  A    between atoms: N_17  and  C_19
REMARK                            x       y       z     vdW  Elec       q    Type
REMARK                         _______ _______ _______ _____ _____    ______ ____
ROOT
ATOM      1  N   UNL     1       2.796   6.983  19.286  0.00  0.00    +0.000 NA
ATOM      2  C   UNL     1       1.809   7.221  20.349  0.00  0.00    +0.000 C 
ATOM      3  C   UNL     1       1.655   8.738  20.461  0.00  0.00    +0.000 C 
ATOM      4  N   UNL     1       1.162   9.386  19.229  0.00  0.00    +0.000 N 
ATOM      5  C   UNL     1       1.815   8.849  18.013  0.00  0.00    +0.000 C 
ATOM      6  C   UNL     1       2.172   7.338  18.011  0.00  0.00    +0.000 C 
ENDROOT
BRANCH   4   7
ATOM      7  N   UNL     1      -0.164   9.655  19.233  0.00  0.00    +0.000 NA
ATOM      8  C   UNL     1      -0.628   9.947  18.056  0.00  0.00    +0.000 C 
BRANCH   8   9
ATOM      9  C   UNL     1      -1.968  10.547  17.902  0.00  0.00    +0.000 A 
ATOM     10  C   UNL     1      -2.788  10.143  16.852  0.00  0.00    +0.000 A 
ATOM     11  C   UNL     1      -4.092  10.633  16.754  0.00  0.00    +0.000 A 
ATOM     12  C   UNL     1      -4.619  11.549  17.679  0.00  0.00    +0.000 A 
ATOM     13  C   UNL     1      -3.768  11.927  18.734  0.00  0.00    +0.000 A 
ATOM     14  C   UNL     1      -2.459  11.431  18.857  0.00  0.00    +0.000 A 
BRANCH  12  15
ATOM     15  N   UNL     1      -5.912  12.023  17.555  0.00  0.00    +0.000 N 
ATOM     16  C   UNL     1      -7.032  11.466  18.304  0.00  0.00    +0.000 C 
ATOM     17  C   UNL     1      -6.212  13.209  16.759  0.00  0.00    +0.000 C 
ENDBRANCH  12  15
ENDBRANCH   8   9
ENDBRANCH   4   7
BRANCH   1  18
ATOM     18  C   UNL     1       3.458   5.688  19.351  0.00  0.00    +0.000 C 
BRANCH  18  23
ATOM     19  C   UNL     1       6.507   4.907  14.423  0.00  0.00    +0.000 C 
ATOM     20  C   UNL     1       5.747   5.104  15.701  0.00  0.00    +0.000 A 
ATOM     21  C   UNL     1       5.972   6.226  16.508  0.00  0.00    +0.000 A 
ATOM     22  C   UNL     1       5.256   6.405  17.697  0.00  0.00    +0.000 A 
ATOM     23  C   UNL     1       4.299   5.467  18.100  0.00  0.00    +0.000 A 
ATOM     24  C   UNL     1       4.088   4.335  17.294  0.00  0.00    +0.000 A 
ATOM     25  C   UNL     1       4.800   4.160  16.104  0.00  0.00    +0.000 A 
ENDBRANCH  18  23
ENDBRANCH   1  18
TORSDOF 5
ENDMDL
