MODEL 1
REMARK VINA RESULT:      -6.7      0.000      0.000
REMARK  Name = 
REMARK  9 active torsions:
REMARK  status: ('A' for Active; 'I' for Inactive)
REMARK    1  A    between atoms: C_1  and  O_2
REMARK    2  A    between atoms: O_2  and  C_3
REMARK    3  A    between atoms: C_9  and  C_10
REMARK    4  A    between atoms: C_10  and  N_11
REMARK    5  A    between atoms: N_11  and  C_12
REMARK    6  A    between atoms: N_11  and  C_13
REMARK    7  A    between atoms: C_13  and  C_14
REMARK    8  A    between atoms: N_16  and  C_17
REMARK    9  A    between atoms: C_22  and  C_23
REMARK                            x       y       z     vdW  Elec       q    Type
REMARK                         _______ _______ _______ _____ _____    ______ ____
ROOT
ATOM      1  C   UNL     1       2.508   4.792  21.220  0.00  0.00    +0.000 C 
ENDROOT
BRANCH   1   2
ATOM      2  C   UNL     1       1.920   5.827  20.246  0.00  0.00    +0.000 C 
ATOM      3  O   UNL     1       1.277   5.492  19.249  0.00  0.00    +0.000 OA
ATOM      4  N   UNL     1       2.216   7.143  20.580  0.00  0.00    +0.000 N 
ATOM      5  H   UNL     1       3.149   7.276  20.957  0.00  0.00    +0.000 HD
BRANCH   4   6
ATOM      6  C   UNL     1       1.716   8.228  19.804  0.00  0.00    +0.000 A 
ATOM      7  C   UNL     1       2.229   8.559  18.536  0.00  0.00    +0.000 A 
ATOM      8 CL   UNL     1       3.363   7.567  17.684  0.00  0.00    +0.000 Cl
ATOM      9  C   UNL     1       1.738   9.669  17.846  0.00  0.00    +0.000 A 
ATOM     10  C   UNL     1       0.733  10.457  18.401  0.00  0.00    +0.000 A 
ATOM     11  C   UNL     1       0.171  10.127  19.642  0.00  0.00    +0.000 A 
ATOM     12  C   UNL     1      -0.902  11.012  20.214  0.00  0.00    +0.000 C 
ATOM     13  C   UNL     1       0.652   8.994  20.324  0.00  0.00    +0.000 A 
ATOM     14 CL   UNL     1      -0.035   8.553  21.862  0.00  0.00    +0.000 Cl
ENDBRANCH   4   6
ENDBRANCH   1   2
BRANCH   1  15
ATOM     15  N   UNL     1       2.754   3.465  20.608  0.00  0.00    +0.000 NA
ATOM     16  C   UNL     1       2.176   2.398  21.433  0.00  0.00    +0.000 C 
BRANCH  15  17
ATOM     17  C   UNL     1       4.187   3.239  20.342  0.00  0.00    +0.000 C 
BRANCH  17  24
ATOM     18  C   UNL     1       4.167   3.409  17.789  0.00  0.00    +0.000 A 
ATOM     19  C   UNL     1       4.643   3.995  16.610  0.00  0.00    +0.000 A 
ATOM     20  C   UNL     1       5.628   4.985  16.655  0.00  0.00    +0.000 A 
ATOM     21  C   UNL     1       6.135   5.399  17.881  0.00  0.00    +0.000 A 
ATOM     22 BR   UNL     1       7.472   6.733  17.942  0.00  0.00    +0.000 Br
ATOM     23  C   UNL     1       5.663   4.836  19.064  0.00  0.00    +0.000 A 
ATOM     24  C   UNL     1       4.667   3.842  19.034  0.00  0.00    +0.000 A 
BRANCH  18  26
ATOM     25  C   UNL     1       3.641   1.105  18.076  0.00  0.00    +0.000 C 
ATOM     26  O   UNL     1       3.205   2.434  17.821  0.00  0.00    +0.000 OA
ENDBRANCH  18  26
ENDBRANCH  17  24
ENDBRANCH  15  17
ENDBRANCH   1  15
TORSDOF 6
ENDMDL
MODEL 2
REMARK VINA RESULT:      -6.6      1.828      2.476
REMARK  Name = 
REMARK  9 active torsions:
REMARK  status: ('A' for Active; 'I' for Inactive)
REMARK    1  A    between atoms: C_1  and  O_2
REMARK    2  A    between atoms: O_2  and  C_3
REMARK    3  A    between atoms: C_9  and  C_10
REMARK    4  A    between atoms: C_10  and  N_11
REMARK    5  A    between atoms: N_11  and  C_12
REMARK    6  A    between atoms: N_11  and  C_13
REMARK    7  A    between atoms: C_13  and  C_14
REMARK    8  A    between atoms: N_16  and  C_17
REMARK    9  A    between atoms: C_22  and  C_23
REMARK                            x       y       z     vdW  Elec       q    Type
REMARK                         _______ _______ _______ _____ _____    ______ ____
ROOT
ATOM      1  C   UNL     1       2.849   4.339  19.884  0.00  0.00    +0.000 C 
ENDROOT
BRANCH   1   2
ATOM      2  C   UNL     1       2.243   5.589  19.222  0.00  0.00    +0.000 C 
ATOM      3  O   UNL     1       1.563   5.519  18.198  0.00  0.00    +0.000 OA
ATOM      4  N   UNL     1       2.570   6.777  19.866  0.00  0.00    +0.000 N 
ATOM      5  H   UNL     1       3.517   6.806  20.229  0.00  0.00    +0.000 HD
BRANCH   4   6
ATOM      6  C   UNL     1       2.060   8.026  19.406  0.00  0.00    +0.000 A 
ATOM      7  C   UNL     1       2.503   8.639  18.219  0.00  0.00    +0.000 A 
ATOM      8 CL   UNL     1       3.545   7.859  17.080  0.00  0.00    +0.000 Cl
ATOM      9  C   UNL     1       2.008   9.892  17.848  0.00  0.00    +0.000 A 
ATOM     10  C   UNL     1       1.068  10.543  18.643  0.00  0.00    +0.000 A 
ATOM     11  C   UNL     1       0.575   9.937  19.806  0.00  0.00    +0.000 A 
ATOM     12  C   UNL     1      -0.428  10.679  20.645  0.00  0.00    +0.000 C 
ATOM     13  C   UNL     1       1.058   8.664  20.166  0.00  0.00    +0.000 A 
ATOM     14 CL   UNL     1       0.455   7.883  21.599  0.00  0.00    +0.000 Cl
ENDBRANCH   4   6
ENDBRANCH   1   2
BRANCH   1  15
ATOM     15  N   UNL     1       3.377   3.347  18.918  0.00  0.00    +0.000 NA
ATOM     16  C   UNL     1       2.719   2.048  19.097  0.00  0.00    +0.000 C 
BRANCH  15  17
ATOM     17  C   UNL     1       4.845   3.234  18.993  0.00  0.00    +0.000 C 
BRANCH  17  24
ATOM     18  C   UNL     1       6.510   4.998  18.177  0.00  0.00    +0.000 A 
ATOM     19  C   UNL     1       7.152   5.663  17.125  0.00  0.00    +0.000 A 
ATOM     20  C   UNL     1       6.851   5.351  15.798  0.00  0.00    +0.000 A 
ATOM     21  C   UNL     1       5.913   4.366  15.515  0.00  0.00    +0.000 A 
ATOM     22 BR   UNL     1       5.501   3.948  13.719  0.00  0.00    +0.000 Br
ATOM     23  C   UNL     1       5.275   3.684  16.549  0.00  0.00    +0.000 A 
ATOM     24  C   UNL     1       5.572   3.985  17.891  0.00  0.00    +0.000 A 
BRANCH  18  26
ATOM     25  C   UNL     1       8.035   5.771  19.834  0.00  0.00    +0.000 C 
ATOM     26  O   UNL     1       6.753   5.252  19.501  0.00  0.00    +0.000 OA
ENDBRANCH  18  26
ENDBRANCH  17  24
ENDBRANCH  15  17
ENDBRANCH   1  15
TORSDOF 6
ENDMDL
MODEL 3
REMARK VINA RESULT:      -6.4      3.530      8.257
REMARK  Name = 
REMARK  9 active torsions:
REMARK  status: ('A' for Active; 'I' for Inactive)
REMARK    1  A    between atoms: C_1  and  O_2
REMARK    2  A    between atoms: O_2  and  C_3
REMARK    3  A    between atoms: C_9  and  C_10
REMARK    4  A    between atoms: C_10  and  N_11
REMARK    5  A    between atoms: N_11  and  C_12
REMARK    6  A    between atoms: N_11  and  C_13
REMARK    7  A    between atoms: C_13  and  C_14
REMARK    8  A    between atoms: N_16  and  C_17
REMARK    9  A    between atoms: C_22  and  C_23
REMARK                            x       y       z     vdW  Elec       q    Type
REMARK                         _______ _______ _______ _____ _____    ______ ____
ROOT
ATOM      1  C   UNL     1       1.702   8.877  19.497  0.00  0.00    +0.000 C 
ENDROOT
BRANCH   1   2
ATOM      2  C   UNL     1       2.151   7.761  18.539  0.00  0.00    +0.000 C 
ATOM      3  O   UNL     1       1.784   7.724  17.363  0.00  0.00    +0.000 OA
ATOM      4  N   UNL     1       2.962   6.802  19.136  0.00  0.00    +0.000 N 
ATOM      5  H   UNL     1       2.703   6.576  20.091  0.00  0.00    +0.000 HD
BRANCH   4   6
ATOM      6  C   UNL     1       3.497   5.719  18.381  0.00  0.00    +0.000 A 
ATOM      7  C   UNL     1       4.554   5.877  17.466  0.00  0.00    +0.000 A 
ATOM      8 CL   UNL     1       5.464   7.341  17.312  0.00  0.00    +0.000 Cl
ATOM      9  C   UNL     1       5.000   4.789  16.711  0.00  0.00    +0.000 A 
ATOM     10  C   UNL     1       4.408   3.537  16.860  0.00  0.00    +0.000 A 
ATOM     11  C   UNL     1       3.384   3.339  17.795  0.00  0.00    +0.000 A 
ATOM     12  C   UNL     1       2.760   1.976  17.915  0.00  0.00    +0.000 C 
ATOM     13  C   UNL     1       2.953   4.432  18.571  0.00  0.00    +0.000 A 
ATOM     14 CL   UNL     1       1.690   4.212  19.749  0.00  0.00    +0.000 Cl
ENDBRANCH   4   6
ENDBRANCH   1   2
BRANCH   1  15
ATOM     15  N   UNL     1       0.922   9.953  18.840  0.00  0.00    +0.000 NA
ATOM     16  C   UNL     1       1.808  11.027  18.376  0.00  0.00    +0.000 C 
BRANCH  15  17
ATOM     17  C   UNL     1      -0.152  10.464  19.711  0.00  0.00    +0.000 C 
BRANCH  17  24
ATOM     18  C   UNL     1      -2.389  11.695  19.541  0.00  0.00    +0.000 A 
ATOM     19  C   UNL     1      -3.531  12.036  18.806  0.00  0.00    +0.000 A 
ATOM     20  C   UNL     1      -3.719  11.542  17.514  0.00  0.00    +0.000 A 
ATOM     21  C   UNL     1      -2.761  10.711  16.946  0.00  0.00    +0.000 A 
ATOM     22 BR   UNL     1      -3.019  10.037  15.199  0.00  0.00    +0.000 Br
ATOM     23  C   UNL     1      -1.612  10.372  17.657  0.00  0.00    +0.000 A 
ATOM     24  C   UNL     1      -1.408  10.867  18.958  0.00  0.00    +0.000 A 
BRANCH  18  26
ATOM     25  C   UNL     1      -3.220  12.751  21.506  0.00  0.00    +0.000 C 
ATOM     26  O   UNL     1      -2.139  12.140  20.812  0.00  0.00    +0.000 OA
ENDBRANCH  18  26
ENDBRANCH  17  24
ENDBRANCH  15  17
ENDBRANCH   1  15
TORSDOF 6
ENDMDL
MODEL 4
REMARK VINA RESULT:      -6.3      7.797     10.319
REMARK  Name = 
REMARK  9 active torsions:
REMARK  status: ('A' for Active; 'I' for Inactive)
REMARK    1  A    between atoms: C_1  and  O_2
REMARK    2  A    between atoms: O_2  and  C_3
REMARK    3  A    between atoms: C_9  and  C_10
REMARK    4  A    between atoms: C_10  and  N_11
REMARK    5  A    between atoms: N_11  and  C_12
REMARK    6  A    between atoms: N_11  and  C_13
REMARK    7  A    between atoms: C_13  and  C_14
REMARK    8  A    between atoms: N_16  and  C_17
REMARK    9  A    between atoms: C_22  and  C_23
REMARK                            x       y       z     vdW  Elec       q    Type
REMARK                         _______ _______ _______ _____ _____    ______ ____
ROOT
ATOM      1  C   UNL     1       0.415  14.474  20.624  0.00  0.00    +0.000 C 
ENDROOT
BRANCH   1   2
ATOM      2  C   UNL     1      -0.341  13.700  19.531  0.00  0.00    +0.000 C 
ATOM      3  O   UNL     1      -0.467  14.142  18.388  0.00  0.00    +0.000 OA
ATOM      4  N   UNL     1      -0.887  12.499  19.969  0.00  0.00    +0.000 N 
ATOM      5  H   UNL     1      -1.256  12.531  20.914  0.00  0.00    +0.000 HD
BRANCH   4   6
ATOM      6  C   UNL     1      -1.587  11.640  19.075  0.00  0.00    +0.000 A 
ATOM      7  C   UNL     1      -0.940  10.673  18.283  0.00  0.00    +0.000 A 
ATOM      8 CL   UNL     1       0.733  10.268  18.460  0.00  0.00    +0.000 Cl
ATOM      9  C   UNL     1      -1.671   9.898  17.381  0.00  0.00    +0.000 A 
ATOM     10  C   UNL     1      -3.049  10.068  17.259  0.00  0.00    +0.000 A 
ATOM     11  C   UNL     1      -3.727  10.990  18.066  0.00  0.00    +0.000 A 
ATOM     12  C   UNL     1      -5.212  11.155  17.894  0.00  0.00    +0.000 C 
ATOM     13  C   UNL     1      -2.990  11.754  18.991  0.00  0.00    +0.000 A 
ATOM     14 CL   UNL     1      -3.809  12.900  20.015  0.00  0.00    +0.000 Cl
ENDBRANCH   4   6
ENDBRANCH   1   2
BRANCH   1  15
ATOM     15  N   UNL     1      -0.462  15.294  21.493  0.00  0.00    +0.000 NA
ATOM     16  C   UNL     1      -0.030  16.697  21.489  0.00  0.00    +0.000 C 
BRANCH  15  17
ATOM     17  C   UNL     1      -0.546  14.749  22.860  0.00  0.00    +0.000 C 
BRANCH  17  24
ATOM     18  C   UNL     1      -1.986  12.675  23.276  0.00  0.00    +0.000 A 
ATOM     19  C   UNL     1      -3.231  12.101  23.559  0.00  0.00    +0.000 A 
ATOM     20  C   UNL     1      -4.366  12.902  23.706  0.00  0.00    +0.000 A 
ATOM     21  C   UNL     1      -4.258  14.282  23.581  0.00  0.00    +0.000 A 
ATOM     22 BR   UNL     1      -5.794  15.366  23.774  0.00  0.00    +0.000 Br
ATOM     23  C   UNL     1      -3.024  14.871  23.313  0.00  0.00    +0.000 A 
ATOM     24  C   UNL     1      -1.872  14.076  23.167  0.00  0.00    +0.000 A 
BRANCH  18  26
ATOM     25  C   UNL     1      -0.956  10.535  23.096  0.00  0.00    +0.000 C 
ATOM     26  O   UNL     1      -0.833  11.952  23.117  0.00  0.00    +0.000 OA
ENDBRANCH  18  26
ENDBRANCH  17  24
ENDBRANCH  15  17
ENDBRANCH   1  15
TORSDOF 6
ENDMDL
MODEL 5
REMARK VINA RESULT:      -6.3      2.985      4.337
REMARK  Name = 
REMARK  9 active torsions:
REMARK  status: ('A' for Active; 'I' for Inactive)
REMARK    1  A    between atoms: C_1  and  O_2
REMARK    2  A    between atoms: O_2  and  C_3
REMARK    3  A    between atoms: C_9  and  C_10
REMARK    4  A    between atoms: C_10  and  N_11
REMARK    5  A    between atoms: N_11  and  C_12
REMARK    6  A    between atoms: N_11  and  C_13
REMARK    7  A    between atoms: C_13  and  C_14
REMARK    8  A    between atoms: N_16  and  C_17
REMARK    9  A    between atoms: C_22  and  C_23
REMARK                            x       y       z     vdW  Elec       q    Type
REMARK                         _______ _______ _______ _____ _____    ______ ____
ROOT
ATOM      1  C   UNL     1       2.500   8.534  17.712  0.00  0.00    +0.000 C 
ENDROOT
BRANCH   1   2
ATOM      2  C   UNL     1       1.436   9.259  18.555  0.00  0.00    +0.000 C 
ATOM      3  O   UNL     1       1.149   8.893  19.696  0.00  0.00    +0.000 OA
ATOM      4  N   UNL     1       0.823  10.317  17.894  0.00  0.00    +0.000 N 
ATOM      5  H   UNL     1       0.659  10.151  16.906  0.00  0.00    +0.000 HD
BRANCH   4   6
ATOM      6  C   UNL     1      -0.159  11.118  18.544  0.00  0.00    +0.000 A 
ATOM      7  C   UNL     1       0.162  12.056  19.543  0.00  0.00    +0.000 A 
ATOM      8 CL   UNL     1       1.787  12.498  19.942  0.00  0.00    +0.000 Cl
ATOM      9  C   UNL     1      -0.849  12.773  20.187  0.00  0.00    +0.000 A 
ATOM     10  C   UNL     1      -2.184  12.573  19.843  0.00  0.00    +0.000 A 
ATOM     11  C   UNL     1      -2.531  11.680  18.821  0.00  0.00    +0.000 A 
ATOM     12  C   UNL     1      -3.984  11.481  18.489  0.00  0.00    +0.000 C 
ATOM     13  C   UNL     1      -1.508  10.976  18.158  0.00  0.00    +0.000 A 
ATOM     14 CL   UNL     1      -1.909   9.868  16.877  0.00  0.00    +0.000 Cl
ENDBRANCH   4   6
ENDBRANCH   1   2
BRANCH   1  15
ATOM     15  N   UNL     1       2.948   7.246  18.291  0.00  0.00    +0.000 NA
ATOM     16  C   UNL     1       4.403   7.101  18.172  0.00  0.00    +0.000 C 
BRANCH  15  17
ATOM     17  C   UNL     1       2.231   6.100  17.702  0.00  0.00    +0.000 C 
BRANCH  17  24
ATOM     18  C   UNL     1       3.494   3.875  17.641  0.00  0.00    +0.000 A 
ATOM     19  C   UNL     1       3.822   2.651  18.237  0.00  0.00    +0.000 A 
ATOM     20  C   UNL     1       3.270   2.289  19.468  0.00  0.00    +0.000 A 
ATOM     21  C   UNL     1       2.394   3.154  20.114  0.00  0.00    +0.000 A 
ATOM     22 BR   UNL     1       1.642   2.662  21.776  0.00  0.00    +0.000 Br
ATOM     23  C   UNL     1       2.068   4.382  19.542  0.00  0.00    +0.000 A 
ATOM     24  C   UNL     1       2.621   4.761  18.304  0.00  0.00    +0.000 A 
BRANCH  18  26
ATOM     25  C   UNL     1       5.342   3.945  16.141  0.00  0.00    +0.000 C 
ATOM     26  O   UNL     1       3.995   4.294  16.437  0.00  0.00    +0.000 OA
ENDBRANCH  18  26
ENDBRANCH  17  24
ENDBRANCH  15  17
ENDBRANCH   1  15
TORSDOF 6
ENDMDL
MODEL 6
REMARK VINA RESULT:      -6.3      3.058      4.553
REMARK  Name = 
REMARK  9 active torsions:
REMARK  status: ('A' for Active; 'I' for Inactive)
REMARK    1  A    between atoms: C_1  and  O_2
REMARK    2  A    between atoms: O_2  and  C_3
REMARK    3  A    between atoms: C_9  and  C_10
REMARK    4  A    between atoms: C_10  and  N_11
REMARK    5  A    between atoms: N_11  and  C_12
REMARK    6  A    between atoms: N_11  and  C_13
REMARK    7  A    between atoms: C_13  and  C_14
REMARK    8  A    between atoms: N_16  and  C_17
REMARK    9  A    between atoms: C_22  and  C_23
REMARK                            x       y       z     vdW  Elec       q    Type
REMARK                         _______ _______ _______ _____ _____    ______ ____
ROOT
ATOM      1  C   UNL     1       2.089   9.432  17.926  0.00  0.00    +0.000 C 
ENDROOT
BRANCH   1   2
ATOM      2  C   UNL     1       0.804  10.082  18.466  0.00  0.00    +0.000 C 
ATOM      3  O   UNL     1      -0.311   9.775  18.041  0.00  0.00    +0.000 OA
ATOM      4  N   UNL     1       1.032  11.056  19.432  0.00  0.00    +0.000 N 
ATOM      5  H   UNL     1       1.855  11.625  19.262  0.00  0.00    +0.000 HD
BRANCH   4   6
ATOM      6  C   UNL     1      -0.051  11.730  20.065  0.00  0.00    +0.000 A 
ATOM      7  C   UNL     1      -0.672  12.864  19.509  0.00  0.00    +0.000 A 
ATOM      8 CL   UNL     1      -0.344  13.437  17.910  0.00  0.00    +0.000 Cl
ATOM      9  C   UNL     1      -1.692  13.519  20.203  0.00  0.00    +0.000 A 
ATOM     10  C   UNL     1      -2.111  13.054  21.448  0.00  0.00    +0.000 A 
ATOM     11  C   UNL     1      -1.543  11.901  22.005  0.00  0.00    +0.000 A 
ATOM     12  C   UNL     1      -2.011  11.439  23.358  0.00  0.00    +0.000 C 
ATOM     13  C   UNL     1      -0.531  11.229  21.293  0.00  0.00    +0.000 A 
ATOM     14 CL   UNL     1       0.185   9.788  21.957  0.00  0.00    +0.000 Cl
ENDBRANCH   4   6
ENDBRANCH   1   2
BRANCH   1  15
ATOM     15  N   UNL     1       2.235   8.002  18.288  0.00  0.00    +0.000 NA
ATOM     16  C   UNL     1       2.095   7.817  19.737  0.00  0.00    +0.000 C 
BRANCH  15  17
ATOM     17  C   UNL     1       3.496   7.432  17.780  0.00  0.00    +0.000 C 
BRANCH  17  24
ATOM     18  C   UNL     1       4.479   5.220  16.948  0.00  0.00    +0.000 A 
ATOM     19  C   UNL     1       4.407   3.826  16.843  0.00  0.00    +0.000 A 
ATOM     20  C   UNL     1       3.330   3.126  17.391  0.00  0.00    +0.000 A 
ATOM     21  C   UNL     1       2.323   3.817  18.056  0.00  0.00    +0.000 A 
ATOM     22 BR   UNL     1       0.863   2.871  18.792  0.00  0.00    +0.000 Br
ATOM     23  C   UNL     1       2.386   5.202  18.182  0.00  0.00    +0.000 A 
ATOM     24  C   UNL     1       3.468   5.920  17.638  0.00  0.00    +0.000 A 
BRANCH  18  26
ATOM     25  C   UNL     1       6.807   5.408  16.488  0.00  0.00    +0.000 C 
ATOM     26  O   UNL     1       5.502   5.971  16.434  0.00  0.00    +0.000 OA
ENDBRANCH  18  26
ENDBRANCH  17  24
ENDBRANCH  15  17
ENDBRANCH   1  15
TORSDOF 6
ENDMDL
MODEL 7
REMARK VINA RESULT:      -6.2      3.083      4.881
REMARK  Name = 
REMARK  9 active torsions:
REMARK  status: ('A' for Active; 'I' for Inactive)
REMARK    1  A    between atoms: C_1  and  O_2
REMARK    2  A    between atoms: O_2  and  C_3
REMARK    3  A    between atoms: C_9  and  C_10
REMARK    4  A    between atoms: C_10  and  N_11
REMARK    5  A    between atoms: N_11  and  C_12
REMARK    6  A    between atoms: N_11  and  C_13
REMARK    7  A    between atoms: C_13  and  C_14
REMARK    8  A    between atoms: N_16  and  C_17
REMARK    9  A    between atoms: C_22  and  C_23
REMARK                            x       y       z     vdW  Elec       q    Type
REMARK                         _______ _______ _______ _____ _____    ______ ____
ROOT
ATOM      1  C   UNL     1       1.671   9.622  18.535  0.00  0.00    +0.000 C 
ENDROOT
BRANCH   1   2
ATOM      2  C   UNL     1       0.465  10.147  19.332  0.00  0.00    +0.000 C 
ATOM      3  O   UNL     1      -0.694   9.876  19.015  0.00  0.00    +0.000 OA
ATOM      4  N   UNL     1       0.813  10.969  20.398  0.00  0.00    +0.000 N 
ATOM      5  H   UNL     1       1.601  11.581  20.211  0.00  0.00    +0.000 HD
BRANCH   4   6
ATOM      6  C   UNL     1      -0.181  11.509  21.263  0.00  0.00    +0.000 A 
ATOM      7  C   UNL     1      -0.623  10.848  22.424  0.00  0.00    +0.000 A 
ATOM      8 CL   UNL     1       0.133   9.422  23.049  0.00  0.00    +0.000 Cl
ATOM      9  C   UNL     1      -1.642  11.399  23.204  0.00  0.00    +0.000 A 
ATOM     10  C   UNL     1      -2.228  12.611  22.846  0.00  0.00    +0.000 A 
ATOM     11  C   UNL     1      -1.777  13.316  21.721  0.00  0.00    +0.000 A 
ATOM     12  C   UNL     1      -2.445  14.614  21.359  0.00  0.00    +0.000 C 
ATOM     13  C   UNL     1      -0.734  12.769  20.950  0.00  0.00    +0.000 A 
ATOM     14 CL   UNL     1      -0.147  13.627  19.554  0.00  0.00    +0.000 Cl
ENDBRANCH   4   6
ENDBRANCH   1   2
BRANCH   1  15
ATOM     15  N   UNL     1       1.861   8.155  18.631  0.00  0.00    +0.000 NA
ATOM     16  C   UNL     1       2.054   7.747  20.027  0.00  0.00    +0.000 C 
BRANCH  15  17
ATOM     17  C   UNL     1       2.956   7.684  17.764  0.00  0.00    +0.000 C 
BRANCH  17  24
ATOM     18  C   UNL     1       4.633   5.755  17.901  0.00  0.00    +0.000 A 
ATOM     19  C   UNL     1       4.901   4.394  18.087  0.00  0.00    +0.000 A 
ATOM     20  C   UNL     1       3.860   3.488  18.303  0.00  0.00    +0.000 A 
ATOM     21  C   UNL     1       2.547   3.940  18.343  0.00  0.00    +0.000 A 
ATOM     22 BR   UNL     1       1.138   2.714  18.630  0.00  0.00    +0.000 Br
ATOM     23  C   UNL     1       2.264   5.294  18.174  0.00  0.00    +0.000 A 
ATOM     24  C   UNL     1       3.303   6.219  17.961  0.00  0.00    +0.000 A 
BRANCH  18  26
ATOM     25  C   UNL     1       6.746   6.292  16.944  0.00  0.00    +0.000 C 
ATOM     26  O   UNL     1       5.601   6.699  17.683  0.00  0.00    +0.000 OA
ENDBRANCH  18  26
ENDBRANCH  17  24
ENDBRANCH  15  17
ENDBRANCH   1  15
TORSDOF 6
ENDMDL
MODEL 8
REMARK VINA RESULT:      -6.2      3.485      8.356
REMARK  Name = 
REMARK  9 active torsions:
REMARK  status: ('A' for Active; 'I' for Inactive)
REMARK    1  A    between atoms: C_1  and  O_2
REMARK    2  A    between atoms: O_2  and  C_3
REMARK    3  A    between atoms: C_9  and  C_10
REMARK    4  A    between atoms: C_10  and  N_11
REMARK    5  A    between atoms: N_11  and  C_12
REMARK    6  A    between atoms: N_11  and  C_13
REMARK    7  A    between atoms: C_13  and  C_14
REMARK    8  A    between atoms: N_16  and  C_17
REMARK    9  A    between atoms: C_22  and  C_23
REMARK                            x       y       z     vdW  Elec       q    Type
REMARK                         _______ _______ _______ _____ _____    ______ ____
ROOT
ATOM      1  C   UNL     1       1.857   9.003  19.517  0.00  0.00    +0.000 C 
ENDROOT
BRANCH   1   2
ATOM      2  C   UNL     1       2.022   7.715  18.693  0.00  0.00    +0.000 C 
ATOM      3  O   UNL     1       1.489   7.573  17.591  0.00  0.00    +0.000 OA
ATOM      4  N   UNL     1       2.783   6.738  19.326  0.00  0.00    +0.000 N 
ATOM      5  H   UNL     1       2.637   6.683  20.329  0.00  0.00    +0.000 HD
BRANCH   4   6
ATOM      6  C   UNL     1       3.065   5.498  18.685  0.00  0.00    +0.000 A 
ATOM      7  C   UNL     1       2.384   4.307  18.996  0.00  0.00    +0.000 A 
ATOM      8 CL   UNL     1       0.991   4.251  20.022  0.00  0.00    +0.000 Cl
ATOM      9  C   UNL     1       2.743   3.108  18.377  0.00  0.00    +0.000 A 
ATOM     10  C   UNL     1       3.774   3.078  17.440  0.00  0.00    +0.000 A 
ATOM     11  C   UNL     1       4.440   4.256  17.076  0.00  0.00    +0.000 A 
ATOM     12  C   UNL     1       5.558   4.180  16.073  0.00  0.00    +0.000 C 
ATOM     13  C   UNL     1       4.060   5.467  17.686  0.00  0.00    +0.000 A 
ATOM     14 CL   UNL     1       4.864   6.947  17.245  0.00  0.00    +0.000 Cl
ENDBRANCH   4   6
ENDBRANCH   1   2
BRANCH   1  15
ATOM     15  N   UNL     1       1.197  10.106  18.778  0.00  0.00    +0.000 NA
ATOM     16  C   UNL     1       2.195  10.987  18.160  0.00  0.00    +0.000 C 
BRANCH  15  17
ATOM     17  C   UNL     1       0.257  10.855  19.633  0.00  0.00    +0.000 C 
BRANCH  17  24
ATOM     18  C   UNL     1      -2.107  11.834  19.632  0.00  0.00    +0.000 A 
ATOM     19  C   UNL     1      -3.344  12.013  19.001  0.00  0.00    +0.000 A 
ATOM     20  C   UNL     1      -3.600  11.428  17.759  0.00  0.00    +0.000 A 
ATOM     21  C   UNL     1      -2.615  10.669  17.137  0.00  0.00    +0.000 A 
ATOM     22 BR   UNL     1      -2.963   9.873  15.459  0.00  0.00    +0.000 Br
ATOM     23  C   UNL     1      -1.374  10.493  17.743  0.00  0.00    +0.000 A 
ATOM     24  C   UNL     1      -1.101  11.081  18.993  0.00  0.00    +0.000 A 
BRANCH  18  26
ATOM     25  C   UNL     1      -2.868  12.720  21.707  0.00  0.00    +0.000 C 
ATOM     26  O   UNL     1      -1.787  12.375  20.849  0.00  0.00    +0.000 OA
ENDBRANCH  18  26
ENDBRANCH  17  24
ENDBRANCH  15  17
ENDBRANCH   1  15
TORSDOF 6
ENDMDL
MODEL 9
REMARK VINA RESULT:      -6.2      3.364      4.954
REMARK  Name = 
REMARK  9 active torsions:
REMARK  status: ('A' for Active; 'I' for Inactive)
REMARK    1  A    between atoms: C_1  and  O_2
REMARK    2  A    between atoms: O_2  and  C_3
REMARK    3  A    between atoms: C_9  and  C_10
REMARK    4  A    between atoms: C_10  and  N_11
REMARK    5  A    between atoms: N_11  and  C_12
REMARK    6  A    between atoms: N_11  and  C_13
REMARK    7  A    between atoms: C_13  and  C_14
REMARK    8  A    between atoms: N_16  and  C_17
REMARK    9  A    between atoms: C_22  and  C_23
REMARK                            x       y       z     vdW  Elec       q    Type
REMARK                         _______ _______ _______ _____ _____    ______ ____
ROOT
ATOM      1  C   UNL     1       1.681   9.421  18.192  0.00  0.00    +0.000 C 
ENDROOT
BRANCH   1   2
ATOM      2  C   UNL     1       0.371   9.895  18.843  0.00  0.00    +0.000 C 
ATOM      3  O   UNL     1      -0.013   9.457  19.929  0.00  0.00    +0.000 OA
ATOM      4  N   UNL     1      -0.334  10.817  18.078  0.00  0.00    +0.000 N 
ATOM      5  H   UNL     1      -0.301  10.640  17.079  0.00  0.00    +0.000 HD
BRANCH   4   6
ATOM      6  C   UNL     1      -1.550  11.388  18.552  0.00  0.00    +0.000 A 
ATOM      7  C   UNL     1      -1.595  12.327  19.598  0.00  0.00    +0.000 A 
ATOM      8 CL   UNL     1      -0.181  13.057  20.278  0.00  0.00    +0.000 Cl
ATOM      9  C   UNL     1      -2.822  12.810  20.059  0.00  0.00    +0.000 A 
ATOM     10  C   UNL     1      -4.013  12.372  19.485  0.00  0.00    +0.000 A 
ATOM     11  C   UNL     1      -3.999  11.471  18.412  0.00  0.00    +0.000 A 
ATOM     12  C   UNL     1      -5.306  11.011  17.829  0.00  0.00    +0.000 C 
ATOM     13  C   UNL     1      -2.759  11.005  17.934  0.00  0.00    +0.000 A 
ATOM     14 CL   UNL     1      -2.711   9.894  16.594  0.00  0.00    +0.000 Cl
ENDBRANCH   4   6
ENDBRANCH   1   2
BRANCH   1  15
ATOM     15  N   UNL     1       2.019   8.008  18.486  0.00  0.00    +0.000 NA
ATOM     16  C   UNL     1       2.106   7.786  19.934  0.00  0.00    +0.000 C 
BRANCH  15  17
ATOM     17  C   UNL     1       3.246   7.580  17.790  0.00  0.00    +0.000 C 
BRANCH  17  24
ATOM     18  C   UNL     1       4.472   5.478  16.995  0.00  0.00    +0.000 A 
ATOM     19  C   UNL     1       4.542   4.085  16.888  0.00  0.00    +0.000 A 
ATOM     20  C   UNL     1       3.520   3.280  17.396  0.00  0.00    +0.000 A 
ATOM     21  C   UNL     1       2.426   3.866  18.023  0.00  0.00    +0.000 A 
ATOM     22 BR   UNL     1       1.040   2.779  18.705  0.00  0.00    +0.000 Br
ATOM     23  C   UNL     1       2.347   5.251  18.151  0.00  0.00    +0.000 A 
ATOM     24  C   UNL     1       3.373   6.073  17.648  0.00  0.00    +0.000 A 
BRANCH  18  26
ATOM     25  C   UNL     1       6.740   6.202  17.073  0.00  0.00    +0.000 C 
ATOM     26  O   UNL     1       5.435   6.328  16.520  0.00  0.00    +0.000 OA
ENDBRANCH  18  26
ENDBRANCH  17  24
ENDBRANCH  15  17
ENDBRANCH   1  15
TORSDOF 6
ENDMDL
