MODEL 1
REMARK VINA RESULT:      -7.7      0.000      0.000
REMARK  Name = 
REMARK  4 active torsions:
REMARK  status: ('A' for Active; 'I' for Inactive)
REMARK    1  A    between atoms: C_1  and  C_2
REMARK    2  A    between atoms: N_6  and  C_7
REMARK    3  A    between atoms: C_7  and  C_8
REMARK    4  A    between atoms: C_12  and  C_13
REMARK                            x       y       z     vdW  Elec       q    Type
REMARK                         _______ _______ _______ _____ _____    ______ ____
ROOT
ATOM      1  C   UNL     1       6.167   4.838  18.223  0.00  0.00    +0.000 A 
ATOM      2  C   UNL     1       6.857   5.969  18.617  0.00  0.00    +0.000 A 
ATOM      3  C   UNL     1       7.474   6.680  17.619  0.00  0.00    +0.000 A 
ATOM      4  N   UNL     1       7.452   6.316  16.324  0.00  0.00    +0.000 NA
ATOM      5  C   UNL     1       6.773   5.189  16.024  0.00  0.00    +0.000 A 
ATOM      6  N   UNL     1       6.119   4.435  16.931  0.00  0.00    +0.000 NA
ENDROOT
BRANCH   5   7
ATOM      7  C   UNL     1       6.776   4.747  14.621  0.00  0.00    +0.000 A 
ATOM      8  C   UNL     1       5.850   3.815  14.124  0.00  0.00    +0.000 A 
ATOM      9  C   UNL     1       5.864   3.432  12.786  0.00  0.00    +0.000 A 
ATOM     10  C   UNL     1       6.817   3.997  11.956  0.00  0.00    +0.000 A 
ATOM     11  N   UNL     1       7.735   4.891  12.377  0.00  0.00    +0.000 NA
ATOM     12  C   UNL     1       7.688   5.243  13.689  0.00  0.00    +0.000 A 
ENDBRANCH   5   7
BRANCH   1  13
ATOM     13  C   UNL     1       5.419   4.003  19.247  0.00  0.00    +0.000 C 
BRANCH  13  19
ATOM     14  C   UNL     1       1.320   4.527  17.628  0.00  0.00    +0.000 C 
ATOM     15  C   UNL     1       1.619   4.239  19.103  0.00  0.00    +0.000 C 
ATOM     16  C   UNL     1       1.296   2.787  19.473  0.00  0.00    +0.000 C 
ATOM     17  C   UNL     1       2.318   1.823  18.883  0.00  0.00    +0.000 C 
ATOM     18  C   UNL     1       3.747   2.236  19.242  0.00  0.00    +0.000 C 
ATOM     19  N   UNL     1       4.042   3.626  18.843  0.00  0.00    +0.000 NA
ATOM     20  C   UNL     1       3.082   4.558  19.464  0.00  0.00    +0.000 C 
ENDBRANCH  13  19
ENDBRANCH   1  13
TORSDOF 3
ENDMDL
MODEL 2
REMARK VINA RESULT:      -7.7      1.205      1.963
REMARK  Name = 
REMARK  4 active torsions:
REMARK  status: ('A' for Active; 'I' for Inactive)
REMARK    1  A    between atoms: C_1  and  C_2
REMARK    2  A    between atoms: N_6  and  C_7
REMARK    3  A    between atoms: C_7  and  C_8
REMARK    4  A    between atoms: C_12  and  C_13
REMARK                            x       y       z     vdW  Elec       q    Type
REMARK                         _______ _______ _______ _____ _____    ______ ____
ROOT
ATOM      1  C   UNL     1       5.228   5.402  17.729  0.00  0.00    +0.000 A 
ATOM      2  C   UNL     1       6.290   5.241  18.598  0.00  0.00    +0.000 A 
ATOM      3  C   UNL     1       7.494   4.913  18.027  0.00  0.00    +0.000 A 
ATOM      4  N   UNL     1       7.664   4.727  16.705  0.00  0.00    +0.000 NA
ATOM      5  C   UNL     1       6.573   4.884  15.928  0.00  0.00    +0.000 A 
ATOM      6  N   UNL     1       5.354   5.225  16.392  0.00  0.00    +0.000 NA
ENDROOT
BRANCH   5   7
ATOM      7  C   UNL     1       6.726   4.639  14.485  0.00  0.00    +0.000 A 
ATOM      8  C   UNL     1       7.666   5.327  13.700  0.00  0.00    +0.000 A 
ATOM      9  C   UNL     1       7.802   5.058  12.342  0.00  0.00    +0.000 A 
ATOM     10  C   UNL     1       6.985   4.090  11.783  0.00  0.00    +0.000 A 
ATOM     11  N   UNL     1       6.061   3.401  12.485  0.00  0.00    +0.000 NA
ATOM     12  C   UNL     1       5.959   3.690  13.809  0.00  0.00    +0.000 A 
ENDBRANCH   5   7
BRANCH   1  13
ATOM     13  C   UNL     1       3.861   5.802  18.258  0.00  0.00    +0.000 C 
BRANCH  13  19
ATOM     14  C   UNL     1       1.861   1.884  18.846  0.00  0.00    +0.000 C 
ATOM     15  C   UNL     1       1.123   3.225  18.874  0.00  0.00    +0.000 C 
ATOM     16  C   UNL     1       0.752   3.638  20.302  0.00  0.00    +0.000 C 
ATOM     17  C   UNL     1       1.980   4.084  21.088  0.00  0.00    +0.000 C 
ATOM     18  C   UNL     1       2.766   5.157  20.333  0.00  0.00    +0.000 C 
ATOM     19  N   UNL     1       3.140   4.720  18.973  0.00  0.00    +0.000 NA
ATOM     20  C   UNL     1       1.941   4.344  18.202  0.00  0.00    +0.000 C 
ENDBRANCH  13  19
ENDBRANCH   1  13
TORSDOF 3
ENDMDL
MODEL 3
REMARK VINA RESULT:      -7.7      1.066      1.652
REMARK  Name = 
REMARK  4 active torsions:
REMARK  status: ('A' for Active; 'I' for Inactive)
REMARK    1  A    between atoms: C_1  and  C_2
REMARK    2  A    between atoms: N_6  and  C_7
REMARK    3  A    between atoms: C_7  and  C_8
REMARK    4  A    between atoms: C_12  and  C_13
REMARK                            x       y       z     vdW  Elec       q    Type
REMARK                         _______ _______ _______ _____ _____    ______ ____
ROOT
ATOM      1  C   UNL     1       5.163   5.656  17.636  0.00  0.00    +0.000 A 
ATOM      2  C   UNL     1       6.254   5.674  18.483  0.00  0.00    +0.000 A 
ATOM      3  C   UNL     1       7.467   5.380  17.914  0.00  0.00    +0.000 A 
ATOM      4  N   UNL     1       7.622   5.066  16.615  0.00  0.00    +0.000 NA
ATOM      5  C   UNL     1       6.505   5.051  15.859  0.00  0.00    +0.000 A 
ATOM      6  N   UNL     1       5.273   5.344  16.323  0.00  0.00    +0.000 NA
ENDROOT
BRANCH   5   7
ATOM      7  C   UNL     1       6.644   4.663  14.447  0.00  0.00    +0.000 A 
ATOM      8  C   UNL     1       5.810   3.706  13.844  0.00  0.00    +0.000 A 
ATOM      9  C   UNL     1       5.952   3.376  12.499  0.00  0.00    +0.000 A 
ATOM     10  C   UNL     1       6.940   4.017  11.771  0.00  0.00    +0.000 A 
ATOM     11  N   UNL     1       7.773   4.938  12.296  0.00  0.00    +0.000 NA
ATOM     12  C   UNL     1       7.602   5.237  13.611  0.00  0.00    +0.000 A 
ENDBRANCH   5   7
BRANCH   1  13
ATOM     13  C   UNL     1       3.781   6.003  18.162  0.00  0.00    +0.000 C 
BRANCH  13  19
ATOM     14  C   UNL     1       1.936   2.009  18.749  0.00  0.00    +0.000 C 
ATOM     15  C   UNL     1       1.145   3.320  18.771  0.00  0.00    +0.000 C 
ATOM     16  C   UNL     1       0.752   3.720  20.197  0.00  0.00    +0.000 C 
ATOM     17  C   UNL     1       1.957   4.216  20.987  0.00  0.00    +0.000 C 
ATOM     18  C   UNL     1       2.704   5.318  20.233  0.00  0.00    +0.000 C 
ATOM     19  N   UNL     1       3.100   4.894  18.876  0.00  0.00    +0.000 NA
ATOM     20  C   UNL     1       1.920   4.470  18.100  0.00  0.00    +0.000 C 
ENDBRANCH  13  19
ENDBRANCH   1  13
TORSDOF 3
ENDMDL
MODEL 4
REMARK VINA RESULT:      -7.7      0.815      1.134
REMARK  Name = 
REMARK  4 active torsions:
REMARK  status: ('A' for Active; 'I' for Inactive)
REMARK    1  A    between atoms: C_1  and  C_2
REMARK    2  A    between atoms: N_6  and  C_7
REMARK    3  A    between atoms: C_7  and  C_8
REMARK    4  A    between atoms: C_12  and  C_13
REMARK                            x       y       z     vdW  Elec       q    Type
REMARK                         _______ _______ _______ _____ _____    ______ ____
ROOT
ATOM      1  C   UNL     1       6.009   4.724  18.034  0.00  0.00    +0.000 A 
ATOM      2  C   UNL     1       6.679   5.843  18.491  0.00  0.00    +0.000 A 
ATOM      3  C   UNL     1       7.350   6.576  17.545  0.00  0.00    +0.000 A 
ATOM      4  N   UNL     1       7.395   6.243  16.242  0.00  0.00    +0.000 NA
ATOM      5  C   UNL     1       6.732   5.126  15.879  0.00  0.00    +0.000 A 
ATOM      6  N   UNL     1       6.029   4.352  16.731  0.00  0.00    +0.000 NA
ENDROOT
BRANCH   5   7
ATOM      7  C   UNL     1       6.809   4.717  14.468  0.00  0.00    +0.000 A 
ATOM      8  C   UNL     1       5.956   3.745  13.919  0.00  0.00    +0.000 A 
ATOM      9  C   UNL     1       6.038   3.396  12.574  0.00  0.00    +0.000 A 
ATOM     10  C   UNL     1       6.985   4.033  11.791  0.00  0.00    +0.000 A 
ATOM     11  N   UNL     1       7.834   4.969  12.263  0.00  0.00    +0.000 NA
ATOM     12  C   UNL     1       7.722   5.286  13.580  0.00  0.00    +0.000 A 
ENDBRANCH   5   7
BRANCH   1  13
ATOM     13  C   UNL     1       5.207   3.866  18.997  0.00  0.00    +0.000 C 
BRANCH  13  19
ATOM     14  C   UNL     1       1.461   5.535  20.695  0.00  0.00    +0.000 C 
ATOM     15  C   UNL     1       1.715   4.036  20.512  0.00  0.00    +0.000 C 
ATOM     16  C   UNL     1       0.933   3.470  19.322  0.00  0.00    +0.000 C 
ATOM     17  C   UNL     1       1.533   3.924  17.997  0.00  0.00    +0.000 C 
ATOM     18  C   UNL     1       3.032   3.628  17.932  0.00  0.00    +0.000 C 
ATOM     19  N   UNL     1       3.765   4.213  19.071  0.00  0.00    +0.000 NA
ATOM     20  C   UNL     1       3.214   3.724  20.349  0.00  0.00    +0.000 C 
ENDBRANCH  13  19
ENDBRANCH   1  13
TORSDOF 3
ENDMDL
MODEL 5
REMARK VINA RESULT:      -7.6      0.620      1.068
REMARK  Name = 
REMARK  4 active torsions:
REMARK  status: ('A' for Active; 'I' for Inactive)
REMARK    1  A    between atoms: C_1  and  C_2
REMARK    2  A    between atoms: N_6  and  C_7
REMARK    3  A    between atoms: C_7  and  C_8
REMARK    4  A    between atoms: C_12  and  C_13
REMARK                            x       y       z     vdW  Elec       q    Type
REMARK                         _______ _______ _______ _____ _____    ______ ____
ROOT
ATOM      1  C   UNL     1       6.188   4.815  18.219  0.00  0.00    +0.000 A 
ATOM      2  C   UNL     1       6.864   5.947  18.633  0.00  0.00    +0.000 A 
ATOM      3  C   UNL     1       7.471   6.684  17.648  0.00  0.00    +0.000 A 
ATOM      4  N   UNL     1       7.452   6.343  16.346  0.00  0.00    +0.000 NA
ATOM      5  C   UNL     1       6.788   5.214  16.027  0.00  0.00    +0.000 A 
ATOM      6  N   UNL     1       6.144   4.435  16.919  0.00  0.00    +0.000 NA
ENDROOT
BRANCH   5   7
ATOM      7  C   UNL     1       6.796   4.797  14.616  0.00  0.00    +0.000 A 
ATOM      8  C   UNL     1       7.683   5.345  13.674  0.00  0.00    +0.000 A 
ATOM      9  C   UNL     1       7.680   4.915  12.350  0.00  0.00    +0.000 A 
ATOM     10  C   UNL     1       6.778   3.930  11.986  0.00  0.00    +0.000 A 
ATOM     11  N   UNL     1       5.900   3.371  12.844  0.00  0.00    +0.000 NA
ATOM     12  C   UNL     1       5.934   3.814  14.128  0.00  0.00    +0.000 A 
ENDBRANCH   5   7
BRANCH   1  13
ATOM     13  C   UNL     1       5.452   3.951  19.228  0.00  0.00    +0.000 C 
BRANCH  13  19
ATOM     14  C   UNL     1       1.361   4.521  17.603  0.00  0.00    +0.000 C 
ATOM     15  C   UNL     1       1.657   4.259  19.083  0.00  0.00    +0.000 C 
ATOM     16  C   UNL     1       1.307   2.822  19.484  0.00  0.00    +0.000 C 
ATOM     17  C   UNL     1       2.309   1.826  18.913  0.00  0.00    +0.000 C 
ATOM     18  C   UNL     1       3.746   2.217  19.262  0.00  0.00    +0.000 C 
ATOM     19  N   UNL     1       4.067   3.593  18.834  0.00  0.00    +0.000 NA
ATOM     20  C   UNL     1       3.126   4.556  19.435  0.00  0.00    +0.000 C 
ENDBRANCH  13  19
ENDBRANCH   1  13
TORSDOF 3
ENDMDL
MODEL 6
REMARK VINA RESULT:      -7.6      1.034      1.541
REMARK  Name = 
REMARK  4 active torsions:
REMARK  status: ('A' for Active; 'I' for Inactive)
REMARK    1  A    between atoms: C_1  and  C_2
REMARK    2  A    between atoms: N_6  and  C_7
REMARK    3  A    between atoms: C_7  and  C_8
REMARK    4  A    between atoms: C_12  and  C_13
REMARK                            x       y       z     vdW  Elec       q    Type
REMARK                         _______ _______ _______ _____ _____    ______ ____
ROOT
ATOM      1  C   UNL     1       5.914   4.555  18.167  0.00  0.00    +0.000 A 
ATOM      2  C   UNL     1       6.615   5.615  18.709  0.00  0.00    +0.000 A 
ATOM      3  C   UNL     1       7.330   6.383  17.826  0.00  0.00    +0.000 A 
ATOM      4  N   UNL     1       7.388   6.137  16.504  0.00  0.00    +0.000 NA
ATOM      5  C   UNL     1       6.691   5.072  16.057  0.00  0.00    +0.000 A 
ATOM      6  N   UNL     1       5.944   4.270  16.843  0.00  0.00    +0.000 NA
ENDROOT
BRANCH   5   7
ATOM      7  C   UNL     1       6.778   4.756  14.623  0.00  0.00    +0.000 A 
ATOM      8  C   UNL     1       7.689   5.397  13.765  0.00  0.00    +0.000 A 
ATOM      9  C   UNL     1       7.763   5.061  12.417  0.00  0.00    +0.000 A 
ATOM     10  C   UNL     1       6.915   4.075  11.942  0.00  0.00    +0.000 A 
ATOM     11  N   UNL     1       6.018   3.430  12.715  0.00  0.00    +0.000 NA
ATOM     12  C   UNL     1       5.976   3.783  14.027  0.00  0.00    +0.000 A 
ENDBRANCH   5   7
BRANCH   1  13
ATOM     13  C   UNL     1       5.063   3.666  19.057  0.00  0.00    +0.000 C 
BRANCH  13  19
ATOM     14  C   UNL     1       1.380   5.570  20.642  0.00  0.00    +0.000 C 
ATOM     15  C   UNL     1       1.599   4.055  20.596  0.00  0.00    +0.000 C 
ATOM     16  C   UNL     1       0.787   3.400  19.474  0.00  0.00    +0.000 C 
ATOM     17  C   UNL     1       1.376   3.715  18.105  0.00  0.00    +0.000 C 
ATOM     18  C   UNL     1       2.868   3.379  18.048  0.00  0.00    +0.000 C 
ATOM     19  N   UNL     1       3.630   4.051  19.118  0.00  0.00    +0.000 NA
ATOM     20  C   UNL     1       3.089   3.695  20.443  0.00  0.00    +0.000 C 
ENDBRANCH  13  19
ENDBRANCH   1  13
TORSDOF 3
ENDMDL
MODEL 7
REMARK VINA RESULT:      -7.5      0.634      1.467
REMARK  Name = 
REMARK  4 active torsions:
REMARK  status: ('A' for Active; 'I' for Inactive)
REMARK    1  A    between atoms: C_1  and  C_2
REMARK    2  A    between atoms: N_6  and  C_7
REMARK    3  A    between atoms: C_7  and  C_8
REMARK    4  A    between atoms: C_12  and  C_13
REMARK                            x       y       z     vdW  Elec       q    Type
REMARK                         _______ _______ _______ _____ _____    ______ ____
ROOT
ATOM      1  C   UNL     1       6.112   4.802  18.153  0.00  0.00    +0.000 A 
ATOM      2  C   UNL     1       6.808   5.920  18.569  0.00  0.00    +0.000 A 
ATOM      3  C   UNL     1       7.451   6.633  17.590  0.00  0.00    +0.000 A 
ATOM      4  N   UNL     1       7.447   6.282  16.290  0.00  0.00    +0.000 NA
ATOM      5  C   UNL     1       6.760   5.166  15.968  0.00  0.00    +0.000 A 
ATOM      6  N   UNL     1       6.082   4.411  16.856  0.00  0.00    +0.000 NA
ENDROOT
BRANCH   5   7
ATOM      7  C   UNL     1       6.782   4.737  14.561  0.00  0.00    +0.000 A 
ATOM      8  C   UNL     1       5.882   3.786  14.050  0.00  0.00    +0.000 A 
ATOM      9  C   UNL     1       5.913   3.416  12.709  0.00  0.00    +0.000 A 
ATOM     10  C   UNL     1       6.857   4.013  11.890  0.00  0.00    +0.000 A 
ATOM     11  N   UNL     1       7.749   4.926  12.324  0.00  0.00    +0.000 NA
ATOM     12  C   UNL     1       7.686   5.264  13.639  0.00  0.00    +0.000 A 
ENDBRANCH   5   7
BRANCH   1  13
ATOM     13  C   UNL     1       5.337   3.966  19.156  0.00  0.00    +0.000 C 
BRANCH  13  19
ATOM     14  C   UNL     1       1.051   3.062  19.874  0.00  0.00    +0.000 C 
ATOM     15  C   UNL     1       1.710   3.004  18.493  0.00  0.00    +0.000 C 
ATOM     16  C   UNL     1       1.320   4.209  17.629  0.00  0.00    +0.000 C 
ATOM     17  C   UNL     1       2.005   5.482  18.110  0.00  0.00    +0.000 C 
ATOM     18  C   UNL     1       3.518   5.291  18.233  0.00  0.00    +0.000 C 
ATOM     19  N   UNL     1       3.865   4.146  19.098  0.00  0.00    +0.000 NA
ATOM     20  C   UNL     1       3.244   2.907  18.593  0.00  0.00    +0.000 C 
ENDBRANCH  13  19
ENDBRANCH   1  13
TORSDOF 3
ENDMDL
MODEL 8
REMARK VINA RESULT:      -7.4      4.944      8.066
REMARK  Name = 
REMARK  4 active torsions:
REMARK  status: ('A' for Active; 'I' for Inactive)
REMARK    1  A    between atoms: C_1  and  C_2
REMARK    2  A    between atoms: N_6  and  C_7
REMARK    3  A    between atoms: C_7  and  C_8
REMARK    4  A    between atoms: C_12  and  C_13
REMARK                            x       y       z     vdW  Elec       q    Type
REMARK                         _______ _______ _______ _____ _____    ______ ____
ROOT
ATOM      1  C   UNL     1       2.511   7.428  19.023  0.00  0.00    +0.000 A 
ATOM      2  C   UNL     1       2.518   8.042  17.785  0.00  0.00    +0.000 A 
ATOM      3  C   UNL     1       1.822   9.220  17.689  0.00  0.00    +0.000 A 
ATOM      4  N   UNL     1       1.139   9.765  18.713  0.00  0.00    +0.000 NA
ATOM      5  C   UNL     1       1.166   9.094  19.883  0.00  0.00    +0.000 A 
ATOM      6  N   UNL     1       1.837   7.941  20.080  0.00  0.00    +0.000 NA
ENDROOT
BRANCH   5   7
ATOM      7  C   UNL     1       0.388   9.648  21.002  0.00  0.00    +0.000 A 
ATOM      8  C   UNL     1       0.390   9.066  22.281  0.00  0.00    +0.000 A 
ATOM      9  C   UNL     1      -0.339   9.625  23.326  0.00  0.00    +0.000 A 
ATOM     10  C   UNL     1      -1.069  10.773  23.070  0.00  0.00    +0.000 A 
ATOM     11  N   UNL     1      -1.115  11.373  21.863  0.00  0.00    +0.000 NA
ATOM     12  C   UNL     1      -0.387  10.800  20.868  0.00  0.00    +0.000 A 
ENDBRANCH   5   7
BRANCH   1  13
ATOM     13  C   UNL     1       3.283   6.138  19.241  0.00  0.00    +0.000 C 
BRANCH  13  19
ATOM     14  C   UNL     1       1.357   2.823  21.477  0.00  0.00    +0.000 C 
ATOM     15  C   UNL     1       2.424   2.611  20.399  0.00  0.00    +0.000 C 
ATOM     16  C   UNL     1       1.813   2.096  19.091  0.00  0.00    +0.000 C 
ATOM     17  C   UNL     1       1.035   3.190  18.372  0.00  0.00    +0.000 C 
ATOM     18  C   UNL     1       1.884   4.450  18.187  0.00  0.00    +0.000 C 
ATOM     19  N   UNL     1       2.430   4.944  19.466  0.00  0.00    +0.000 NA
ATOM     20  C   UNL     1       3.229   3.896  20.129  0.00  0.00    +0.000 C 
ENDBRANCH  13  19
ENDBRANCH   1  13
TORSDOF 3
ENDMDL
MODEL 9
REMARK VINA RESULT:      -7.4      4.861      8.026
REMARK  Name = 
REMARK  4 active torsions:
REMARK  status: ('A' for Active; 'I' for Inactive)
REMARK    1  A    between atoms: C_1  and  C_2
REMARK    2  A    between atoms: N_6  and  C_7
REMARK    3  A    between atoms: C_7  and  C_8
REMARK    4  A    between atoms: C_12  and  C_13
REMARK                            x       y       z     vdW  Elec       q    Type
REMARK                         _______ _______ _______ _____ _____    ______ ____
ROOT
ATOM      1  C   UNL     1       2.548   7.384  18.971  0.00  0.00    +0.000 A 
ATOM      2  C   UNL     1       2.533   8.006  17.738  0.00  0.00    +0.000 A 
ATOM      3  C   UNL     1       1.865   9.203  17.671  0.00  0.00    +0.000 A 
ATOM      4  N   UNL     1       1.230   9.758  18.720  0.00  0.00    +0.000 NA
ATOM      5  C   UNL     1       1.275   9.079  19.884  0.00  0.00    +0.000 A 
ATOM      6  N   UNL     1       1.921   7.907  20.052  0.00  0.00    +0.000 NA
ENDROOT
BRANCH   5   7
ATOM      7  C   UNL     1       0.546   9.644  21.030  0.00  0.00    +0.000 A 
ATOM      8  C   UNL     1      -0.440  10.634  20.881  0.00  0.00    +0.000 A 
ATOM      9  C   UNL     1      -1.127  11.134  21.982  0.00  0.00    +0.000 A 
ATOM     10  C   UNL     1      -0.814  10.628  23.232  0.00  0.00    +0.000 A 
ATOM     11  N   UNL     1       0.126   9.683  23.438  0.00  0.00    +0.000 NA
ATOM     12  C   UNL     1       0.775   9.216  22.338  0.00  0.00    +0.000 A 
ENDBRANCH   5   7
BRANCH   1  13
ATOM     13  C   UNL     1       3.292   6.073  19.158  0.00  0.00    +0.000 C 
BRANCH  13  19
ATOM     14  C   UNL     1       1.342   2.855  21.512  0.00  0.00    +0.000 C 
ATOM     15  C   UNL     1       2.378   2.594  20.415  0.00  0.00    +0.000 C 
ATOM     16  C   UNL     1       1.724   2.064  19.134  0.00  0.00    +0.000 C 
ATOM     17  C   UNL     1       0.955   3.161  18.408  0.00  0.00    +0.000 C 
ATOM     18  C   UNL     1       1.829   4.395  18.175  0.00  0.00    +0.000 C 
ATOM     19  N   UNL     1       2.417   4.905  19.429  0.00  0.00    +0.000 NA
ATOM     20  C   UNL     1       3.206   3.853  20.097  0.00  0.00    +0.000 C 
ENDBRANCH  13  19
ENDBRANCH   1  13
TORSDOF 3
ENDMDL
