MODEL 1
REMARK VINA RESULT:      -9.8      0.000      0.000
REMARK  Name = 
REMARK  7 active torsions:
REMARK  status: ('A' for Active; 'I' for Inactive)
REMARK    1  A    between atoms: C_1  and  O_2
REMARK    2  A    between atoms: O_2  and  C_3
REMARK    3  A    between atoms: C_6  and  C_7
REMARK    4  A    between atoms: C_8  and  C_9
REMARK    5  A    between atoms: C_10  and  C_11
REMARK    6  A    between atoms: C_11  and  C_13
REMARK    7  A    between atoms: C_14  and  C_15
REMARK                            x       y       z     vdW  Elec       q    Type
REMARK                         _______ _______ _______ _____ _____    ______ ____
ROOT
ATOM      1  C   UNL     1       3.143   5.789  19.244  0.00  0.00    +0.000 A 
ATOM      2  C   UNL     1       4.361   5.318  18.755  0.00  0.00    +0.000 A 
ATOM      3  N   UNL     1       4.622   4.032  19.123  0.00  0.00    +0.000 NA
ATOM      4  C   UNL     1       3.576   3.664  19.826  0.00  0.00    +0.000 A 
ATOM      5  C   UNL     1       3.288   2.425  20.470  0.00  0.00    +0.000 A 
ATOM      6  C   UNL     1       2.139   2.271  21.152  0.00  0.00    +0.000 A 
ATOM      7  C   UNL     1       1.162   3.342  21.232  0.00  0.00    +0.000 A 
ATOM      8  C   UNL     1       1.415   4.504  20.608  0.00  0.00    +0.000 A 
ATOM      9  N   UNL     1       2.625   4.685  19.923  0.00  0.00    +0.000 N 
ENDROOT
BRANCH   1  13
ATOM     10  C   UNL     1       1.133   9.577  18.886  0.00  0.00    +0.000 A 
ATOM     11  C   UNL     1       1.215   8.925  20.112  0.00  0.00    +0.000 A 
ATOM     12  C   UNL     1       1.930   7.729  20.232  0.00  0.00    +0.000 A 
ATOM     13  C   UNL     1       2.525   7.122  19.118  0.00  0.00    +0.000 A 
ATOM     14  C   UNL     1       2.422   7.785  17.887  0.00  0.00    +0.000 A 
ATOM     15  C   UNL     1       1.754   9.015  17.774  0.00  0.00    +0.000 A 
BRANCH  10  17
ATOM     16  C   UNL     1      -0.963  10.577  19.333  0.00  0.00    +0.000 C 
ATOM     17  O   UNL     1       0.379  10.716  18.888  0.00  0.00    +0.000 OA
ENDBRANCH  10  17
ENDBRANCH   1  13
BRANCH   2  18
ATOM     18  C   UNL     1       5.322   6.027  17.980  0.00  0.00    +0.000 C 
ATOM     19  C   UNL     1       6.609   6.168  18.334  0.00  0.00    +0.000 C 
BRANCH  19  20
ATOM     20  C   UNL     1       7.538   7.000  17.523  0.00  0.00    +0.000 C 
ATOM     21  O   UNL     1       7.770   6.786  16.339  0.00  0.00    +0.000 OA
BRANCH  20  22
ATOM     22  C   UNL     1       8.154   8.122  18.284  0.00  0.00    +0.000 C 
ATOM     23  C   UNL     1       8.255   9.363  17.770  0.00  0.00    +0.000 C 
BRANCH  23  24
ATOM     24  C   UNL     1       8.888  10.486  18.478  0.00  0.00    +0.000 A 
ATOM     25  C   UNL     1       8.920  11.750  17.870  0.00  0.00    +0.000 A 
ATOM     26  C   UNL     1       9.539  12.836  18.501  0.00  0.00    +0.000 A 
ATOM     27  C   UNL     1      10.123  12.677  19.754  0.00  0.00    +0.000 A 
ATOM     28  C   UNL     1      10.073  11.438  20.388  0.00  0.00    +0.000 A 
ATOM     29  C   UNL     1       9.450  10.355  19.758  0.00  0.00    +0.000 A 
ENDBRANCH  23  24
ENDBRANCH  20  22
ENDBRANCH  19  20
ENDBRANCH   2  18
TORSDOF 6
ENDMDL
MODEL 2
REMARK VINA RESULT:      -9.7      0.650      1.180
REMARK  Name = 
REMARK  7 active torsions:
REMARK  status: ('A' for Active; 'I' for Inactive)
REMARK    1  A    between atoms: C_1  and  O_2
REMARK    2  A    between atoms: O_2  and  C_3
REMARK    3  A    between atoms: C_6  and  C_7
REMARK    4  A    between atoms: C_8  and  C_9
REMARK    5  A    between atoms: C_10  and  C_11
REMARK    6  A    between atoms: C_11  and  C_13
REMARK    7  A    between atoms: C_14  and  C_15
REMARK                            x       y       z     vdW  Elec       q    Type
REMARK                         _______ _______ _______ _____ _____    ______ ____
ROOT
ATOM      1  C   UNL     1       3.141   5.831  19.245  0.00  0.00    +0.000 A 
ATOM      2  C   UNL     1       4.381   5.391  18.785  0.00  0.00    +0.000 A 
ATOM      3  N   UNL     1       4.674   4.117  19.172  0.00  0.00    +0.000 NA
ATOM      4  C   UNL     1       3.626   3.726  19.860  0.00  0.00    +0.000 A 
ATOM      5  C   UNL     1       3.363   2.486  20.513  0.00  0.00    +0.000 A 
ATOM      6  C   UNL     1       2.205   2.305  21.174  0.00  0.00    +0.000 A 
ATOM      7  C   UNL     1       1.196   3.346  21.223  0.00  0.00    +0.000 A 
ATOM      8  C   UNL     1       1.425   4.509  20.590  0.00  0.00    +0.000 A 
ATOM      9  N   UNL     1       2.642   4.719  19.926  0.00  0.00    +0.000 N 
ENDROOT
BRANCH   1  13
ATOM     10  C   UNL     1       1.435   9.756  18.798  0.00  0.00    +0.000 A 
ATOM     11  C   UNL     1       2.043   9.114  17.724  0.00  0.00    +0.000 A 
ATOM     12  C   UNL     1       2.533   7.812  17.861  0.00  0.00    +0.000 A 
ATOM     13  C   UNL     1       2.485   7.142  19.091  0.00  0.00    +0.000 A 
ATOM     14  C   UNL     1       1.881   7.807  20.167  0.00  0.00    +0.000 A 
ATOM     15  C   UNL     1       1.337   9.093  20.018  0.00  0.00    +0.000 A 
BRANCH  10  17
ATOM     16  C   UNL     1       2.062  11.995  18.367  0.00  0.00    +0.000 C 
ATOM     17  O   UNL     1       1.029  11.037  18.551  0.00  0.00    +0.000 OA
ENDBRANCH  10  17
ENDBRANCH   1  13
BRANCH   2  18
ATOM     18  C   UNL     1       5.335   6.120  18.020  0.00  0.00    +0.000 C 
ATOM     19  C   UNL     1       6.621   6.267  18.375  0.00  0.00    +0.000 C 
BRANCH  19  20
ATOM     20  C   UNL     1       7.542   7.120  17.576  0.00  0.00    +0.000 C 
ATOM     21  O   UNL     1       7.687   6.999  16.366  0.00  0.00    +0.000 OA
BRANCH  20  22
ATOM     22  C   UNL     1       8.267   8.138  18.386  0.00  0.00    +0.000 C 
ATOM     23  C   UNL     1       8.480   9.389  17.934  0.00  0.00    +0.000 C 
BRANCH  23  24
ATOM     24  C   UNL     1       9.221  10.410  18.690  0.00  0.00    +0.000 A 
ATOM     25  C   UNL     1       9.997  11.351  17.995  0.00  0.00    +0.000 A 
ATOM     26  C   UNL     1      10.738  12.320  18.683  0.00  0.00    +0.000 A 
ATOM     27  C   UNL     1      10.704  12.371  20.073  0.00  0.00    +0.000 A 
ATOM     28  C   UNL     1       9.915  11.466  20.778  0.00  0.00    +0.000 A 
ATOM     29  C   UNL     1       9.171  10.501  20.091  0.00  0.00    +0.000 A 
ENDBRANCH  23  24
ENDBRANCH  20  22
ENDBRANCH  19  20
ENDBRANCH   2  18
TORSDOF 6
ENDMDL
MODEL 3
REMARK VINA RESULT:      -9.6      0.241      1.284
REMARK  Name = 
REMARK  7 active torsions:
REMARK  status: ('A' for Active; 'I' for Inactive)
REMARK    1  A    between atoms: C_1  and  O_2
REMARK    2  A    between atoms: O_2  and  C_3
REMARK    3  A    between atoms: C_6  and  C_7
REMARK    4  A    between atoms: C_8  and  C_9
REMARK    5  A    between atoms: C_10  and  C_11
REMARK    6  A    between atoms: C_11  and  C_13
REMARK    7  A    between atoms: C_14  and  C_15
REMARK                            x       y       z     vdW  Elec       q    Type
REMARK                         _______ _______ _______ _____ _____    ______ ____
ROOT
ATOM      1  C   UNL     1       3.113   5.711  19.296  0.00  0.00    +0.000 A 
ATOM      2  C   UNL     1       4.354   5.294  18.817  0.00  0.00    +0.000 A 
ATOM      3  N   UNL     1       4.682   4.031  19.212  0.00  0.00    +0.000 NA
ATOM      4  C   UNL     1       3.656   3.624  19.924  0.00  0.00    +0.000 A 
ATOM      5  C   UNL     1       3.433   2.386  20.595  0.00  0.00    +0.000 A 
ATOM      6  C   UNL     1       2.293   2.187  21.281  0.00  0.00    +0.000 A 
ATOM      7  C   UNL     1       1.261   3.207  21.338  0.00  0.00    +0.000 A 
ATOM      8  C   UNL     1       1.453   4.367  20.688  0.00  0.00    +0.000 A 
ATOM      9  N   UNL     1       2.652   4.596  19.999  0.00  0.00    +0.000 N 
ENDROOT
BRANCH   1  13
ATOM     10  C   UNL     1       1.312   9.590  18.826  0.00  0.00    +0.000 A 
ATOM     11  C   UNL     1       1.853   8.917  17.736  0.00  0.00    +0.000 A 
ATOM     12  C   UNL     1       2.374   7.629  17.886  0.00  0.00    +0.000 A 
ATOM     13  C   UNL     1       2.425   7.006  19.140  0.00  0.00    +0.000 A 
ATOM     14  C   UNL     1       1.888   7.703  20.231  0.00  0.00    +0.000 A 
ATOM     15  C   UNL     1       1.312   8.973  20.074  0.00  0.00    +0.000 A 
BRANCH  10  17
ATOM     16  C   UNL     1      -0.371  11.220  19.154  0.00  0.00    +0.000 C 
ATOM     17  O   UNL     1       0.867  10.855  18.561  0.00  0.00    +0.000 OA
ENDBRANCH  10  17
ENDBRANCH   1  13
BRANCH   2  18
ATOM     18  C   UNL     1       5.277   6.036  18.026  0.00  0.00    +0.000 C 
ATOM     19  C   UNL     1       6.596   6.083  18.268  0.00  0.00    +0.000 C 
BRANCH  19  20
ATOM     20  C   UNL     1       7.491   6.952  17.456  0.00  0.00    +0.000 C 
ATOM     21  O   UNL     1       7.720   6.755  16.269  0.00  0.00    +0.000 OA
BRANCH  20  22
ATOM     22  C   UNL     1       8.076   8.087  18.222  0.00  0.00    +0.000 C 
ATOM     23  C   UNL     1       8.221   9.312  17.682  0.00  0.00    +0.000 C 
BRANCH  23  24
ATOM     24  C   UNL     1       8.827  10.447  18.396  0.00  0.00    +0.000 A 
ATOM     25  C   UNL     1       9.428  10.231  19.646  0.00  0.00    +0.000 A 
ATOM     26  C   UNL     1       9.989  11.291  20.367  0.00  0.00    +0.000 A 
ATOM     27  C   UNL     1       9.970  12.581  19.844  0.00  0.00    +0.000 A 
ATOM     28  C   UNL     1       9.406  12.810  18.591  0.00  0.00    +0.000 A 
ATOM     29  C   UNL     1       8.850  11.749  17.869  0.00  0.00    +0.000 A 
ENDBRANCH  23  24
ENDBRANCH  20  22
ENDBRANCH  19  20
ENDBRANCH   2  18
TORSDOF 6
ENDMDL
MODEL 4
REMARK VINA RESULT:      -9.2      3.264      7.922
REMARK  Name = 
REMARK  7 active torsions:
REMARK  status: ('A' for Active; 'I' for Inactive)
REMARK    1  A    between atoms: C_1  and  O_2
REMARK    2  A    between atoms: O_2  and  C_3
REMARK    3  A    between atoms: C_6  and  C_7
REMARK    4  A    between atoms: C_8  and  C_9
REMARK    5  A    between atoms: C_10  and  C_11
REMARK    6  A    between atoms: C_11  and  C_13
REMARK    7  A    between atoms: C_14  and  C_15
REMARK                            x       y       z     vdW  Elec       q    Type
REMARK                         _______ _______ _______ _____ _____    ______ ____
ROOT
ATOM      1  C   UNL     1       3.680   5.329  18.679  0.00  0.00    +0.000 A 
ATOM      2  C   UNL     1       2.663   6.228  18.996  0.00  0.00    +0.000 A 
ATOM      3  N   UNL     1       1.851   5.785  19.998  0.00  0.00    +0.000 NA
ATOM      4  C   UNL     1       2.348   4.620  20.342  0.00  0.00    +0.000 A 
ATOM      5  C   UNL     1       1.916   3.691  21.335  0.00  0.00    +0.000 A 
ATOM      6  C   UNL     1       2.584   2.537  21.513  0.00  0.00    +0.000 A 
ATOM      7  C   UNL     1       3.760   2.218  20.724  0.00  0.00    +0.000 A 
ATOM      8  C   UNL     1       4.187   3.098  19.804  0.00  0.00    +0.000 A 
ATOM      9  N   UNL     1       3.479   4.289  19.588  0.00  0.00    +0.000 N 
ENDROOT
BRANCH   1  13
ATOM     10  C   UNL     1       6.791   5.348  15.706  0.00  0.00    +0.000 A 
ATOM     11  C   UNL     1       5.655   4.562  15.546  0.00  0.00    +0.000 A 
ATOM     12  C   UNL     1       4.619   4.614  16.483  0.00  0.00    +0.000 A 
ATOM     13  C   UNL     1       4.719   5.405  17.636  0.00  0.00    +0.000 A 
ATOM     14  C   UNL     1       5.877   6.181  17.789  0.00  0.00    +0.000 A 
ATOM     15  C   UNL     1       6.893   6.174  16.822  0.00  0.00    +0.000 A 
BRANCH  10  17
ATOM     16  C   UNL     1       7.279   4.829  13.451  0.00  0.00    +0.000 C 
ATOM     17  O   UNL     1       7.747   5.182  14.745  0.00  0.00    +0.000 OA
ENDBRANCH  10  17
ENDBRANCH   1  13
BRANCH   2  18
ATOM     18  C   UNL     1       2.385   7.482  18.381  0.00  0.00    +0.000 C 
ATOM     19  C   UNL     1       1.848   8.528  19.028  0.00  0.00    +0.000 C 
BRANCH  19  20
ATOM     20  C   UNL     1       1.499   9.779  18.302  0.00  0.00    +0.000 C 
ATOM     21  O   UNL     1       2.244  10.312  17.488  0.00  0.00    +0.000 OA
BRANCH  20  22
ATOM     22  C   UNL     1       0.157  10.319  18.655  0.00  0.00    +0.000 C 
ATOM     23  C   UNL     1      -0.915  10.142  17.858  0.00  0.00    +0.000 C 
BRANCH  23  24
ATOM     24  C   UNL     1      -2.247  10.690  18.155  0.00  0.00    +0.000 A 
ATOM     25  C   UNL     1      -3.374  10.131  17.533  0.00  0.00    +0.000 A 
ATOM     26  C   UNL     1      -4.655  10.644  17.770  0.00  0.00    +0.000 A 
ATOM     27  C   UNL     1      -4.829  11.714  18.642  0.00  0.00    +0.000 A 
ATOM     28  C   UNL     1      -3.727  12.262  19.293  0.00  0.00    +0.000 A 
ATOM     29  C   UNL     1      -2.448  11.745  19.059  0.00  0.00    +0.000 A 
ENDBRANCH  23  24
ENDBRANCH  20  22
ENDBRANCH  19  20
ENDBRANCH   2  18
TORSDOF 6
ENDMDL
MODEL 5
REMARK VINA RESULT:      -9.0      3.259      7.497
REMARK  Name = 
REMARK  7 active torsions:
REMARK  status: ('A' for Active; 'I' for Inactive)
REMARK    1  A    between atoms: C_1  and  O_2
REMARK    2  A    between atoms: O_2  and  C_3
REMARK    3  A    between atoms: C_6  and  C_7
REMARK    4  A    between atoms: C_8  and  C_9
REMARK    5  A    between atoms: C_10  and  C_11
REMARK    6  A    between atoms: C_11  and  C_13
REMARK    7  A    between atoms: C_14  and  C_15
REMARK                            x       y       z     vdW  Elec       q    Type
REMARK                         _______ _______ _______ _____ _____    ______ ____
ROOT
ATOM      1  C   UNL     1       3.790   5.403  18.781  0.00  0.00    +0.000 A 
ATOM      2  C   UNL     1       2.808   6.315  19.166  0.00  0.00    +0.000 A 
ATOM      3  N   UNL     1       2.008   5.849  20.167  0.00  0.00    +0.000 NA
ATOM      4  C   UNL     1       2.478   4.655  20.444  0.00  0.00    +0.000 A 
ATOM      5  C   UNL     1       2.043   3.693  21.403  0.00  0.00    +0.000 A 
ATOM      6  C   UNL     1       2.680   2.514  21.511  0.00  0.00    +0.000 A 
ATOM      7  C   UNL     1       3.827   2.198  20.679  0.00  0.00    +0.000 A 
ATOM      8  C   UNL     1       4.258   3.108  19.789  0.00  0.00    +0.000 A 
ATOM      9  N   UNL     1       3.580   4.328  19.647  0.00  0.00    +0.000 N 
ENDROOT
BRANCH   1  13
ATOM     10  C   UNL     1       6.798   5.460  15.705  0.00  0.00    +0.000 A 
ATOM     11  C   UNL     1       5.542   4.913  15.466  0.00  0.00    +0.000 A 
ATOM     12  C   UNL     1       4.549   4.961  16.449  0.00  0.00    +0.000 A 
ATOM     13  C   UNL     1       4.806   5.499  17.718  0.00  0.00    +0.000 A 
ATOM     14  C   UNL     1       6.081   6.034  17.947  0.00  0.00    +0.000 A 
ATOM     15  C   UNL     1       7.062   6.039  16.943  0.00  0.00    +0.000 A 
BRANCH  10  17
ATOM     16  C   UNL     1       7.205   4.684  13.509  0.00  0.00    +0.000 C 
ATOM     17  O   UNL     1       7.692   5.319  14.682  0.00  0.00    +0.000 OA
ENDBRANCH  10  17
ENDBRANCH   1  13
BRANCH   2  18
ATOM     18  C   UNL     1       2.553   7.604  18.616  0.00  0.00    +0.000 C 
ATOM     19  C   UNL     1       1.697   8.487  19.153  0.00  0.00    +0.000 C 
BRANCH  19  20
ATOM     20  C   UNL     1       1.409   9.781  18.476  0.00  0.00    +0.000 C 
ATOM     21  O   UNL     1       2.024  10.174  17.492  0.00  0.00    +0.000 OA
BRANCH  20  22
ATOM     22  C   UNL     1       0.298  10.549  19.104  0.00  0.00    +0.000 C 
ATOM     23  C   UNL     1       0.163  10.643  20.441  0.00  0.00    +0.000 C 
BRANCH  23  24
ATOM     24  C   UNL     1      -0.941  11.363  21.096  0.00  0.00    +0.000 A 
ATOM     25  C   UNL     1      -1.075  11.289  22.491  0.00  0.00    +0.000 A 
ATOM     26  C   UNL     1      -2.129  11.937  23.147  0.00  0.00    +0.000 A 
ATOM     27  C   UNL     1      -3.055  12.679  22.420  0.00  0.00    +0.000 A 
ATOM     28  C   UNL     1      -2.919  12.790  21.038  0.00  0.00    +0.000 A 
ATOM     29  C   UNL     1      -1.864  12.146  20.385  0.00  0.00    +0.000 A 
ENDBRANCH  23  24
ENDBRANCH  20  22
ENDBRANCH  19  20
ENDBRANCH   2  18
TORSDOF 6
ENDMDL
MODEL 6
REMARK VINA RESULT:      -8.9      3.607      7.921
REMARK  Name = 
REMARK  7 active torsions:
REMARK  status: ('A' for Active; 'I' for Inactive)
REMARK    1  A    between atoms: C_1  and  O_2
REMARK    2  A    between atoms: O_2  and  C_3
REMARK    3  A    between atoms: C_6  and  C_7
REMARK    4  A    between atoms: C_8  and  C_9
REMARK    5  A    between atoms: C_10  and  C_11
REMARK    6  A    between atoms: C_11  and  C_13
REMARK    7  A    between atoms: C_14  and  C_15
REMARK                            x       y       z     vdW  Elec       q    Type
REMARK                         _______ _______ _______ _____ _____    ______ ____
ROOT
ATOM      1  C   UNL     1       3.809   5.500  18.835  0.00  0.00    +0.000 A 
ATOM      2  C   UNL     1       2.854   6.462  19.159  0.00  0.00    +0.000 A 
ATOM      3  N   UNL     1       1.974   6.043  20.113  0.00  0.00    +0.000 NA
ATOM      4  C   UNL     1       2.366   4.828  20.420  0.00  0.00    +0.000 A 
ATOM      5  C   UNL     1       1.828   3.895  21.354  0.00  0.00    +0.000 A 
ATOM      6  C   UNL     1       2.398   2.685  21.502  0.00  0.00    +0.000 A 
ATOM      7  C   UNL     1       3.574   2.308  20.739  0.00  0.00    +0.000 A 
ATOM      8  C   UNL     1       4.102   3.190  19.875  0.00  0.00    +0.000 A 
ATOM      9  N   UNL     1       3.495   4.441  19.689  0.00  0.00    +0.000 N 
ENDROOT
BRANCH   1  13
ATOM     10  C   UNL     1       6.884   5.414  15.827  0.00  0.00    +0.000 A 
ATOM     11  C   UNL     1       5.573   5.746  15.500  0.00  0.00    +0.000 A 
ATOM     12  C   UNL     1       4.596   5.839  16.495  0.00  0.00    +0.000 A 
ATOM     13  C   UNL     1       4.889   5.539  17.833  0.00  0.00    +0.000 A 
ATOM     14  C   UNL     1       6.211   5.193  18.144  0.00  0.00    +0.000 A 
ATOM     15  C   UNL     1       7.207   5.155  17.155  0.00  0.00    +0.000 A 
BRANCH  10  17
ATOM     16  C   UNL     1       7.172   4.855  13.547  0.00  0.00    +0.000 C 
ATOM     17  O   UNL     1       7.737   5.321  14.764  0.00  0.00    +0.000 OA
ENDBRANCH  10  17
ENDBRANCH   1  13
BRANCH   2  18
ATOM     18  C   UNL     1       2.696   7.759  18.593  0.00  0.00    +0.000 C 
ATOM     19  C   UNL     1       1.651   8.562  18.846  0.00  0.00    +0.000 C 
BRANCH  19  20
ATOM     20  C   UNL     1       1.503   9.868  18.148  0.00  0.00    +0.000 C 
ATOM     21  O   UNL     1       2.382  10.357  17.449  0.00  0.00    +0.000 OA
BRANCH  20  22
ATOM     22  C   UNL     1       0.184  10.521  18.376  0.00  0.00    +0.000 C 
ATOM     23  C   UNL     1      -0.945  10.067  17.799  0.00  0.00    +0.000 C 
BRANCH  23  24
ATOM     24  C   UNL     1      -2.258  10.706  17.972  0.00  0.00    +0.000 A 
ATOM     25  C   UNL     1      -2.457  11.585  19.048  0.00  0.00    +0.000 A 
ATOM     26  C   UNL     1      -3.702  12.190  19.261  0.00  0.00    +0.000 A 
ATOM     27  C   UNL     1      -4.761  11.935  18.395  0.00  0.00    +0.000 A 
ATOM     28  C   UNL     1      -4.574  11.091  17.304  0.00  0.00    +0.000 A 
ATOM     29  C   UNL     1      -3.329  10.490  17.089  0.00  0.00    +0.000 A 
ENDBRANCH  23  24
ENDBRANCH  20  22
ENDBRANCH  19  20
ENDBRANCH   2  18
TORSDOF 6
ENDMDL
MODEL 7
REMARK VINA RESULT:      -8.9      3.313      7.271
REMARK  Name = 
REMARK  7 active torsions:
REMARK  status: ('A' for Active; 'I' for Inactive)
REMARK    1  A    between atoms: C_1  and  O_2
REMARK    2  A    between atoms: O_2  and  C_3
REMARK    3  A    between atoms: C_6  and  C_7
REMARK    4  A    between atoms: C_8  and  C_9
REMARK    5  A    between atoms: C_10  and  C_11
REMARK    6  A    between atoms: C_11  and  C_13
REMARK    7  A    between atoms: C_14  and  C_15
REMARK                            x       y       z     vdW  Elec       q    Type
REMARK                         _______ _______ _______ _____ _____    ______ ____
ROOT
ATOM      1  C   UNL     1       3.787   5.110  18.829  0.00  0.00    +0.000 A 
ATOM      2  C   UNL     1       2.836   6.073  19.164  0.00  0.00    +0.000 A 
ATOM      3  N   UNL     1       2.017   5.683  20.182  0.00  0.00    +0.000 NA
ATOM      4  C   UNL     1       2.444   4.488  20.518  0.00  0.00    +0.000 A 
ATOM      5  C   UNL     1       1.973   3.589  21.519  0.00  0.00    +0.000 A 
ATOM      6  C   UNL     1       2.568   2.394  21.686  0.00  0.00    +0.000 A 
ATOM      7  C   UNL     1       3.707   2.001  20.876  0.00  0.00    +0.000 A 
ATOM      8  C   UNL     1       4.172   2.852  19.947  0.00  0.00    +0.000 A 
ATOM      9  N   UNL     1       3.537   4.085  19.743  0.00  0.00    +0.000 N 
ENDROOT
BRANCH   1  13
ATOM     10  C   UNL     1       6.695   5.346  15.666  0.00  0.00    +0.000 A 
ATOM     11  C   UNL     1       6.857   6.072  16.841  0.00  0.00    +0.000 A 
ATOM     12  C   UNL     1       5.943   5.936  17.890  0.00  0.00    +0.000 A 
ATOM     13  C   UNL     1       4.810   5.121  17.767  0.00  0.00    +0.000 A 
ATOM     14  C   UNL     1       4.654   4.406  16.571  0.00  0.00    +0.000 A 
ATOM     15  C   UNL     1       5.601   4.496  15.539  0.00  0.00    +0.000 A 
BRANCH  10  17
ATOM     16  C   UNL     1       7.414   4.968  13.445  0.00  0.00    +0.000 C 
ATOM     17  O   UNL     1       7.633   5.591  14.703  0.00  0.00    +0.000 OA
ENDBRANCH  10  17
ENDBRANCH   1  13
BRANCH   2  18
ATOM     18  C   UNL     1       2.628   7.342  18.553  0.00  0.00    +0.000 C 
ATOM     19  C   UNL     1       1.858   8.307  19.081  0.00  0.00    +0.000 C 
BRANCH  19  20
ATOM     20  C   UNL     1       1.610   9.575  18.344  0.00  0.00    +0.000 C 
ATOM     21  O   UNL     1       2.186   9.870  17.303  0.00  0.00    +0.000 OA
BRANCH  20  22
ATOM     22  C   UNL     1       0.590  10.450  18.987  0.00  0.00    +0.000 C 
ATOM     23  C   UNL     1       0.304  10.365  20.300  0.00  0.00    +0.000 C 
BRANCH  23  24
ATOM     24  C   UNL     1      -0.720  11.187  20.963  0.00  0.00    +0.000 A 
ATOM     25  C   UNL     1      -1.579  11.975  20.181  0.00  0.00    +0.000 A 
ATOM     26  C   UNL     1      -2.548  12.791  20.777  0.00  0.00    +0.000 A 
ATOM     27  C   UNL     1      -2.681  12.821  22.162  0.00  0.00    +0.000 A 
ATOM     28  C   UNL     1      -1.859  12.023  22.953  0.00  0.00    +0.000 A 
ATOM     29  C   UNL     1      -0.895  11.204  22.356  0.00  0.00    +0.000 A 
ENDBRANCH  23  24
ENDBRANCH  20  22
ENDBRANCH  19  20
ENDBRANCH   2  18
TORSDOF 6
ENDMDL
MODEL 8
REMARK VINA RESULT:      -8.9      3.338      5.227
REMARK  Name = 
REMARK  7 active torsions:
REMARK  status: ('A' for Active; 'I' for Inactive)
REMARK    1  A    between atoms: C_1  and  O_2
REMARK    2  A    between atoms: O_2  and  C_3
REMARK    3  A    between atoms: C_6  and  C_7
REMARK    4  A    between atoms: C_8  and  C_9
REMARK    5  A    between atoms: C_10  and  C_11
REMARK    6  A    between atoms: C_11  and  C_13
REMARK    7  A    between atoms: C_14  and  C_15
REMARK                            x       y       z     vdW  Elec       q    Type
REMARK                         _______ _______ _______ _____ _____    ______ ____
ROOT
ATOM      1  C   UNL     1       5.660   4.756  15.689  0.00  0.00    +0.000 A 
ATOM      2  C   UNL     1       6.885   5.392  15.880  0.00  0.00    +0.000 A 
ATOM      3  N   UNL     1       7.697   5.327  14.786  0.00  0.00    +0.000 NA
ATOM      4  C   UNL     1       6.997   4.674  13.887  0.00  0.00    +0.000 A 
ATOM      5  C   UNL     1       7.330   4.304  12.550  0.00  0.00    +0.000 A 
ATOM      6  C   UNL     1       6.447   3.621  11.801  0.00  0.00    +0.000 A 
ATOM      7  C   UNL     1       5.138   3.263  12.317  0.00  0.00    +0.000 A 
ATOM      8  C   UNL     1       4.807   3.629  13.567  0.00  0.00    +0.000 A 
ATOM      9  N   UNL     1       5.734   4.313  14.367  0.00  0.00    +0.000 N 
ENDROOT
BRANCH   1  13
ATOM     10  C   UNL     1       2.259   4.130  18.250  0.00  0.00    +0.000 A 
ATOM     11  C   UNL     1       2.947   3.053  17.699  0.00  0.00    +0.000 A 
ATOM     12  C   UNL     1       4.091   3.265  16.925  0.00  0.00    +0.000 A 
ATOM     13  C   UNL     1       4.540   4.559  16.628  0.00  0.00    +0.000 A 
ATOM     14  C   UNL     1       3.827   5.633  17.179  0.00  0.00    +0.000 A 
ATOM     15  C   UNL     1       2.712   5.423  18.004  0.00  0.00    +0.000 A 
BRANCH  10  17
ATOM     16  C   UNL     1       1.295   3.690  20.364  0.00  0.00    +0.000 C 
ATOM     17  O   UNL     1       1.137   3.797  18.956  0.00  0.00    +0.000 OA
ENDBRANCH  10  17
ENDBRANCH   1  13
BRANCH   2  18
ATOM     18  C   UNL     1       7.359   6.036  17.058  0.00  0.00    +0.000 C 
ATOM     19  C   UNL     1       7.648   7.345  17.127  0.00  0.00    +0.000 C 
BRANCH  19  20
ATOM     20  C   UNL     1       8.227   7.935  18.364  0.00  0.00    +0.000 C 
ATOM     21  O   UNL     1       8.432   7.288  19.384  0.00  0.00    +0.000 OA
BRANCH  20  22
ATOM     22  C   UNL     1       8.539   9.387  18.244  0.00  0.00    +0.000 C 
ATOM     23  C   UNL     1       9.281  10.035  19.162  0.00  0.00    +0.000 C 
BRANCH  23  24
ATOM     24  C   UNL     1       9.580  11.474  19.095  0.00  0.00    +0.000 A 
ATOM     25  C   UNL     1       8.910  12.271  18.154  0.00  0.00    +0.000 A 
ATOM     26  C   UNL     1       9.188  13.639  18.042  0.00  0.00    +0.000 A 
ATOM     27  C   UNL     1      10.131  14.231  18.877  0.00  0.00    +0.000 A 
ATOM     28  C   UNL     1      10.783  13.463  19.838  0.00  0.00    +0.000 A 
ATOM     29  C   UNL     1      10.500  12.098  19.953  0.00  0.00    +0.000 A 
ENDBRANCH  23  24
ENDBRANCH  20  22
ENDBRANCH  19  20
ENDBRANCH   2  18
TORSDOF 6
ENDMDL
MODEL 9
REMARK VINA RESULT:      -8.8      3.237      7.100
REMARK  Name = 
REMARK  7 active torsions:
REMARK  status: ('A' for Active; 'I' for Inactive)
REMARK    1  A    between atoms: C_1  and  O_2
REMARK    2  A    between atoms: O_2  and  C_3
REMARK    3  A    between atoms: C_6  and  C_7
REMARK    4  A    between atoms: C_8  and  C_9
REMARK    5  A    between atoms: C_10  and  C_11
REMARK    6  A    between atoms: C_11  and  C_13
REMARK    7  A    between atoms: C_14  and  C_15
REMARK                            x       y       z     vdW  Elec       q    Type
REMARK                         _______ _______ _______ _____ _____    ______ ____
ROOT
ATOM      1  C   UNL     1       3.744   5.397  18.802  0.00  0.00    +0.000 A 
ATOM      2  C   UNL     1       2.789   6.337  19.185  0.00  0.00    +0.000 A 
ATOM      3  N   UNL     1       1.975   5.894  20.185  0.00  0.00    +0.000 NA
ATOM      4  C   UNL     1       2.410   4.686  20.463  0.00  0.00    +0.000 A 
ATOM      5  C   UNL     1       1.947   3.738  21.422  0.00  0.00    +0.000 A 
ATOM      6  C   UNL     1       2.550   2.540  21.530  0.00  0.00    +0.000 A 
ATOM      7  C   UNL     1       3.688   2.192  20.698  0.00  0.00    +0.000 A 
ATOM      8  C   UNL     1       4.146   3.089  19.809  0.00  0.00    +0.000 A 
ATOM      9  N   UNL     1       3.503   4.328  19.666  0.00  0.00    +0.000 N 
ENDROOT
BRANCH   1  13
ATOM     10  C   UNL     1       6.791   5.384  15.763  0.00  0.00    +0.000 A 
ATOM     11  C   UNL     1       5.629   4.635  15.613  0.00  0.00    +0.000 A 
ATOM     12  C   UNL     1       4.615   4.699  16.573  0.00  0.00    +0.000 A 
ATOM     13  C   UNL     1       4.763   5.464  17.738  0.00  0.00    +0.000 A 
ATOM     14  C   UNL     1       5.946   6.203  17.881  0.00  0.00    +0.000 A 
ATOM     15  C   UNL     1       6.941   6.185  16.892  0.00  0.00    +0.000 A 
BRANCH  10  17
ATOM     16  C   UNL     1       7.220   4.834  13.504  0.00  0.00    +0.000 C 
ATOM     17  O   UNL     1       7.722   5.210  14.779  0.00  0.00    +0.000 OA
ENDBRANCH  10  17
ENDBRANCH   1  13
BRANCH   2  18
ATOM     18  C   UNL     1       2.571   7.632  18.636  0.00  0.00    +0.000 C 
ATOM     19  C   UNL     1       1.775   8.556  19.197  0.00  0.00    +0.000 C 
BRANCH  19  20
ATOM     20  C   UNL     1       1.520   9.857  18.521  0.00  0.00    +0.000 C 
ATOM     21  O   UNL     1       1.864  10.093  17.369  0.00  0.00    +0.000 OA
BRANCH  20  22
ATOM     22  C   UNL     1       0.801  10.843  19.375  0.00  0.00    +0.000 C 
ATOM     23  C   UNL     1       0.630  10.650  20.697  0.00  0.00    +0.000 C 
BRANCH  23  24
ATOM     24  C   UNL     1      -0.104  11.583  21.565  0.00  0.00    +0.000 A 
ATOM     25  C   UNL     1       0.186  12.955  21.498  0.00  0.00    +0.000 A 
ATOM     26  C   UNL     1      -0.473  13.870  22.329  0.00  0.00    +0.000 A 
ATOM     27  C   UNL     1      -1.438  13.429  23.229  0.00  0.00    +0.000 A 
ATOM     28  C   UNL     1      -1.761  12.076  23.288  0.00  0.00    +0.000 A 
ATOM     29  C   UNL     1      -1.107  11.163  22.454  0.00  0.00    +0.000 A 
ENDBRANCH  23  24
ENDBRANCH  20  22
ENDBRANCH  19  20
ENDBRANCH   2  18
TORSDOF 6
ENDMDL
