MODEL 1
REMARK VINA RESULT:      -8.1      0.000      0.000
REMARK  Name = 
REMARK  5 active torsions:
REMARK  status: ('A' for Active; 'I' for Inactive)
REMARK    1  A    between atoms: C_1  and  C_2
REMARK    2  A    between atoms: N_4  and  C_5
REMARK    3  A    between atoms: C_5  and  C_6
REMARK    4  A    between atoms: N_13  and  C_14
REMARK    5  A    between atoms: C_14  and  C_15
REMARK                            x       y       z     vdW  Elec       q    Type
REMARK                         _______ _______ _______ _____ _____    ______ ____
ROOT
ATOM      1  C   UNL     1       6.666   4.610  14.054  0.00  0.00    +0.000 A 
ATOM      2  C   UNL     1       5.639   3.942  14.768  0.00  0.00    +0.000 A 
ATOM      3  C   UNL     1       5.754   4.383  16.070  0.00  0.00    +0.000 A 
ATOM      4  N   UNL     1       6.800   5.244  16.064  0.00  0.00    +0.000 N 
ATOM      5  N   UNL     1       7.388   5.400  14.864  0.00  0.00    +0.000 NA
ATOM      6  C   UNL     1       7.340   5.889  17.229  0.00  0.00    +0.000 C 
ATOM      7  C   UNL     1       6.398   5.838  18.432  0.00  0.00    +0.000 C 
ATOM      8  N   UNL     1       5.235   4.939  18.451  0.00  0.00    +0.000 NA
ATOM      9  C   UNL     1       5.040   4.028  17.318  0.00  0.00    +0.000 C 
ENDROOT
BRANCH   1  10
ATOM     10  C   UNL     1       7.004   4.493  12.603  0.00  0.00    +0.000 C 
BRANCH  10  14
ATOM     11  C   UNL     1       5.953   1.084  11.358  0.00  0.00    +0.000 C 
ATOM     12  C   UNL     1       5.825   2.552  11.659  0.00  0.00    +0.000 C 
ATOM     13  O   UNL     1       4.807   3.190  11.407  0.00  0.00    +0.000 OA
ATOM     14  N   UNL     1       6.959   3.102  12.207  0.00  0.00    +0.000 N 
ATOM     15  H   UNL     1       7.653   2.494  12.620  0.00  0.00    +0.000 HD
ENDBRANCH  10  14
ENDBRANCH   1  10
BRANCH   8  16
ATOM     16  C   UNL     1       3.990   5.603  18.870  0.00  0.00    +0.000 C 
BRANCH  16  17
ATOM     17  C   UNL     1       2.821   4.650  19.042  0.00  0.00    +0.000 A 
ATOM     18  C   UNL     1       2.009   4.291  17.953  0.00  0.00    +0.000 A 
ATOM     19  C   UNL     1       0.951   3.392  18.118  0.00  0.00    +0.000 A 
ATOM     20  C   UNL     1       0.692   2.835  19.371  0.00  0.00    +0.000 A 
ATOM     21  C   UNL     1       1.489   3.186  20.459  0.00  0.00    +0.000 A 
ATOM     22 CL   UNL     1       1.178   2.477  21.998  0.00  0.00    +0.000 Cl
ATOM     23  C   UNL     1       2.533   4.099  20.296  0.00  0.00    +0.000 A 
ATOM     24  F   UNL     1       3.294   4.435  21.348  0.00  0.00    +0.000 F 
ENDBRANCH  16  17
ENDBRANCH   8  16
TORSDOF 4
ENDMDL
MODEL 2
REMARK VINA RESULT:      -7.8      1.498      1.818
REMARK  Name = 
REMARK  5 active torsions:
REMARK  status: ('A' for Active; 'I' for Inactive)
REMARK    1  A    between atoms: C_1  and  C_2
REMARK    2  A    between atoms: N_4  and  C_5
REMARK    3  A    between atoms: C_5  and  C_6
REMARK    4  A    between atoms: N_13  and  C_14
REMARK    5  A    between atoms: C_14  and  C_15
REMARK                            x       y       z     vdW  Elec       q    Type
REMARK                         _______ _______ _______ _____ _____    ______ ____
ROOT
ATOM      1  C   UNL     1       6.645   4.294  13.977  0.00  0.00    +0.000 A 
ATOM      2  C   UNL     1       5.744   3.640  14.857  0.00  0.00    +0.000 A 
ATOM      3  C   UNL     1       5.790   4.365  16.030  0.00  0.00    +0.000 A 
ATOM      4  N   UNL     1       6.681   5.360  15.800  0.00  0.00    +0.000 N 
ATOM      5  N   UNL     1       7.231   5.345  14.573  0.00  0.00    +0.000 NA
ATOM      6  C   UNL     1       7.111   6.320  16.780  0.00  0.00    +0.000 C 
ATOM      7  C   UNL     1       6.195   6.380  18.002  0.00  0.00    +0.000 C 
ATOM      8  N   UNL     1       5.195   5.332  18.257  0.00  0.00    +0.000 NA
ATOM      9  C   UNL     1       5.149   4.179  17.352  0.00  0.00    +0.000 C 
ENDROOT
BRANCH   1  10
ATOM     10  C   UNL     1       6.992   3.922  12.572  0.00  0.00    +0.000 C 
BRANCH  10  14
ATOM     11  C   UNL     1       5.994   0.615  11.043  0.00  0.00    +0.000 C 
ATOM     12  C   UNL     1       6.867   1.807  11.325  0.00  0.00    +0.000 C 
ATOM     13  O   UNL     1       7.977   1.943  10.821  0.00  0.00    +0.000 OA
ATOM     14  N   UNL     1       6.314   2.695  12.216  0.00  0.00    +0.000 N 
ATOM     15  H   UNL     1       5.319   2.662  12.393  0.00  0.00    +0.000 HD
ENDBRANCH  10  14
ENDBRANCH   1  10
BRANCH   8  16
ATOM     16  C   UNL     1       3.860   5.863  18.573  0.00  0.00    +0.000 C 
BRANCH  16  17
ATOM     17  C   UNL     1       2.987   4.892  19.347  0.00  0.00    +0.000 A 
ATOM     18  C   UNL     1       2.970   4.890  20.752  0.00  0.00    +0.000 A 
ATOM     19  C   UNL     1       2.144   4.008  21.455  0.00  0.00    +0.000 A 
ATOM     20  C   UNL     1       1.318   3.119  20.764  0.00  0.00    +0.000 A 
ATOM     21  C   UNL     1       1.329   3.110  19.371  0.00  0.00    +0.000 A 
ATOM     22 CL   UNL     1       0.291   2.025  18.524  0.00  0.00    +0.000 Cl
ATOM     23  C   UNL     1       2.170   3.979  18.671  0.00  0.00    +0.000 A 
ATOM     24  F   UNL     1       2.178   3.962  17.330  0.00  0.00    +0.000 F 
ENDBRANCH  16  17
ENDBRANCH   8  16
TORSDOF 4
ENDMDL
MODEL 3
REMARK VINA RESULT:      -7.6      4.438      5.552
REMARK  Name = 
REMARK  5 active torsions:
REMARK  status: ('A' for Active; 'I' for Inactive)
REMARK    1  A    between atoms: C_1  and  C_2
REMARK    2  A    between atoms: N_4  and  C_5
REMARK    3  A    between atoms: C_5  and  C_6
REMARK    4  A    between atoms: N_13  and  C_14
REMARK    5  A    between atoms: C_14  and  C_15
REMARK                            x       y       z     vdW  Elec       q    Type
REMARK                         _______ _______ _______ _____ _____    ______ ____
ROOT
ATOM      1  C   UNL     1       5.390   4.910  18.027  0.00  0.00    +0.000 A 
ATOM      2  C   UNL     1       4.787   6.186  17.887  0.00  0.00    +0.000 A 
ATOM      3  C   UNL     1       3.673   6.154  18.700  0.00  0.00    +0.000 A 
ATOM      4  N   UNL     1       3.668   4.915  19.249  0.00  0.00    +0.000 N 
ATOM      5  N   UNL     1       4.684   4.126  18.857  0.00  0.00    +0.000 NA
ATOM      6  C   UNL     1       2.636   4.401  20.108  0.00  0.00    +0.000 C 
ATOM      7  C   UNL     1       1.730   5.494  20.676  0.00  0.00    +0.000 C 
ATOM      8  N   UNL     1       1.741   6.856  20.123  0.00  0.00    +0.000 NA
ATOM      9  C   UNL     1       2.586   7.126  18.955  0.00  0.00    +0.000 C 
ENDROOT
BRANCH   1  10
ATOM     10  C   UNL     1       6.624   4.397  17.359  0.00  0.00    +0.000 C 
BRANCH  10  14
ATOM     11  C   UNL     1       6.258   3.859  13.637  0.00  0.00    +0.000 C 
ATOM     12  C   UNL     1       6.754   4.497  14.905  0.00  0.00    +0.000 C 
ATOM     13  O   UNL     1       7.527   5.451  14.904  0.00  0.00    +0.000 OA
ATOM     14  N   UNL     1       6.287   3.891  16.046  0.00  0.00    +0.000 N 
ATOM     15  H   UNL     1       5.474   3.292  15.989  0.00  0.00    +0.000 HD
ENDBRANCH  10  14
ENDBRANCH   1  10
BRANCH   8  16
ATOM     16  C   UNL     1       1.838   7.904  21.152  0.00  0.00    +0.000 C 
BRANCH  16  17
ATOM     17  C   UNL     1       0.890   9.067  20.926  0.00  0.00    +0.000 A 
ATOM     18  C   UNL     1       0.637   9.559  19.634  0.00  0.00    +0.000 A 
ATOM     19  C   UNL     1      -0.258  10.614  19.434  0.00  0.00    +0.000 A 
ATOM     20  C   UNL     1      -0.918  11.190  20.522  0.00  0.00    +0.000 A 
ATOM     21  C   UNL     1      -0.673  10.713  21.807  0.00  0.00    +0.000 A 
ATOM     22 CL   UNL     1      -1.507  11.413  23.143  0.00  0.00    +0.000 Cl
ATOM     23  C   UNL     1       0.237   9.671  22.006  0.00  0.00    +0.000 A 
ATOM     24  F   UNL     1       0.470   9.219  23.247  0.00  0.00    +0.000 F 
ENDBRANCH  16  17
ENDBRANCH   8  16
TORSDOF 4
ENDMDL
MODEL 4
REMARK VINA RESULT:      -7.4      2.075      2.574
REMARK  Name = 
REMARK  5 active torsions:
REMARK  status: ('A' for Active; 'I' for Inactive)
REMARK    1  A    between atoms: C_1  and  C_2
REMARK    2  A    between atoms: N_4  and  C_5
REMARK    3  A    between atoms: C_5  and  C_6
REMARK    4  A    between atoms: N_13  and  C_14
REMARK    5  A    between atoms: C_14  and  C_15
REMARK                            x       y       z     vdW  Elec       q    Type
REMARK                         _______ _______ _______ _____ _____    ______ ____
ROOT
ATOM      1  C   UNL     1       6.361   4.601  14.565  0.00  0.00    +0.000 A 
ATOM      2  C   UNL     1       5.501   3.626  15.133  0.00  0.00    +0.000 A 
ATOM      3  C   UNL     1       5.310   4.025  16.440  0.00  0.00    +0.000 A 
ATOM      4  N   UNL     1       6.039   5.159  16.577  0.00  0.00    +0.000 N 
ATOM      5  N   UNL     1       6.701   5.535  15.468  0.00  0.00    +0.000 NA
ATOM      6  C   UNL     1       6.204   5.886  17.805  0.00  0.00    +0.000 C 
ATOM      7  C   UNL     1       5.176   5.504  18.870  0.00  0.00    +0.000 C 
ATOM      8  N   UNL     1       4.347   4.299  18.730  0.00  0.00    +0.000 NA
ATOM      9  C   UNL     1       4.583   3.421  17.579  0.00  0.00    +0.000 C 
ENDROOT
BRANCH   1  10
ATOM     10  C   UNL     1       6.901   4.653  13.173  0.00  0.00    +0.000 C 
BRANCH  10  14
ATOM     11  C   UNL     1       5.813   1.501  11.396  0.00  0.00    +0.000 C 
ATOM     12  C   UNL     1       5.717   2.915  11.898  0.00  0.00    +0.000 C 
ATOM     13  O   UNL     1       4.737   3.624  11.686  0.00  0.00    +0.000 OA
ATOM     14  N   UNL     1       6.833   3.335  12.579  0.00  0.00    +0.000 N 
ATOM     15  H   UNL     1       7.481   2.646  12.938  0.00  0.00    +0.000 HD
ENDBRANCH  10  14
ENDBRANCH   1  10
BRANCH   8  16
ATOM     16  C   UNL     1       2.916   4.541  18.978  0.00  0.00    +0.000 C 
BRANCH  16  17
ATOM     17  C   UNL     1       2.544   6.013  18.999  0.00  0.00    +0.000 A 
ATOM     18  C   UNL     1       2.665   6.810  17.848  0.00  0.00    +0.000 A 
ATOM     19  C   UNL     1       2.296   8.157  17.871  0.00  0.00    +0.000 A 
ATOM     20  C   UNL     1       1.794   8.728  19.043  0.00  0.00    +0.000 A 
ATOM     21  C   UNL     1       1.672   7.948  20.191  0.00  0.00    +0.000 A 
ATOM     22 CL   UNL     1       1.031   8.651  21.627  0.00  0.00    +0.000 Cl
ATOM     23  C   UNL     1       2.060   6.606  20.170  0.00  0.00    +0.000 A 
ATOM     24  F   UNL     1       1.943   5.862  21.280  0.00  0.00    +0.000 F 
ENDBRANCH  16  17
ENDBRANCH   8  16
TORSDOF 4
ENDMDL
MODEL 5
REMARK VINA RESULT:      -7.4      1.568      1.794
REMARK  Name = 
REMARK  5 active torsions:
REMARK  status: ('A' for Active; 'I' for Inactive)
REMARK    1  A    between atoms: C_1  and  C_2
REMARK    2  A    between atoms: N_4  and  C_5
REMARK    3  A    between atoms: C_5  and  C_6
REMARK    4  A    between atoms: N_13  and  C_14
REMARK    5  A    between atoms: C_14  and  C_15
REMARK                            x       y       z     vdW  Elec       q    Type
REMARK                         _______ _______ _______ _____ _____    ______ ____
ROOT
ATOM      1  C   UNL     1       6.437   4.426  14.111  0.00  0.00    +0.000 A 
ATOM      2  C   UNL     1       7.179   4.093  15.273  0.00  0.00    +0.000 A 
ATOM      3  C   UNL     1       6.660   4.885  16.276  0.00  0.00    +0.000 A 
ATOM      4  N   UNL     1       5.689   5.621  15.684  0.00  0.00    +0.000 N 
ATOM      5  N   UNL     1       5.530   5.382  14.370  0.00  0.00    +0.000 NA
ATOM      6  C   UNL     1       4.927   6.652  16.334  0.00  0.00    +0.000 C 
ATOM      7  C   UNL     1       5.021   6.594  17.859  0.00  0.00    +0.000 C 
ATOM      8  N   UNL     1       6.043   5.777  18.528  0.00  0.00    +0.000 NA
ATOM      9  C   UNL     1       7.028   5.075  17.698  0.00  0.00    +0.000 C 
ENDROOT
BRANCH   1  10
ATOM     10  C   UNL     1       6.590   3.873  12.731  0.00  0.00    +0.000 C 
BRANCH  10  14
ATOM     11  C   UNL     1       3.521   2.996  10.709  0.00  0.00    +0.000 C 
ATOM     12  C   UNL     1       4.851   2.782  11.378  0.00  0.00    +0.000 C 
ATOM     13  O   UNL     1       5.445   1.709  11.331  0.00  0.00    +0.000 OA
ATOM     14  N   UNL     1       5.306   3.882  12.063  0.00  0.00    +0.000 N 
ATOM     15  H   UNL     1       4.912   4.790  11.856  0.00  0.00    +0.000 HD
ENDBRANCH  10  14
ENDBRANCH   1  10
BRANCH   8  16
ATOM     16  C   UNL     1       5.503   4.934  19.608  0.00  0.00    +0.000 C 
BRANCH  16  17
ATOM     17  C   UNL     1       4.311   4.094  19.184  0.00  0.00    +0.000 A 
ATOM     18  C   UNL     1       4.427   3.124  18.175  0.00  0.00    +0.000 A 
ATOM     19  C   UNL     1       3.330   2.339  17.810  0.00  0.00    +0.000 A 
ATOM     20  C   UNL     1       2.102   2.507  18.453  0.00  0.00    +0.000 A 
ATOM     21  C   UNL     1       1.974   3.468  19.453  0.00  0.00    +0.000 A 
ATOM     22 CL   UNL     1       0.462   3.656  20.258  0.00  0.00    +0.000 Cl
ATOM     23  C   UNL     1       3.068   4.265  19.802  0.00  0.00    +0.000 A 
ATOM     24  F   UNL     1       2.936   5.191  20.764  0.00  0.00    +0.000 F 
ENDBRANCH  16  17
ENDBRANCH   8  16
TORSDOF 4
ENDMDL
MODEL 6
REMARK VINA RESULT:      -7.3      1.184      1.385
REMARK  Name = 
REMARK  5 active torsions:
REMARK  status: ('A' for Active; 'I' for Inactive)
REMARK    1  A    between atoms: C_1  and  C_2
REMARK    2  A    between atoms: N_4  and  C_5
REMARK    3  A    between atoms: C_5  and  C_6
REMARK    4  A    between atoms: N_13  and  C_14
REMARK    5  A    between atoms: C_14  and  C_15
REMARK                            x       y       z     vdW  Elec       q    Type
REMARK                         _______ _______ _______ _____ _____    ______ ____
ROOT
ATOM      1  C   UNL     1       6.134   4.481  14.182  0.00  0.00    +0.000 A 
ATOM      2  C   UNL     1       5.744   3.648  15.262  0.00  0.00    +0.000 A 
ATOM      3  C   UNL     1       6.210   4.281  16.397  0.00  0.00    +0.000 A 
ATOM      4  N   UNL     1       6.832   5.399  15.951  0.00  0.00    +0.000 N 
ATOM      5  N   UNL     1       6.819   5.551  14.615  0.00  0.00    +0.000 NA
ATOM      6  C   UNL     1       7.544   6.330  16.783  0.00  0.00    +0.000 C 
ATOM      7  C   UNL     1       7.219   6.175  18.269  0.00  0.00    +0.000 C 
ATOM      8  N   UNL     1       6.514   4.988  18.775  0.00  0.00    +0.000 NA
ATOM      9  C   UNL     1       6.197   3.912  17.830  0.00  0.00    +0.000 C 
ENDROOT
BRANCH   1  10
ATOM     10  C   UNL     1       5.896   4.267  12.723  0.00  0.00    +0.000 C 
BRANCH  10  14
ATOM     11  C   UNL     1       6.296   0.795  11.286  0.00  0.00    +0.000 C 
ATOM     12  C   UNL     1       5.647   2.129  11.533  0.00  0.00    +0.000 C 
ATOM     13  O   UNL     1       4.572   2.441  11.029  0.00  0.00    +0.000 OA
ATOM     14  N   UNL     1       6.385   2.959  12.340  0.00  0.00    +0.000 N 
ATOM     15  H   UNL     1       7.115   2.565  12.919  0.00  0.00    +0.000 HD
ENDBRANCH  10  14
ENDBRANCH   1  10
BRANCH   8  16
ATOM     16  C   UNL     1       5.390   5.312  19.668  0.00  0.00    +0.000 C 
BRANCH  16  17
ATOM     17  C   UNL     1       4.036   4.916  19.109  0.00  0.00    +0.000 A 
ATOM     18  C   UNL     1       3.328   5.770  18.247  0.00  0.00    +0.000 A 
ATOM     19  C   UNL     1       2.092   5.385  17.718  0.00  0.00    +0.000 A 
ATOM     20  C   UNL     1       1.549   4.139  18.038  0.00  0.00    +0.000 A 
ATOM     21  C   UNL     1       2.241   3.286  18.895  0.00  0.00    +0.000 A 
ATOM     22 CL   UNL     1       1.576   1.741  19.268  0.00  0.00    +0.000 Cl
ATOM     23  C   UNL     1       3.466   3.681  19.438  0.00  0.00    +0.000 A 
ATOM     24  F   UNL     1       4.125   2.856  20.265  0.00  0.00    +0.000 F 
ENDBRANCH  16  17
ENDBRANCH   8  16
TORSDOF 4
ENDMDL
MODEL 7
REMARK VINA RESULT:      -7.3      3.987      4.886
REMARK  Name = 
REMARK  5 active torsions:
REMARK  status: ('A' for Active; 'I' for Inactive)
REMARK    1  A    between atoms: C_1  and  C_2
REMARK    2  A    between atoms: N_4  and  C_5
REMARK    3  A    between atoms: C_5  and  C_6
REMARK    4  A    between atoms: N_13  and  C_14
REMARK    5  A    between atoms: C_14  and  C_15
REMARK                            x       y       z     vdW  Elec       q    Type
REMARK                         _______ _______ _______ _____ _____    ______ ____
ROOT
ATOM      1  C   UNL     1       6.010   5.097  16.727  0.00  0.00    +0.000 A 
ATOM      2  C   UNL     1       5.688   6.457  16.969  0.00  0.00    +0.000 A 
ATOM      3  C   UNL     1       4.384   6.449  17.419  0.00  0.00    +0.000 A 
ATOM      4  N   UNL     1       4.013   5.146  17.414  0.00  0.00    +0.000 N 
ATOM      5  N   UNL     1       4.965   4.296  16.989  0.00  0.00    +0.000 NA
ATOM      6  C   UNL     1       2.697   4.664  17.733  0.00  0.00    +0.000 C 
ATOM      7  C   UNL     1       1.841   5.701  18.462  0.00  0.00    +0.000 C 
ATOM      8  N   UNL     1       2.238   7.115  18.514  0.00  0.00    +0.000 NA
ATOM      9  C   UNL     1       3.438   7.529  17.780  0.00  0.00    +0.000 C 
ENDROOT
BRANCH   1  10
ATOM     10  C   UNL     1       7.295   4.533  16.215  0.00  0.00    +0.000 C 
BRANCH  10  14
ATOM     11  C   UNL     1       7.677   5.429  12.565  0.00  0.00    +0.000 C 
ATOM     12  C   UNL     1       7.180   4.667  13.763  0.00  0.00    +0.000 C 
ATOM     13  O   UNL     1       6.417   3.711  13.664  0.00  0.00    +0.000 OA
ATOM     14  N   UNL     1       7.635   5.166  14.959  0.00  0.00    +0.000 N 
ATOM     15  H   UNL     1       8.443   5.774  14.966  0.00  0.00    +0.000 HD
ENDBRANCH  10  14
ENDBRANCH   1  10
BRANCH   8  16
ATOM     16  C   UNL     1       2.169   7.692  19.867  0.00  0.00    +0.000 C 
BRANCH  16  17
ATOM     17  C   UNL     1       1.180   8.837  19.989  0.00  0.00    +0.000 A 
ATOM     18  C   UNL     1       0.722   9.528  18.854  0.00  0.00    +0.000 A 
ATOM     19  C   UNL     1      -0.208  10.564  18.976  0.00  0.00    +0.000 A 
ATOM     20  C   UNL     1      -0.699  10.922  20.233  0.00  0.00    +0.000 A 
ATOM     21  C   UNL     1      -0.251  10.246  21.365  0.00  0.00    +0.000 A 
ATOM     22 CL   UNL     1      -0.878  10.678  22.911  0.00  0.00    +0.000 Cl
ATOM     23  C   UNL     1       0.694   9.224  21.243  0.00  0.00    +0.000 A 
ATOM     24  F   UNL     1       1.124   8.580  22.338  0.00  0.00    +0.000 F 
ENDBRANCH  16  17
ENDBRANCH   8  16
TORSDOF 4
ENDMDL
MODEL 8
REMARK VINA RESULT:      -7.2      1.571      1.935
REMARK  Name = 
REMARK  5 active torsions:
REMARK  status: ('A' for Active; 'I' for Inactive)
REMARK    1  A    between atoms: C_1  and  C_2
REMARK    2  A    between atoms: N_4  and  C_5
REMARK    3  A    between atoms: C_5  and  C_6
REMARK    4  A    between atoms: N_13  and  C_14
REMARK    5  A    between atoms: C_14  and  C_15
REMARK                            x       y       z     vdW  Elec       q    Type
REMARK                         _______ _______ _______ _____ _____    ______ ____
ROOT
ATOM      1  C   UNL     1       6.129   4.942  15.540  0.00  0.00    +0.000 A 
ATOM      2  C   UNL     1       5.635   4.404  16.756  0.00  0.00    +0.000 A 
ATOM      3  C   UNL     1       4.892   5.417  17.327  0.00  0.00    +0.000 A 
ATOM      4  N   UNL     1       4.986   6.458  16.465  0.00  0.00    +0.000 N 
ATOM      5  N   UNL     1       5.738   6.215  15.376  0.00  0.00    +0.000 NA
ATOM      6  C   UNL     1       4.432   7.765  16.690  0.00  0.00    +0.000 C 
ATOM      7  C   UNL     1       3.386   7.787  17.805  0.00  0.00    +0.000 C 
ATOM      8  N   UNL     1       3.238   6.656  18.733  0.00  0.00    +0.000 NA
ATOM      9  C   UNL     1       4.173   5.532  18.616  0.00  0.00    +0.000 C 
ENDROOT
BRANCH   1  10
ATOM     10  C   UNL     1       7.004   4.276  14.528  0.00  0.00    +0.000 C 
BRANCH  10  14
ATOM     11  C   UNL     1       5.391   2.495  11.612  0.00  0.00    +0.000 C 
ATOM     12  C   UNL     1       6.346   3.416  12.320  0.00  0.00    +0.000 C 
ATOM     13  O   UNL     1       7.190   4.076  11.721  0.00  0.00    +0.000 OA
ATOM     14  N   UNL     1       6.200   3.417  13.686  0.00  0.00    +0.000 N 
ATOM     15  H   UNL     1       5.343   3.063  14.091  0.00  0.00    +0.000 HD
ENDBRANCH  10  14
ENDBRANCH   1  10
BRANCH   8  16
ATOM     16  C   UNL     1       1.842   6.221  18.906  0.00  0.00    +0.000 C 
BRANCH  16  17
ATOM     17  C   UNL     1       1.694   4.724  19.111  0.00  0.00    +0.000 A 
ATOM     18  C   UNL     1       1.584   3.848  18.019  0.00  0.00    +0.000 A 
ATOM     19  C   UNL     1       1.472   2.469  18.218  0.00  0.00    +0.000 A 
ATOM     20  C   UNL     1       1.476   1.944  19.513  0.00  0.00    +0.000 A 
ATOM     21  C   UNL     1       1.581   2.804  20.604  0.00  0.00    +0.000 A 
ATOM     22 CL   UNL     1       1.607   2.149  22.197  0.00  0.00    +0.000 Cl
ATOM     23  C   UNL     1       1.672   4.184  20.402  0.00  0.00    +0.000 A 
ATOM     24  F   UNL     1       1.770   5.006  21.457  0.00  0.00    +0.000 F 
ENDBRANCH  16  17
ENDBRANCH   8  16
TORSDOF 4
ENDMDL
MODEL 9
REMARK VINA RESULT:      -7.2      4.164      5.991
REMARK  Name = 
REMARK  5 active torsions:
REMARK  status: ('A' for Active; 'I' for Inactive)
REMARK    1  A    between atoms: C_1  and  C_2
REMARK    2  A    between atoms: N_4  and  C_5
REMARK    3  A    between atoms: C_5  and  C_6
REMARK    4  A    between atoms: N_13  and  C_14
REMARK    5  A    between atoms: C_14  and  C_15
REMARK                            x       y       z     vdW  Elec       q    Type
REMARK                         _______ _______ _______ _____ _____    ______ ____
ROOT
ATOM      1  C   UNL     1       8.444   8.866  18.174  0.00  0.00    +0.000 A 
ATOM      2  C   UNL     1       7.328   8.771  17.304  0.00  0.00    +0.000 A 
ATOM      3  C   UNL     1       6.784   7.526  17.544  0.00  0.00    +0.000 A 
ATOM      4  N   UNL     1       7.572   6.969  18.495  0.00  0.00    +0.000 N 
ATOM      5  N   UNL     1       8.597   7.743  18.895  0.00  0.00    +0.000 NA
ATOM      6  C   UNL     1       7.430   5.631  19.000  0.00  0.00    +0.000 C 
ATOM      7  C   UNL     1       6.075   5.006  18.667  0.00  0.00    +0.000 C 
ATOM      8  N   UNL     1       5.184   5.609  17.665  0.00  0.00    +0.000 NA
ATOM      9  C   UNL     1       5.659   6.785  16.929  0.00  0.00    +0.000 C 
ENDROOT
BRANCH   1  10
ATOM     10  C   UNL     1       9.402  10.003  18.321  0.00  0.00    +0.000 C 
BRANCH  10  14
ATOM     11  C   UNL     1       8.418  13.623  17.871  0.00  0.00    +0.000 C 
ATOM     12  C   UNL     1       9.316  12.417  17.861  0.00  0.00    +0.000 C 
ATOM     13  O   UNL     1      10.495  12.478  17.525  0.00  0.00    +0.000 OA
ATOM     14  N   UNL     1       8.683  11.255  18.230  0.00  0.00    +0.000 N 
ATOM     15  H   UNL     1       7.806  11.309  18.732  0.00  0.00    +0.000 HD
ENDBRANCH  10  14
ENDBRANCH   1  10
BRANCH   8  16
ATOM     16  C   UNL     1       3.794   5.749  18.128  0.00  0.00    +0.000 C 
BRANCH  16  17
ATOM     17  C   UNL     1       3.120   4.424  18.438  0.00  0.00    +0.000 A 
ATOM     18  C   UNL     1       2.968   3.437  17.449  0.00  0.00    +0.000 A 
ATOM     19  C   UNL     1       2.369   2.211  17.751  0.00  0.00    +0.000 A 
ATOM     20  C   UNL     1       1.919   1.950  19.047  0.00  0.00    +0.000 A 
ATOM     21  C   UNL     1       2.063   2.922  20.035  0.00  0.00    +0.000 A 
ATOM     22 CL   UNL     1       1.526   2.585  21.637  0.00  0.00    +0.000 Cl
ATOM     23  C   UNL     1       2.644   4.154  19.725  0.00  0.00    +0.000 A 
ATOM     24  F   UNL     1       2.776   5.086  20.681  0.00  0.00    +0.000 F 
ENDBRANCH  16  17
ENDBRANCH   8  16
TORSDOF 4
ENDMDL
