MODEL 1
REMARK VINA RESULT:      -8.5      0.000      0.000
REMARK  Name = 
REMARK  13 active torsions:
REMARK  status: ('A' for Active; 'I' for Inactive)
REMARK    1  A    between atoms: C_1  and  C_2
REMARK    2  A    between atoms: C_2  and  C_29
REMARK    3  A    between atoms: C_3  and  C_4
REMARK    4  A    between atoms: C_4  and  O_5
REMARK    5  A    between atoms: O_5  and  C_6
REMARK    6  A    between atoms: C_11  and  C_12
REMARK    7  A    between atoms: C_12  and  N_13
REMARK    8  A    between atoms: N_13  and  C_14
REMARK    9  A    between atoms: C_15  and  C_17
REMARK   10  A    between atoms: C_20  and  C_21
REMARK   11  A    between atoms: C_29  and  C_30
REMARK   12  A    between atoms: C_30  and  C_31
REMARK   13  A    between atoms: C_31  and  O_33
REMARK                            x       y       z     vdW  Elec       q    Type
REMARK                         _______ _______ _______ _____ _____    ______ ____
ROOT
ATOM      1  C   UNL     1       4.249   4.165  18.651  0.00  0.00    +0.000 A 
ATOM      2  C   UNL     1       3.906   2.793  18.751  0.00  0.00    +0.000 A 
ATOM      3  C   UNL     1       2.621   2.314  18.507  0.00  0.00    +0.000 A 
ATOM      4  C   UNL     1       1.637   3.207  18.128  0.00  0.00    +0.000 A 
ATOM      5  C   UNL     1       1.951   4.562  17.993  0.00  0.00    +0.000 A 
ATOM      6  C   UNL     1       3.254   5.089  18.249  0.00  0.00    +0.000 A 
ENDROOT
BRANCH   1   7
ATOM      7  O   UNL     1       5.580   4.287  18.963  0.00  0.00    +0.000 OA
BRANCH   7   8
ATOM      8  C   UNL     1       6.555   4.786  18.075  0.00  0.00    +0.000 C 
BRANCH   8  11
ATOM      9  C   UNL     1       5.389   6.125  15.363  0.00  0.00    +0.000 C 
ATOM     10  C   UNL     1       5.941   4.739  15.537  0.00  0.00    +0.000 C 
ATOM     11  C   UNL     1       6.481   4.243  16.669  0.00  0.00    +0.000 C 
BRANCH  10  12
ATOM     12  C   UNL     1       5.645   3.782  14.388  0.00  0.00    +0.000 C 
BRANCH  12  13
ATOM     13  C   UNL     1       6.393   4.041  13.091  0.00  0.00    +0.000 C 
BRANCH  13  14
ATOM     14  C   UNL     1       5.995   3.016  12.045  0.00  0.00    +0.000 C 
ATOM     15  O   UNL     1       4.892   2.926  11.529  0.00  0.00    +0.000 OA
BRANCH  14  16
ATOM     16  O   UNL     1       7.007   2.189  11.717  0.00  0.00    +0.000 OA
ATOM     17  H   UNL     1       7.861   2.645  11.582  0.00  0.00    +0.000 HD
ENDBRANCH  14  16
ENDBRANCH  13  14
ENDBRANCH  12  13
ENDBRANCH  10  12
ENDBRANCH   8  11
ENDBRANCH   7   8
ENDBRANCH   1   7
BRANCH   6  18
ATOM     18  C   UNL     1       3.353   6.602  18.015  0.00  0.00    +0.000 C 
BRANCH  18  19
ATOM     19  N   UNL     1       2.516   7.423  18.914  0.00  0.00    +0.000 N 
ATOM     20  C   UNL     1       1.913   6.717  20.029  0.00  0.00    +0.000 C 
ATOM     21  C   UNL     1       1.921   8.628  18.461  0.00  0.00    +0.000 C 
ATOM     22  O   UNL     1       2.043   9.044  17.306  0.00  0.00    +0.000 OA
BRANCH  21  23
ATOM     23  C   UNL     1       1.059   9.426  19.428  0.00  0.00    +0.000 A 
ATOM     24  C   UNL     1       1.277   9.357  20.807  0.00  0.00    +0.000 A 
ATOM     25  C   UNL     1       0.484  10.078  21.712  0.00  0.00    +0.000 A 
ATOM     26  C   UNL     1      -0.509  10.976  21.280  0.00  0.00    +0.000 A 
ATOM     27  C   UNL     1      -0.737  11.029  19.890  0.00  0.00    +0.000 A 
ATOM     28 CL   UNL     1      -2.011  11.979  19.196  0.00  0.00    +0.000 Cl
ATOM     29  C   UNL     1       0.044  10.274  18.977  0.00  0.00    +0.000 A 
BRANCH  26  30
ATOM     30  C   UNL     1      -1.120  11.867  22.288  0.00  0.00    +0.000 A 
ATOM     31  C   UNL     1      -2.214  11.807  23.137  0.00  0.00    +0.000 A 
ATOM     32  C   UNL     1      -2.389  13.099  23.698  0.00  0.00    +0.000 A 
ATOM     33  C   UNL     1      -1.370  13.869  23.201  0.00  0.00    +0.000 A 
ATOM     34  O   UNL     1      -0.591  13.136  22.365  0.00  0.00    +0.000 OA
ENDBRANCH  26  30
ENDBRANCH  21  23
ENDBRANCH  18  19
ENDBRANCH   6  18
TORSDOF 11
ENDMDL
MODEL 2
REMARK VINA RESULT:      -8.2      2.477      3.606
REMARK  Name = 
REMARK  13 active torsions:
REMARK  status: ('A' for Active; 'I' for Inactive)
REMARK    1  A    between atoms: C_1  and  C_2
REMARK    2  A    between atoms: C_2  and  C_29
REMARK    3  A    between atoms: C_3  and  C_4
REMARK    4  A    between atoms: C_4  and  O_5
REMARK    5  A    between atoms: O_5  and  C_6
REMARK    6  A    between atoms: C_11  and  C_12
REMARK    7  A    between atoms: C_12  and  N_13
REMARK    8  A    between atoms: N_13  and  C_14
REMARK    9  A    between atoms: C_15  and  C_17
REMARK   10  A    between atoms: C_20  and  C_21
REMARK   11  A    between atoms: C_29  and  C_30
REMARK   12  A    between atoms: C_30  and  C_31
REMARK   13  A    between atoms: C_31  and  O_33
REMARK                            x       y       z     vdW  Elec       q    Type
REMARK                         _______ _______ _______ _____ _____    ______ ____
ROOT
ATOM      1  C   UNL     1       2.233   4.003  18.708  0.00  0.00    +0.000 A 
ATOM      2  C   UNL     1       1.652   2.764  19.075  0.00  0.00    +0.000 A 
ATOM      3  C   UNL     1       1.377   2.419  20.397  0.00  0.00    +0.000 A 
ATOM      4  C   UNL     1       1.660   3.329  21.397  0.00  0.00    +0.000 A 
ATOM      5  C   UNL     1       2.207   4.571  21.063  0.00  0.00    +0.000 A 
ATOM      6  C   UNL     1       2.514   4.952  19.721  0.00  0.00    +0.000 A 
ENDROOT
BRANCH   1   7
ATOM      7  O   UNL     1       2.372   4.011  17.342  0.00  0.00    +0.000 OA
BRANCH   7   8
ATOM      8  C   UNL     1       3.511   3.534  16.663  0.00  0.00    +0.000 C 
BRANCH   8  11
ATOM      9  C   UNL     1       5.759   4.209  14.426  0.00  0.00    +0.000 C 
ATOM     10  C   UNL     1       5.713   4.682  15.851  0.00  0.00    +0.000 C 
ATOM     11  C   UNL     1       4.722   4.434  16.731  0.00  0.00    +0.000 C 
BRANCH  10  12
ATOM     12  C   UNL     1       7.010   5.296  16.365  0.00  0.00    +0.000 C 
BRANCH  12  13
ATOM     13  C   UNL     1       7.547   4.732  17.670  0.00  0.00    +0.000 C 
BRANCH  13  14
ATOM     14  C   UNL     1       7.537   5.804  18.745  0.00  0.00    +0.000 C 
ATOM     15  O   UNL     1       7.960   6.941  18.611  0.00  0.00    +0.000 OA
BRANCH  14  16
ATOM     16  O   UNL     1       6.990   5.376  19.900  0.00  0.00    +0.000 OA
ATOM     17  H   UNL     1       6.816   6.092  20.543  0.00  0.00    +0.000 HD
ENDBRANCH  14  16
ENDBRANCH  13  14
ENDBRANCH  12  13
ENDBRANCH  10  12
ENDBRANCH   8  11
ENDBRANCH   7   8
ENDBRANCH   1   7
BRANCH   6  18
ATOM     18  C   UNL     1       3.091   6.369  19.610  0.00  0.00    +0.000 C 
BRANCH  18  19
ATOM     19  N   UNL     1       2.119   7.454  19.856  0.00  0.00    +0.000 N 
ATOM     20  C   UNL     1       1.152   7.203  20.908  0.00  0.00    +0.000 C 
ATOM     21  C   UNL     1       1.806   8.399  18.846  0.00  0.00    +0.000 C 
ATOM     22  O   UNL     1       2.297   8.360  17.716  0.00  0.00    +0.000 OA
BRANCH  21  23
ATOM     23  C   UNL     1       0.788   9.487  19.154  0.00  0.00    +0.000 A 
ATOM     24  C   UNL     1      -0.055   9.983  18.155  0.00  0.00    +0.000 A 
ATOM     25  C   UNL     1      -0.992  10.993  18.421  0.00  0.00    +0.000 A 
ATOM     26  C   UNL     1      -1.197  11.495  19.719  0.00  0.00    +0.000 A 
ATOM     27  C   UNL     1      -0.333  11.004  20.720  0.00  0.00    +0.000 A 
ATOM     28 CL   UNL     1      -0.357  11.611  22.344  0.00  0.00    +0.000 Cl
ATOM     29  C   UNL     1       0.637  10.006  20.442  0.00  0.00    +0.000 A 
BRANCH  26  30
ATOM     30  C   UNL     1      -2.365  12.372  19.944  0.00  0.00    +0.000 A 
ATOM     31  C   UNL     1      -2.648  13.467  20.745  0.00  0.00    +0.000 A 
ATOM     32  C   UNL     1      -4.043  13.713  20.654  0.00  0.00    +0.000 A 
ATOM     33  C   UNL     1      -4.533  12.788  19.768  0.00  0.00    +0.000 A 
ATOM     34  O   UNL     1      -3.531  11.987  19.322  0.00  0.00    +0.000 OA
ENDBRANCH  26  30
ENDBRANCH  21  23
ENDBRANCH  18  19
ENDBRANCH   6  18
TORSDOF 11
ENDMDL
MODEL 3
REMARK VINA RESULT:      -7.9      1.013      1.220
REMARK  Name = 
REMARK  13 active torsions:
REMARK  status: ('A' for Active; 'I' for Inactive)
REMARK    1  A    between atoms: C_1  and  C_2
REMARK    2  A    between atoms: C_2  and  C_29
REMARK    3  A    between atoms: C_3  and  C_4
REMARK    4  A    between atoms: C_4  and  O_5
REMARK    5  A    between atoms: O_5  and  C_6
REMARK    6  A    between atoms: C_11  and  C_12
REMARK    7  A    between atoms: C_12  and  N_13
REMARK    8  A    between atoms: N_13  and  C_14
REMARK    9  A    between atoms: C_15  and  C_17
REMARK   10  A    between atoms: C_20  and  C_21
REMARK   11  A    between atoms: C_29  and  C_30
REMARK   12  A    between atoms: C_30  and  C_31
REMARK   13  A    between atoms: C_31  and  O_33
REMARK                            x       y       z     vdW  Elec       q    Type
REMARK                         _______ _______ _______ _____ _____    ______ ____
ROOT
ATOM      1  C   UNL     1       3.890   4.038  18.945  0.00  0.00    +0.000 A 
ATOM      2  C   UNL     1       3.404   2.708  18.889  0.00  0.00    +0.000 A 
ATOM      3  C   UNL     1       2.156   2.380  18.363  0.00  0.00    +0.000 A 
ATOM      4  C   UNL     1       1.362   3.387  17.850  0.00  0.00    +0.000 A 
ATOM      5  C   UNL     1       1.826   4.705  17.864  0.00  0.00    +0.000 A 
ATOM      6  C   UNL     1       3.093   5.080  18.409  0.00  0.00    +0.000 A 
ENDROOT
BRANCH   1   7
ATOM      7  O   UNL     1       5.134   4.004  19.524  0.00  0.00    +0.000 OA
BRANCH   7   8
ATOM      8  C   UNL     1       6.279   4.609  18.968  0.00  0.00    +0.000 C 
BRANCH   8  11
ATOM      9  C   UNL     1       7.166   6.976  16.939  0.00  0.00    +0.000 C 
ATOM     10  C   UNL     1       6.612   5.626  16.585  0.00  0.00    +0.000 C 
ATOM     11  C   UNL     1       6.319   4.641  17.459  0.00  0.00    +0.000 C 
BRANCH  10  12
ATOM     12  C   UNL     1       6.150   5.481  15.140  0.00  0.00    +0.000 C 
BRANCH  12  13
ATOM     13  C   UNL     1       6.072   4.061  14.602  0.00  0.00    +0.000 C 
BRANCH  13  14
ATOM     14  C   UNL     1       6.687   3.994  13.216  0.00  0.00    +0.000 C 
ATOM     15  O   UNL     1       7.443   4.825  12.738  0.00  0.00    +0.000 OA
BRANCH  14  16
ATOM     16  O   UNL     1       6.318   2.890  12.537  0.00  0.00    +0.000 OA
ATOM     17  H   UNL     1       6.421   2.062  13.045  0.00  0.00    +0.000 HD
ENDBRANCH  14  16
ENDBRANCH  13  14
ENDBRANCH  12  13
ENDBRANCH  10  12
ENDBRANCH   8  11
ENDBRANCH   7   8
ENDBRANCH   1   7
BRANCH   6  18
ATOM     18  C   UNL     1       3.382   6.581  18.294  0.00  0.00    +0.000 C 
BRANCH  18  19
ATOM     19  N   UNL     1       2.473   7.449  19.070  0.00  0.00    +0.000 N 
ATOM     20  C   UNL     1       1.804   6.814  20.191  0.00  0.00    +0.000 C 
ATOM     21  C   UNL     1       1.893   8.606  18.491  0.00  0.00    +0.000 C 
ATOM     22  O   UNL     1       2.089   8.939  17.320  0.00  0.00    +0.000 OA
BRANCH  21  23
ATOM     23  C   UNL     1       0.954   9.454  19.335  0.00  0.00    +0.000 A 
ATOM     24  C   UNL     1       1.158   9.596  20.711  0.00  0.00    +0.000 A 
ATOM     25  C   UNL     1       0.295  10.366  21.505  0.00  0.00    +0.000 A 
ATOM     26  C   UNL     1      -0.764  11.108  20.950  0.00  0.00    +0.000 A 
ATOM     27  C   UNL     1      -0.976  10.948  19.565  0.00  0.00    +0.000 A 
ATOM     28 CL   UNL     1      -2.315  11.681  18.742  0.00  0.00    +0.000 Cl
ATOM     29  C   UNL     1      -0.122  10.142  18.768  0.00  0.00    +0.000 A 
BRANCH  26  30
ATOM     30  C   UNL     1      -1.461  12.075  21.822  0.00  0.00    +0.000 A 
ATOM     31  C   UNL     1      -1.158  12.766  22.984  0.00  0.00    +0.000 A 
ATOM     32  C   UNL     1      -2.355  13.372  23.445  0.00  0.00    +0.000 A 
ATOM     33  C   UNL     1      -3.317  13.060  22.520  0.00  0.00    +0.000 A 
ATOM     34  O   UNL     1      -2.789  12.294  21.531  0.00  0.00    +0.000 OA
ENDBRANCH  26  30
ENDBRANCH  21  23
ENDBRANCH  18  19
ENDBRANCH   6  18
TORSDOF 11
ENDMDL
MODEL 4
REMARK VINA RESULT:      -7.8      1.378      1.735
REMARK  Name = 
REMARK  13 active torsions:
REMARK  status: ('A' for Active; 'I' for Inactive)
REMARK    1  A    between atoms: C_1  and  C_2
REMARK    2  A    between atoms: C_2  and  C_29
REMARK    3  A    between atoms: C_3  and  C_4
REMARK    4  A    between atoms: C_4  and  O_5
REMARK    5  A    between atoms: O_5  and  C_6
REMARK    6  A    between atoms: C_11  and  C_12
REMARK    7  A    between atoms: C_12  and  N_13
REMARK    8  A    between atoms: N_13  and  C_14
REMARK    9  A    between atoms: C_15  and  C_17
REMARK   10  A    between atoms: C_20  and  C_21
REMARK   11  A    between atoms: C_29  and  C_30
REMARK   12  A    between atoms: C_30  and  C_31
REMARK   13  A    between atoms: C_31  and  O_33
REMARK                            x       y       z     vdW  Elec       q    Type
REMARK                         _______ _______ _______ _____ _____    ______ ____
ROOT
ATOM      1  C   UNL     1       3.687   4.424  19.252  0.00  0.00    +0.000 A 
ATOM      2  C   UNL     1       3.387   3.047  19.398  0.00  0.00    +0.000 A 
ATOM      3  C   UNL     1       2.259   2.453  18.837  0.00  0.00    +0.000 A 
ATOM      4  C   UNL     1       1.401   3.231  18.083  0.00  0.00    +0.000 A 
ATOM      5  C   UNL     1       1.685   4.586  17.896  0.00  0.00    +0.000 A 
ATOM      6  C   UNL     1       2.824   5.231  18.469  0.00  0.00    +0.000 A 
ENDROOT
BRANCH   1   7
ATOM      7  O   UNL     1       4.853   4.672  19.931  0.00  0.00    +0.000 OA
BRANCH   7   8
ATOM      8  C   UNL     1       5.966   5.332  19.372  0.00  0.00    +0.000 C 
BRANCH   8  11
ATOM      9  C   UNL     1       7.237   6.644  16.694  0.00  0.00    +0.000 C 
ATOM     10  C   UNL     1       7.018   5.187  16.985  0.00  0.00    +0.000 C 
ATOM     11  C   UNL     1       6.549   4.678  18.143  0.00  0.00    +0.000 C 
BRANCH  10  12
ATOM     12  C   UNL     1       7.137   4.266  15.777  0.00  0.00    +0.000 C 
BRANCH  12  13
ATOM     13  C   UNL     1       7.117   4.941  14.416  0.00  0.00    +0.000 C 
BRANCH  13  14
ATOM     14  C   UNL     1       6.297   4.120  13.438  0.00  0.00    +0.000 C 
ATOM     15  O   UNL     1       6.722   3.613  12.412  0.00  0.00    +0.000 OA
BRANCH  14  16
ATOM     16  O   UNL     1       5.012   3.987  13.820  0.00  0.00    +0.000 OA
ATOM     17  H   UNL     1       4.895   3.459  14.635  0.00  0.00    +0.000 HD
ENDBRANCH  14  16
ENDBRANCH  13  14
ENDBRANCH  12  13
ENDBRANCH  10  12
ENDBRANCH   8  11
ENDBRANCH   7   8
ENDBRANCH   1   7
BRANCH   6  18
ATOM     18  C   UNL     1       2.927   6.717  18.107  0.00  0.00    +0.000 C 
BRANCH  18  19
ATOM     19  N   UNL     1       2.320   7.638  19.091  0.00  0.00    +0.000 N 
ATOM     20  C   UNL     1       1.982   7.050  20.374  0.00  0.00    +0.000 C 
ATOM     21  C   UNL     1       1.645   8.813  18.675  0.00  0.00    +0.000 C 
ATOM     22  O   UNL     1       1.505   9.121  17.489  0.00  0.00    +0.000 OA
BRANCH  21  23
ATOM     23  C   UNL     1       1.030   9.716  19.733  0.00  0.00    +0.000 A 
ATOM     24  C   UNL     1       0.712  11.046  19.444  0.00  0.00    +0.000 A 
ATOM     25  C   UNL     1       0.153  11.894  20.412  0.00  0.00    +0.000 A 
ATOM     26  C   UNL     1      -0.201  11.430  21.692  0.00  0.00    +0.000 A 
ATOM     27  C   UNL     1       0.137  10.093  21.985  0.00  0.00    +0.000 A 
ATOM     28 CL   UNL     1      -0.104   9.399  23.556  0.00  0.00    +0.000 Cl
ATOM     29  C   UNL     1       0.733   9.246  21.015  0.00  0.00    +0.000 A 
BRANCH  26  30
ATOM     30  C   UNL     1      -1.003  12.325  22.553  0.00  0.00    +0.000 A 
ATOM     31  C   UNL     1      -2.343  12.452  22.881  0.00  0.00    +0.000 A 
ATOM     32  C   UNL     1      -2.493  13.670  23.595  0.00  0.00    +0.000 A 
ATOM     33  C   UNL     1      -1.234  14.201  23.706  0.00  0.00    +0.000 A 
ATOM     34  O   UNL     1      -0.327  13.394  23.098  0.00  0.00    +0.000 OA
ENDBRANCH  26  30
ENDBRANCH  21  23
ENDBRANCH  18  19
ENDBRANCH   6  18
TORSDOF 11
ENDMDL
MODEL 5
REMARK VINA RESULT:      -7.8      0.767      1.019
REMARK  Name = 
REMARK  13 active torsions:
REMARK  status: ('A' for Active; 'I' for Inactive)
REMARK    1  A    between atoms: C_1  and  C_2
REMARK    2  A    between atoms: C_2  and  C_29
REMARK    3  A    between atoms: C_3  and  C_4
REMARK    4  A    between atoms: C_4  and  O_5
REMARK    5  A    between atoms: O_5  and  C_6
REMARK    6  A    between atoms: C_11  and  C_12
REMARK    7  A    between atoms: C_12  and  N_13
REMARK    8  A    between atoms: N_13  and  C_14
REMARK    9  A    between atoms: C_15  and  C_17
REMARK   10  A    between atoms: C_20  and  C_21
REMARK   11  A    between atoms: C_29  and  C_30
REMARK   12  A    between atoms: C_30  and  C_31
REMARK   13  A    between atoms: C_31  and  O_33
REMARK                            x       y       z     vdW  Elec       q    Type
REMARK                         _______ _______ _______ _____ _____    ______ ____
ROOT
ATOM      1  C   UNL     1       4.669   4.561  19.219  0.00  0.00    +0.000 A 
ATOM      2  C   UNL     1       4.732   3.179  19.524  0.00  0.00    +0.000 A 
ATOM      3  C   UNL     1       3.752   2.271  19.129  0.00  0.00    +0.000 A 
ATOM      4  C   UNL     1       2.679   2.727  18.388  0.00  0.00    +0.000 A 
ATOM      5  C   UNL     1       2.603   4.079  18.046  0.00  0.00    +0.000 A 
ATOM      6  C   UNL     1       3.582   5.041  18.446  0.00  0.00    +0.000 A 
ENDROOT
BRANCH   1   7
ATOM      7  O   UNL     1       5.779   5.160  19.759  0.00  0.00    +0.000 OA
BRANCH   7   8
ATOM      8  C   UNL     1       7.055   5.140  19.161  0.00  0.00    +0.000 C 
BRANCH   8  11
ATOM      9  C   UNL     1       6.396   6.691  16.392  0.00  0.00    +0.000 C 
ATOM     10  C   UNL     1       6.752   5.243  16.569  0.00  0.00    +0.000 C 
ATOM     11  C   UNL     1       7.088   4.651  17.733  0.00  0.00    +0.000 C 
BRANCH  10  12
ATOM     12  C   UNL     1       6.485   4.364  15.353  0.00  0.00    +0.000 C 
BRANCH  12  13
ATOM     13  C   UNL     1       7.099   4.829  14.043  0.00  0.00    +0.000 C 
BRANCH  13  14
ATOM     14  C   UNL     1       6.528   4.030  12.886  0.00  0.00    +0.000 C 
ATOM     15  O   UNL     1       7.121   3.758  11.854  0.00  0.00    +0.000 OA
BRANCH  14  16
ATOM     16  O   UNL     1       5.263   3.623  13.110  0.00  0.00    +0.000 OA
ATOM     17  H   UNL     1       4.918   3.873  13.990  0.00  0.00    +0.000 HD
ENDBRANCH  14  16
ENDBRANCH  13  14
ENDBRANCH  12  13
ENDBRANCH  10  12
ENDBRANCH   8  11
ENDBRANCH   7   8
ENDBRANCH   1   7
BRANCH   6  18
ATOM     18  C   UNL     1       3.286   6.456  17.936  0.00  0.00    +0.000 C 
BRANCH  18  19
ATOM     19  N   UNL     1       2.468   7.284  18.845  0.00  0.00    +0.000 N 
ATOM     20  C   UNL     1       1.771   6.563  19.894  0.00  0.00    +0.000 C 
ATOM     21  C   UNL     1       1.975   8.550  18.437  0.00  0.00    +0.000 C 
ATOM     22  O   UNL     1       2.174   9.017  17.313  0.00  0.00    +0.000 OA
BRANCH  21  23
ATOM     23  C   UNL     1       1.126   9.352  19.413  0.00  0.00    +0.000 A 
ATOM     24  C   UNL     1       1.381   9.309  20.787  0.00  0.00    +0.000 A 
ATOM     25  C   UNL     1       0.601  10.036  21.699  0.00  0.00    +0.000 A 
ATOM     26  C   UNL     1      -0.415  10.913  21.278  0.00  0.00    +0.000 A 
ATOM     27  C   UNL     1      -0.679  10.939  19.893  0.00  0.00    +0.000 A 
ATOM     28 CL   UNL     1      -1.983  11.860  19.216  0.00  0.00    +0.000 Cl
ATOM     29  C   UNL     1       0.089  10.179  18.974  0.00  0.00    +0.000 A 
BRANCH  26  30
ATOM     30  C   UNL     1      -1.013  11.812  22.286  0.00  0.00    +0.000 A 
ATOM     31  C   UNL     1      -2.184  11.839  23.026  0.00  0.00    +0.000 A 
ATOM     32  C   UNL     1      -2.260  13.108  23.658  0.00  0.00    +0.000 A 
ATOM     33  C   UNL     1      -1.113  13.773  23.310  0.00  0.00    +0.000 A 
ATOM     34  O   UNL     1      -0.347  12.999  22.499  0.00  0.00    +0.000 OA
ENDBRANCH  26  30
ENDBRANCH  21  23
ENDBRANCH  18  19
ENDBRANCH   6  18
TORSDOF 11
ENDMDL
MODEL 6
REMARK VINA RESULT:      -7.7      2.633      3.673
REMARK  Name = 
REMARK  13 active torsions:
REMARK  status: ('A' for Active; 'I' for Inactive)
REMARK    1  A    between atoms: C_1  and  C_2
REMARK    2  A    between atoms: C_2  and  C_29
REMARK    3  A    between atoms: C_3  and  C_4
REMARK    4  A    between atoms: C_4  and  O_5
REMARK    5  A    between atoms: O_5  and  C_6
REMARK    6  A    between atoms: C_11  and  C_12
REMARK    7  A    between atoms: C_12  and  N_13
REMARK    8  A    between atoms: N_13  and  C_14
REMARK    9  A    between atoms: C_15  and  C_17
REMARK   10  A    between atoms: C_20  and  C_21
REMARK   11  A    between atoms: C_29  and  C_30
REMARK   12  A    between atoms: C_30  and  C_31
REMARK   13  A    between atoms: C_31  and  O_33
REMARK                            x       y       z     vdW  Elec       q    Type
REMARK                         _______ _______ _______ _____ _____    ______ ____
ROOT
ATOM      1  C   UNL     1       2.412   4.711  18.315  0.00  0.00    +0.000 A 
ATOM      2  C   UNL     1       1.730   3.469  18.315  0.00  0.00    +0.000 A 
ATOM      3  C   UNL     1       0.905   3.058  19.360  0.00  0.00    +0.000 A 
ATOM      4  C   UNL     1       0.721   3.904  20.437  0.00  0.00    +0.000 A 
ATOM      5  C   UNL     1       1.358   5.148  20.452  0.00  0.00    +0.000 A 
ATOM      6  C   UNL     1       2.221   5.595  19.405  0.00  0.00    +0.000 A 
ENDROOT
BRANCH   1   7
ATOM      7  O   UNL     1       3.135   4.790  17.150  0.00  0.00    +0.000 OA
BRANCH   7   8
ATOM      8  C   UNL     1       4.040   3.802  16.715  0.00  0.00    +0.000 C 
BRANCH   8  11
ATOM      9  C   UNL     1       5.665   4.688  19.377  0.00  0.00    +0.000 C 
ATOM     10  C   UNL     1       6.192   4.580  17.975  0.00  0.00    +0.000 C 
ATOM     11  C   UNL     1       5.499   4.141  16.905  0.00  0.00    +0.000 C 
BRANCH  10  12
ATOM     12  C   UNL     1       7.548   5.238  17.748  0.00  0.00    +0.000 C 
BRANCH  12  13
ATOM     13  C   UNL     1       7.855   6.453  18.608  0.00  0.00    +0.000 C 
BRANCH  13  14
ATOM     14  C   UNL     1       7.704   7.723  17.792  0.00  0.00    +0.000 C 
ATOM     15  O   UNL     1       7.036   7.833  16.775  0.00  0.00    +0.000 OA
BRANCH  14  16
ATOM     16  O   UNL     1       8.389   8.760  18.312  0.00  0.00    +0.000 OA
ATOM     17  H   UNL     1       7.821   9.442  18.722  0.00  0.00    +0.000 HD
ENDBRANCH  14  16
ENDBRANCH  13  14
ENDBRANCH  12  13
ENDBRANCH  10  12
ENDBRANCH   8  11
ENDBRANCH   7   8
ENDBRANCH   1   7
BRANCH   6  18
ATOM     18  C   UNL     1       2.787   7.000  19.643  0.00  0.00    +0.000 C 
BRANCH  18  19
ATOM     19  N   UNL     1       1.781   8.082  19.641  0.00  0.00    +0.000 N 
ATOM     20  C   UNL     1       1.709   8.867  18.422  0.00  0.00    +0.000 C 
ATOM     21  C   UNL     1       1.314   8.650  20.852  0.00  0.00    +0.000 C 
ATOM     22  O   UNL     1       1.727   8.300  21.960  0.00  0.00    +0.000 OA
BRANCH  21  23
ATOM     23  C   UNL     1       0.287   9.771  20.786  0.00  0.00    +0.000 A 
ATOM     24  C   UNL     1      -0.121  10.439  21.944  0.00  0.00    +0.000 A 
ATOM     25  C   UNL     1      -1.074  11.468  21.900  0.00  0.00    +0.000 A 
ATOM     26  C   UNL     1      -1.601  11.943  20.685  0.00  0.00    +0.000 A 
ATOM     27  C   UNL     1      -1.200  11.254  19.522  0.00  0.00    +0.000 A 
ATOM     28 CL   UNL     1      -1.855  11.619  17.958  0.00  0.00    +0.000 Cl
ATOM     29  C   UNL     1      -0.261  10.192  19.571  0.00  0.00    +0.000 A 
BRANCH  26  30
ATOM     30  C   UNL     1      -2.405  13.182  20.719  0.00  0.00    +0.000 A 
ATOM     31  C   UNL     1      -2.145  14.540  20.634  0.00  0.00    +0.000 A 
ATOM     32  C   UNL     1      -3.343  15.225  20.966  0.00  0.00    +0.000 A 
ATOM     33  C   UNL     1      -4.284  14.255  21.192  0.00  0.00    +0.000 A 
ATOM     34  O   UNL     1      -3.737  13.022  21.031  0.00  0.00    +0.000 OA
ENDBRANCH  26  30
ENDBRANCH  21  23
ENDBRANCH  18  19
ENDBRANCH   6  18
TORSDOF 11
ENDMDL
MODEL 7
REMARK VINA RESULT:      -7.6      1.106      1.352
REMARK  Name = 
REMARK  13 active torsions:
REMARK  status: ('A' for Active; 'I' for Inactive)
REMARK    1  A    between atoms: C_1  and  C_2
REMARK    2  A    between atoms: C_2  and  C_29
REMARK    3  A    between atoms: C_3  and  C_4
REMARK    4  A    between atoms: C_4  and  O_5
REMARK    5  A    between atoms: O_5  and  C_6
REMARK    6  A    between atoms: C_11  and  C_12
REMARK    7  A    between atoms: C_12  and  N_13
REMARK    8  A    between atoms: N_13  and  C_14
REMARK    9  A    between atoms: C_15  and  C_17
REMARK   10  A    between atoms: C_20  and  C_21
REMARK   11  A    between atoms: C_29  and  C_30
REMARK   12  A    between atoms: C_30  and  C_31
REMARK   13  A    between atoms: C_31  and  O_33
REMARK                            x       y       z     vdW  Elec       q    Type
REMARK                         _______ _______ _______ _____ _____    ______ ____
ROOT
ATOM      1  C   UNL     1       3.897   4.740  19.044  0.00  0.00    +0.000 A 
ATOM      2  C   UNL     1       3.596   3.382  19.316  0.00  0.00    +0.000 A 
ATOM      3  C   UNL     1       2.435   2.758  18.865  0.00  0.00    +0.000 A 
ATOM      4  C   UNL     1       1.544   3.483  18.096  0.00  0.00    +0.000 A 
ATOM      5  C   UNL     1       1.828   4.816  17.786  0.00  0.00    +0.000 A 
ATOM      6  C   UNL     1       3.000   5.491  18.245  0.00  0.00    +0.000 A 
ENDROOT
BRANCH   1   7
ATOM      7  O   UNL     1       5.100   5.028  19.639  0.00  0.00    +0.000 OA
BRANCH   7   8
ATOM      8  C   UNL     1       6.345   4.939  18.984  0.00  0.00    +0.000 C 
BRANCH   8  11
ATOM      9  C   UNL     1       6.725   6.041  15.959  0.00  0.00    +0.000 C 
ATOM     10  C   UNL     1       6.408   4.638  16.390  0.00  0.00    +0.000 C 
ATOM     11  C   UNL     1       6.326   4.205  17.665  0.00  0.00    +0.000 C 
BRANCH  10  12
ATOM     12  C   UNL     1       5.929   3.717  15.274  0.00  0.00    +0.000 C 
BRANCH  12  13
ATOM     13  C   UNL     1       5.569   4.390  13.960  0.00  0.00    +0.000 C 
BRANCH  13  14
ATOM     14  C   UNL     1       6.441   3.851  12.841  0.00  0.00    +0.000 C 
ATOM     15  O   UNL     1       7.292   4.488  12.240  0.00  0.00    +0.000 OA
BRANCH  14  16
ATOM     16  O   UNL     1       6.192   2.556  12.566  0.00  0.00    +0.000 OA
ATOM     17  H   UNL     1       6.995   2.032  12.371  0.00  0.00    +0.000 HD
ENDBRANCH  14  16
ENDBRANCH  13  14
ENDBRANCH  12  13
ENDBRANCH  10  12
ENDBRANCH   8  11
ENDBRANCH   7   8
ENDBRANCH   1   7
BRANCH   6  18
ATOM     18  C   UNL     1       3.094   6.942  17.759  0.00  0.00    +0.000 C 
BRANCH  18  19
ATOM     19  N   UNL     1       2.204   7.889  18.461  0.00  0.00    +0.000 N 
ATOM     20  C   UNL     1       2.032   9.180  17.821  0.00  0.00    +0.000 C 
ATOM     21  C   UNL     1       1.968   7.777  19.855  0.00  0.00    +0.000 C 
ATOM     22  O   UNL     1       2.499   6.914  20.557  0.00  0.00    +0.000 OA
BRANCH  21  23
ATOM     23  C   UNL     1       1.051   8.790  20.524  0.00  0.00    +0.000 A 
ATOM     24  C   UNL     1       0.800   8.730  21.898  0.00  0.00    +0.000 A 
ATOM     25  C   UNL     1      -0.050   9.651  22.529  0.00  0.00    +0.000 A 
ATOM     26  C   UNL     1      -0.622  10.733  21.835  0.00  0.00    +0.000 A 
ATOM     27  C   UNL     1      -0.380  10.779  20.446  0.00  0.00    +0.000 A 
ATOM     28 CL   UNL     1      -1.115  11.964  19.416  0.00  0.00    +0.000 Cl
ATOM     29  C   UNL     1       0.454   9.827  19.804  0.00  0.00    +0.000 A 
BRANCH  26  30
ATOM     30  C   UNL     1      -1.299  11.781  22.626  0.00  0.00    +0.000 A 
ATOM     31  C   UNL     1      -2.567  11.967  23.153  0.00  0.00    +0.000 A 
ATOM     32  C   UNL     1      -2.641  13.304  23.623  0.00  0.00    +0.000 A 
ATOM     33  C   UNL     1      -1.404  13.852  23.401  0.00  0.00    +0.000 A 
ATOM     34  O   UNL     1      -0.583  12.942  22.817  0.00  0.00    +0.000 OA
ENDBRANCH  26  30
ENDBRANCH  21  23
ENDBRANCH  18  19
ENDBRANCH   6  18
TORSDOF 11
ENDMDL
MODEL 8
REMARK VINA RESULT:      -7.5      3.747      5.836
REMARK  Name = 
REMARK  13 active torsions:
REMARK  status: ('A' for Active; 'I' for Inactive)
REMARK    1  A    between atoms: C_1  and  C_2
REMARK    2  A    between atoms: C_2  and  C_29
REMARK    3  A    between atoms: C_3  and  C_4
REMARK    4  A    between atoms: C_4  and  O_5
REMARK    5  A    between atoms: O_5  and  C_6
REMARK    6  A    between atoms: C_11  and  C_12
REMARK    7  A    between atoms: C_12  and  N_13
REMARK    8  A    between atoms: N_13  and  C_14
REMARK    9  A    between atoms: C_15  and  C_17
REMARK   10  A    between atoms: C_20  and  C_21
REMARK   11  A    between atoms: C_29  and  C_30
REMARK   12  A    between atoms: C_30  and  C_31
REMARK   13  A    between atoms: C_31  and  O_33
REMARK                            x       y       z     vdW  Elec       q    Type
REMARK                         _______ _______ _______ _____ _____    ______ ____
ROOT
ATOM      1  C   UNL     1       6.961   5.298  16.621  0.00  0.00    +0.000 A 
ATOM      2  C   UNL     1       7.543   5.200  15.332  0.00  0.00    +0.000 A 
ATOM      3  C   UNL     1       6.881   4.635  14.244  0.00  0.00    +0.000 A 
ATOM      4  C   UNL     1       5.592   4.168  14.415  0.00  0.00    +0.000 A 
ATOM      5  C   UNL     1       4.981   4.277  15.667  0.00  0.00    +0.000 A 
ATOM      6  C   UNL     1       5.634   4.837  16.808  0.00  0.00    +0.000 A 
ENDROOT
BRANCH   1   7
ATOM      7  O   UNL     1       7.880   5.892  17.450  0.00  0.00    +0.000 OA
BRANCH   7   8
ATOM      8  C   UNL     1       7.588   6.978  18.299  0.00  0.00    +0.000 C 
BRANCH   8  11
ATOM      9  C   UNL     1       9.191   9.497  19.564  0.00  0.00    +0.000 C 
ATOM     10  C   UNL     1       8.480   9.433  18.242  0.00  0.00    +0.000 C 
ATOM     11  C   UNL     1       7.883   8.342  17.722  0.00  0.00    +0.000 C 
BRANCH  10  12
ATOM     12  C   UNL     1       8.246  10.783  17.574  0.00  0.00    +0.000 C 
BRANCH  12  13
ATOM     13  C   UNL     1       9.402  11.767  17.631  0.00  0.00    +0.000 C 
BRANCH  13  14
ATOM     14  C   UNL     1       8.961  13.053  18.306  0.00  0.00    +0.000 C 
ATOM     15  O   UNL     1       8.664  13.165  19.485  0.00  0.00    +0.000 OA
BRANCH  14  16
ATOM     16  O   UNL     1       8.935  14.101  17.460  0.00  0.00    +0.000 OA
ATOM     17  H   UNL     1       9.474  14.862  17.757  0.00  0.00    +0.000 HD
ENDBRANCH  14  16
ENDBRANCH  13  14
ENDBRANCH  12  13
ENDBRANCH  10  12
ENDBRANCH   8  11
ENDBRANCH   7   8
ENDBRANCH   1   7
BRANCH   6  18
ATOM     18  C   UNL     1       4.752   4.861  18.061  0.00  0.00    +0.000 C 
BRANCH  18  19
ATOM     19  N   UNL     1       3.890   6.054  18.190  0.00  0.00    +0.000 N 
ATOM     20  C   UNL     1       4.321   7.222  17.445  0.00  0.00    +0.000 C 
ATOM     21  C   UNL     1       3.048   6.230  19.317  0.00  0.00    +0.000 C 
ATOM     22  O   UNL     1       3.002   5.427  20.252  0.00  0.00    +0.000 OA
BRANCH  21  23
ATOM     23  C   UNL     1       2.192   7.485  19.401  0.00  0.00    +0.000 A 
ATOM     24  C   UNL     1       1.964   8.274  18.269  0.00  0.00    +0.000 A 
ATOM     25  C   UNL     1       1.186   9.439  18.332  0.00  0.00    +0.000 A 
ATOM     26  C   UNL     1       0.520   9.827  19.509  0.00  0.00    +0.000 A 
ATOM     27  C   UNL     1       0.767   9.039  20.652  0.00  0.00    +0.000 A 
ATOM     28 CL   UNL     1       0.137   9.449  22.215  0.00  0.00    +0.000 Cl
ATOM     29  C   UNL     1       1.582   7.878  20.594  0.00  0.00    +0.000 A 
BRANCH  26  30
ATOM     30  C   UNL     1      -0.466  10.924  19.416  0.00  0.00    +0.000 A 
ATOM     31  C   UNL     1      -0.601  12.190  19.962  0.00  0.00    +0.000 A 
ATOM     32  C   UNL     1      -1.904  12.654  19.645  0.00  0.00    +0.000 A 
ATOM     33  C   UNL     1      -2.481  11.671  18.885  0.00  0.00    +0.000 A 
ATOM     34  O   UNL     1      -1.621  10.632  18.726  0.00  0.00    +0.000 OA
ENDBRANCH  26  30
ENDBRANCH  21  23
ENDBRANCH  18  19
ENDBRANCH   6  18
TORSDOF 11
ENDMDL
MODEL 9
REMARK VINA RESULT:      -7.5      2.786      3.568
REMARK  Name = 
REMARK  13 active torsions:
REMARK  status: ('A' for Active; 'I' for Inactive)
REMARK    1  A    between atoms: C_1  and  C_2
REMARK    2  A    between atoms: C_2  and  C_29
REMARK    3  A    between atoms: C_3  and  C_4
REMARK    4  A    between atoms: C_4  and  O_5
REMARK    5  A    between atoms: O_5  and  C_6
REMARK    6  A    between atoms: C_11  and  C_12
REMARK    7  A    between atoms: C_12  and  N_13
REMARK    8  A    between atoms: N_13  and  C_14
REMARK    9  A    between atoms: C_15  and  C_17
REMARK   10  A    between atoms: C_20  and  C_21
REMARK   11  A    between atoms: C_29  and  C_30
REMARK   12  A    between atoms: C_30  and  C_31
REMARK   13  A    between atoms: C_31  and  O_33
REMARK                            x       y       z     vdW  Elec       q    Type
REMARK                         _______ _______ _______ _____ _____    ______ ____
ROOT
ATOM      1  C   UNL     1       1.935   4.157  18.788  0.00  0.00    +0.000 A 
ATOM      2  C   UNL     1       1.383   2.996  19.382  0.00  0.00    +0.000 A 
ATOM      3  C   UNL     1       1.278   2.826  20.762  0.00  0.00    +0.000 A 
ATOM      4  C   UNL     1       1.709   3.842  21.593  0.00  0.00    +0.000 A 
ATOM      5  C   UNL     1       2.232   5.013  21.036  0.00  0.00    +0.000 A 
ATOM      6  C   UNL     1       2.367   5.214  19.628  0.00  0.00    +0.000 A 
ENDROOT
BRANCH   1   7
ATOM      7  O   UNL     1       1.893   3.991  17.427  0.00  0.00    +0.000 OA
BRANCH   7   8
ATOM      8  C   UNL     1       2.938   3.427  16.668  0.00  0.00    +0.000 C 
BRANCH   8  11
ATOM      9  C   UNL     1       5.603   4.207  18.342  0.00  0.00    +0.000 C 
ATOM     10  C   UNL     1       5.148   4.773  17.027  0.00  0.00    +0.000 C 
ATOM     11  C   UNL     1       4.067   4.371  16.329  0.00  0.00    +0.000 C 
BRANCH  10  12
ATOM     12  C   UNL     1       5.865   6.047  16.596  0.00  0.00    +0.000 C 
BRANCH  12  13
ATOM     13  C   UNL     1       7.366   6.083  16.830  0.00  0.00    +0.000 C 
BRANCH  13  14
ATOM     14  C   UNL     1       7.729   7.268  17.708  0.00  0.00    +0.000 C 
ATOM     15  O   UNL     1       7.601   8.442  17.397  0.00  0.00    +0.000 OA
BRANCH  14  16
ATOM     16  O   UNL     1       8.214   6.896  18.908  0.00  0.00    +0.000 OA
ATOM     17  H   UNL     1       8.809   6.122  18.871  0.00  0.00    +0.000 HD
ENDBRANCH  14  16
ENDBRANCH  13  14
ENDBRANCH  12  13
ENDBRANCH  10  12
ENDBRANCH   8  11
ENDBRANCH   7   8
ENDBRANCH   1   7
BRANCH   6  18
ATOM     18  C   UNL     1       2.952   6.584  19.264  0.00  0.00    +0.000 C 
BRANCH  18  19
ATOM     19  N   UNL     1       2.092   7.735  19.606  0.00  0.00    +0.000 N 
ATOM     20  C   UNL     1       1.213   7.545  20.745  0.00  0.00    +0.000 C 
ATOM     21  C   UNL     1       1.756   8.712  18.634  0.00  0.00    +0.000 C 
ATOM     22  O   UNL     1       2.133   8.648  17.461  0.00  0.00    +0.000 OA
BRANCH  21  23
ATOM     23  C   UNL     1       0.855   9.868  19.041  0.00  0.00    +0.000 A 
ATOM     24  C   UNL     1      -0.487   9.904  18.651  0.00  0.00    +0.000 A 
ATOM     25  C   UNL     1      -1.327  10.968  19.010  0.00  0.00    +0.000 A 
ATOM     26  C   UNL     1      -0.893  12.007  19.855  0.00  0.00    +0.000 A 
ATOM     27  C   UNL     1       0.466  11.976  20.232  0.00  0.00    +0.000 A 
ATOM     28 CL   UNL     1       1.200  13.245  21.157  0.00  0.00    +0.000 Cl
ATOM     29  C   UNL     1       1.323  10.915  19.840  0.00  0.00    +0.000 A 
BRANCH  26  30
ATOM     30  C   UNL     1      -1.910  12.946  20.373  0.00  0.00    +0.000 A 
ATOM     31  C   UNL     1      -2.071  14.321  20.402  0.00  0.00    +0.000 A 
ATOM     32  C   UNL     1      -3.168  14.604  21.258  0.00  0.00    +0.000 A 
ATOM     33  C   UNL     1      -3.648  13.389  21.671  0.00  0.00    +0.000 A 
ATOM     34  O   UNL     1      -2.911  12.383  21.133  0.00  0.00    +0.000 OA
ENDBRANCH  26  30
ENDBRANCH  21  23
ENDBRANCH  18  19
ENDBRANCH   6  18
TORSDOF 11
ENDMDL
