MODEL 1
REMARK VINA RESULT:      -9.5      0.000      0.000
REMARK  Name = 
REMARK  3 active torsions:
REMARK  status: ('A' for Active; 'I' for Inactive)
REMARK    1  A    between atoms: C_2  and  C_14
REMARK    2  A    between atoms: C_7  and  C_8
REMARK    3  A    between atoms: C_16  and  C_17
REMARK                            x       y       z     vdW  Elec       q    Type
REMARK                         _______ _______ _______ _____ _____    ______ ____
ROOT
ATOM      1  C   UNL     1       2.800   6.131  18.672  0.00  0.00    +0.000 A 
ATOM      2  C   UNL     1       3.805   6.159  17.700  0.00  0.00    +0.000 A 
ATOM      3  C   UNL     1       4.380   4.963  17.314  0.00  0.00    +0.000 A 
ATOM      4  N   UNL     1       4.030   3.778  17.856  0.00  0.00    +0.000 NA
ATOM      5  C   UNL     1       3.085   3.746  18.804  0.00  0.00    +0.000 A 
ATOM      6  C   UNL     1       2.773   2.510  19.355  0.00  0.00    +0.000 A 
ATOM      7  C   UNL     1       1.795   2.360  20.336  0.00  0.00    +0.000 A 
ATOM      8  C   UNL     1       1.096   3.474  20.775  0.00  0.00    +0.000 A 
ATOM      9  C   UNL     1       1.394   4.727  20.240  0.00  0.00    +0.000 A 
ATOM     10  C   UNL     1       2.405   4.898  19.258  0.00  0.00    +0.000 A 
ENDROOT
BRANCH   1  12
ATOM     11  O   UNL     1       1.956   8.289  18.270  0.00  0.00    +0.000 OA
ATOM     12  C   UNL     1       2.210   7.435  19.110  0.00  0.00    +0.000 C 
ATOM     13  N   UNL     1       2.013   7.559  20.466  0.00  0.00    +0.000 N 
ATOM     14  C   UNL     1       1.458   8.671  21.036  0.00  0.00    +0.000 A 
ATOM     15  N   UNL     1       1.385   8.918  22.324  0.00  0.00    +0.000 NA
ATOM     16  N   UNL     1       0.744  10.133  22.449  0.00  0.00    +0.000 NA
ATOM     17  C   UNL     1       0.440  10.534  21.225  0.00  0.00    +0.000 A 
ATOM     18  O   UNL     1       0.878   9.642  20.277  0.00  0.00    +0.000 OA
ATOM     19  H   UNL     1       2.354   6.874  21.124  0.00  0.00    +0.000 HD
BRANCH  17  20
ATOM     20  C   UNL     1      -0.282  11.734  20.934  0.00  0.00    +0.000 A 
ATOM     21  C   UNL     1      -1.412  11.885  20.142  0.00  0.00    +0.000 A 
ATOM     22  C   UNL     1      -1.745  13.260  20.132  0.00  0.00    +0.000 A 
ATOM     23  C   UNL     1      -0.803  13.879  20.922  0.00  0.00    +0.000 A 
ATOM     24  O   UNL     1       0.077  12.970  21.410  0.00  0.00    +0.000 OA
ENDBRANCH  17  20
ENDBRANCH   1  12
BRANCH   3  25
ATOM     25  C   UNL     1       5.406   4.873  16.284  0.00  0.00    +0.000 A 
ATOM     26  C   UNL     1       6.678   5.402  16.159  0.00  0.00    +0.000 A 
ATOM     27  C   UNL     1       7.192   4.938  14.925  0.00  0.00    +0.000 A 
ATOM     28  C   UNL     1       6.207   4.157  14.370  0.00  0.00    +0.000 A 
ATOM     29  O   UNL     1       5.121   4.107  15.186  0.00  0.00    +0.000 OA
ENDBRANCH   3  25
TORSDOF 3
ENDMDL
MODEL 2
REMARK VINA RESULT:      -9.2      2.394      8.916
REMARK  Name = 
REMARK  3 active torsions:
REMARK  status: ('A' for Active; 'I' for Inactive)
REMARK    1  A    between atoms: C_2  and  C_14
REMARK    2  A    between atoms: C_7  and  C_8
REMARK    3  A    between atoms: C_16  and  C_17
REMARK                            x       y       z     vdW  Elec       q    Type
REMARK                         _______ _______ _______ _____ _____    ______ ____
ROOT
ATOM      1  C   UNL     1       3.359   5.308  18.118  0.00  0.00    +0.000 A 
ATOM      2  C   UNL     1       2.914   6.630  18.028  0.00  0.00    +0.000 A 
ATOM      3  C   UNL     1       2.226   7.167  19.099  0.00  0.00    +0.000 A 
ATOM      4  N   UNL     1       1.945   6.459  20.213  0.00  0.00    +0.000 NA
ATOM      5  C   UNL     1       2.348   5.184  20.297  0.00  0.00    +0.000 A 
ATOM      6  C   UNL     1       2.016   4.483  21.449  0.00  0.00    +0.000 A 
ATOM      7  C   UNL     1       2.397   3.158  21.647  0.00  0.00    +0.000 A 
ATOM      8  C   UNL     1       3.144   2.513  20.674  0.00  0.00    +0.000 A 
ATOM      9  C   UNL     1       3.487   3.194  19.506  0.00  0.00    +0.000 A 
ATOM     10  C   UNL     1       3.084   4.537  19.280  0.00  0.00    +0.000 A 
ENDROOT
BRANCH   1  12
ATOM     11  O   UNL     1       3.726   3.627  16.514  0.00  0.00    +0.000 OA
ATOM     12  C   UNL     1       4.070   4.723  16.937  0.00  0.00    +0.000 C 
ATOM     13  N   UNL     1       5.087   5.497  16.427  0.00  0.00    +0.000 N 
ATOM     14  C   UNL     1       5.822   5.129  15.334  0.00  0.00    +0.000 A 
ATOM     15  N   UNL     1       6.899   5.740  14.893  0.00  0.00    +0.000 NA
ATOM     16  N   UNL     1       7.304   5.045  13.773  0.00  0.00    +0.000 NA
ATOM     17  C   UNL     1       6.427   4.072  13.586  0.00  0.00    +0.000 A 
ATOM     18  O   UNL     1       5.457   4.070  14.559  0.00  0.00    +0.000 OA
ATOM     19  H   UNL     1       5.409   6.334  16.890  0.00  0.00    +0.000 HD
BRANCH  17  20
ATOM     20  C   UNL     1       6.471   3.156  12.488  0.00  0.00    +0.000 A 
ATOM     21  C   UNL     1       5.425   2.433  11.931  0.00  0.00    +0.000 A 
ATOM     22  C   UNL     1       5.962   1.644  10.886  0.00  0.00    +0.000 A 
ATOM     23  C   UNL     1       7.308   1.928  10.856  0.00  0.00    +0.000 A 
ATOM     24  O   UNL     1       7.622   2.837  11.812  0.00  0.00    +0.000 OA
ENDBRANCH  17  20
ENDBRANCH   1  12
BRANCH   3  25
ATOM     25  C   UNL     1       1.752   8.544  19.127  0.00  0.00    +0.000 A 
ATOM     26  C   UNL     1       1.694   9.550  18.180  0.00  0.00    +0.000 A 
ATOM     27  C   UNL     1       1.108  10.672  18.813  0.00  0.00    +0.000 A 
ATOM     28  C   UNL     1       0.846  10.287  20.106  0.00  0.00    +0.000 A 
ATOM     29  O   UNL     1       1.229   8.999  20.307  0.00  0.00    +0.000 OA
ENDBRANCH   3  25
TORSDOF 3
ENDMDL
MODEL 3
REMARK VINA RESULT:      -8.9      1.544      1.669
REMARK  Name = 
REMARK  3 active torsions:
REMARK  status: ('A' for Active; 'I' for Inactive)
REMARK    1  A    between atoms: C_2  and  C_14
REMARK    2  A    between atoms: C_7  and  C_8
REMARK    3  A    between atoms: C_16  and  C_17
REMARK                            x       y       z     vdW  Elec       q    Type
REMARK                         _______ _______ _______ _____ _____    ______ ____
ROOT
ATOM      1  C   UNL     1       2.924   5.951  19.271  0.00  0.00    +0.000 A 
ATOM      2  C   UNL     1       3.763   6.053  18.156  0.00  0.00    +0.000 A 
ATOM      3  C   UNL     1       4.488   4.940  17.775  0.00  0.00    +0.000 A 
ATOM      4  N   UNL     1       4.440   3.773  18.450  0.00  0.00    +0.000 NA
ATOM      5  C   UNL     1       3.657   3.674  19.533  0.00  0.00    +0.000 A 
ATOM      6  C   UNL     1       3.657   2.465  20.214  0.00  0.00    +0.000 A 
ATOM      7  C   UNL     1       2.870   2.249  21.343  0.00  0.00    +0.000 A 
ATOM      8  C   UNL     1       2.046   3.265  21.802  0.00  0.00    +0.000 A 
ATOM      9  C   UNL     1       2.032   4.491  21.137  0.00  0.00    +0.000 A 
ATOM     10  C   UNL     1       2.847   4.733  20.000  0.00  0.00    +0.000 A 
ENDROOT
BRANCH   1  12
ATOM     11  O   UNL     1       1.652   7.197  20.807  0.00  0.00    +0.000 OA
ATOM     12  C   UNL     1       2.171   7.172  19.698  0.00  0.00    +0.000 C 
ATOM     13  N   UNL     1       2.122   8.183  18.766  0.00  0.00    +0.000 N 
ATOM     14  C   UNL     1       1.501   9.378  19.000  0.00  0.00    +0.000 A 
ATOM     15  N   UNL     1       1.284  10.317  18.108  0.00  0.00    +0.000 NA
ATOM     16  N   UNL     1       0.647  11.343  18.774  0.00  0.00    +0.000 NA
ATOM     17  C   UNL     1       0.545  10.973  20.041  0.00  0.00    +0.000 A 
ATOM     18  O   UNL     1       1.068   9.719  20.246  0.00  0.00    +0.000 OA
ATOM     19  H   UNL     1       2.461   8.061  17.823  0.00  0.00    +0.000 HD
BRANCH  17  20
ATOM     20  C   UNL     1      -0.015  11.793  21.071  0.00  0.00    +0.000 A 
ATOM     21  C   UNL     1      -0.816  11.404  22.136  0.00  0.00    +0.000 A 
ATOM     22  C   UNL     1      -1.145  12.570  22.868  0.00  0.00    +0.000 A 
ATOM     23  C   UNL     1      -0.525  13.611  22.215  0.00  0.00    +0.000 A 
ATOM     24  O   UNL     1       0.157  13.153  21.136  0.00  0.00    +0.000 OA
ENDBRANCH  17  20
ENDBRANCH   1  12
BRANCH   3  25
ATOM     25  C   UNL     1       5.360   4.924  16.609  0.00  0.00    +0.000 A 
ATOM     26  C   UNL     1       6.523   5.596  16.281  0.00  0.00    +0.000 A 
ATOM     27  C   UNL     1       6.911   5.137  14.999  0.00  0.00    +0.000 A 
ATOM     28  C   UNL     1       5.964   4.216  14.621  0.00  0.00    +0.000 A 
ATOM     29  O   UNL     1       5.021   4.076  15.589  0.00  0.00    +0.000 OA
ENDBRANCH   3  25
TORSDOF 3
ENDMDL
MODEL 4
REMARK VINA RESULT:      -8.8      2.298      8.839
REMARK  Name = 
REMARK  3 active torsions:
REMARK  status: ('A' for Active; 'I' for Inactive)
REMARK    1  A    between atoms: C_2  and  C_14
REMARK    2  A    between atoms: C_7  and  C_8
REMARK    3  A    between atoms: C_16  and  C_17
REMARK                            x       y       z     vdW  Elec       q    Type
REMARK                         _______ _______ _______ _____ _____    ______ ____
ROOT
ATOM      1  C   UNL     1       3.319   5.246  18.257  0.00  0.00    +0.000 A 
ATOM      2  C   UNL     1       2.870   6.568  18.188  0.00  0.00    +0.000 A 
ATOM      3  C   UNL     1       2.185   7.087  19.270  0.00  0.00    +0.000 A 
ATOM      4  N   UNL     1       1.909   6.362  20.374  0.00  0.00    +0.000 NA
ATOM      5  C   UNL     1       2.315   5.087  20.438  0.00  0.00    +0.000 A 
ATOM      6  C   UNL     1       1.988   4.369  21.580  0.00  0.00    +0.000 A 
ATOM      7  C   UNL     1       2.373   3.041  21.757  0.00  0.00    +0.000 A 
ATOM      8  C   UNL     1       3.118   2.412  20.772  0.00  0.00    +0.000 A 
ATOM      9  C   UNL     1       3.456   3.112  19.614  0.00  0.00    +0.000 A 
ATOM     10  C   UNL     1       3.049   4.457  19.409  0.00  0.00    +0.000 A 
ENDROOT
BRANCH   1  12
ATOM     11  O   UNL     1       3.688   3.587  16.631  0.00  0.00    +0.000 OA
ATOM     12  C   UNL     1       4.027   4.680  17.066  0.00  0.00    +0.000 C 
ATOM     13  N   UNL     1       5.037   5.466  16.561  0.00  0.00    +0.000 N 
ATOM     14  C   UNL     1       5.768   5.117  15.459  0.00  0.00    +0.000 A 
ATOM     15  N   UNL     1       6.839   5.740  15.020  0.00  0.00    +0.000 NA
ATOM     16  N   UNL     1       7.243   5.062  13.890  0.00  0.00    +0.000 NA
ATOM     17  C   UNL     1       6.370   4.086  13.695  0.00  0.00    +0.000 A 
ATOM     18  O   UNL     1       5.406   4.066  14.673  0.00  0.00    +0.000 OA
ATOM     19  H   UNL     1       5.356   6.300  17.032  0.00  0.00    +0.000 HD
BRANCH  17  20
ATOM     20  C   UNL     1       6.415   3.183  12.585  0.00  0.00    +0.000 A 
ATOM     21  C   UNL     1       7.494   2.883  11.766  0.00  0.00    +0.000 A 
ATOM     22  C   UNL     1       7.046   1.959  10.793  0.00  0.00    +0.000 A 
ATOM     23  C   UNL     1       5.716   1.740  11.068  0.00  0.00    +0.000 A 
ATOM     24  O   UNL     1       5.329   2.468  12.145  0.00  0.00    +0.000 OA
ENDBRANCH  17  20
ENDBRANCH   1  12
BRANCH   3  25
ATOM     25  C   UNL     1       1.708   8.463  19.320  0.00  0.00    +0.000 A 
ATOM     26  C   UNL     1       1.068   9.213  20.289  0.00  0.00    +0.000 A 
ATOM     27  C   UNL     1       0.877  10.505  19.743  0.00  0.00    +0.000 A 
ATOM     28  C   UNL     1       1.409  10.467  18.477  0.00  0.00    +0.000 A 
ATOM     29  O   UNL     1       1.919   9.236  18.211  0.00  0.00    +0.000 OA
ENDBRANCH   3  25
TORSDOF 3
ENDMDL
MODEL 5
REMARK VINA RESULT:      -8.5      2.483      8.969
REMARK  Name = 
REMARK  3 active torsions:
REMARK  status: ('A' for Active; 'I' for Inactive)
REMARK    1  A    between atoms: C_2  and  C_14
REMARK    2  A    between atoms: C_7  and  C_8
REMARK    3  A    between atoms: C_16  and  C_17
REMARK                            x       y       z     vdW  Elec       q    Type
REMARK                         _______ _______ _______ _____ _____    ______ ____
ROOT
ATOM      1  C   UNL     1       0.773  10.569  18.773  0.00  0.00    +0.000 A 
ATOM      2  C   UNL     1       1.348  11.588  19.539  0.00  0.00    +0.000 A 
ATOM      3  C   UNL     1       0.544  12.633  19.952  0.00  0.00    +0.000 A 
ATOM      4  N   UNL     1      -0.762  12.723  19.623  0.00  0.00    +0.000 NA
ATOM      5  C   UNL     1      -1.313  11.762  18.869  0.00  0.00    +0.000 A 
ATOM      6  C   UNL     1      -2.652  11.906  18.531  0.00  0.00    +0.000 A 
ATOM      7  C   UNL     1      -3.329  10.959  17.764  0.00  0.00    +0.000 A 
ATOM      8  C   UNL     1      -2.656   9.828  17.331  0.00  0.00    +0.000 A 
ATOM      9  C   UNL     1      -1.310   9.663  17.655  0.00  0.00    +0.000 A 
ATOM     10  C   UNL     1      -0.601  10.631  18.414  0.00  0.00    +0.000 A 
ENDROOT
BRANCH   1  12
ATOM     11  O   UNL     1       2.210   9.559  17.209  0.00  0.00    +0.000 OA
ATOM     12  C   UNL     1       1.661   9.461  18.299  0.00  0.00    +0.000 C 
ATOM     13  N   UNL     1       1.769   8.392  19.158  0.00  0.00    +0.000 N 
ATOM     14  C   UNL     1       2.558   7.307  18.896  0.00  0.00    +0.000 A 
ATOM     15  N   UNL     1       2.587   6.193  19.593  0.00  0.00    +0.000 NA
ATOM     16  N   UNL     1       3.524   5.383  18.988  0.00  0.00    +0.000 NA
ATOM     17  C   UNL     1       4.031   6.071  17.976  0.00  0.00    +0.000 A 
ATOM     18  O   UNL     1       3.445   7.309  17.863  0.00  0.00    +0.000 OA
ATOM     19  H   UNL     1       1.197   8.308  19.986  0.00  0.00    +0.000 HD
BRANCH  17  20
ATOM     20  C   UNL     1       5.077   5.591  17.127  0.00  0.00    +0.000 A 
ATOM     21  C   UNL     1       5.268   5.842  15.776  0.00  0.00    +0.000 A 
ATOM     22  C   UNL     1       6.421   5.130  15.369  0.00  0.00    +0.000 A 
ATOM     23  C   UNL     1       6.878   4.482  16.495  0.00  0.00    +0.000 A 
ATOM     24  O   UNL     1       6.078   4.756  17.555  0.00  0.00    +0.000 OA
ENDBRANCH  17  20
ENDBRANCH   1  12
BRANCH   3  25
ATOM     25  C   UNL     1       1.029  13.725  20.785  0.00  0.00    +0.000 A 
ATOM     26  C   UNL     1       0.431  14.847  21.328  0.00  0.00    +0.000 A 
ATOM     27  C   UNL     1       1.430  15.526  22.065  0.00  0.00    +0.000 A 
ATOM     28  C   UNL     1       2.576  14.782  21.929  0.00  0.00    +0.000 A 
ATOM     29  O   UNL     1       2.346  13.687  21.159  0.00  0.00    +0.000 OA
ENDBRANCH   3  25
TORSDOF 3
ENDMDL
MODEL 6
REMARK VINA RESULT:      -8.4      1.617      1.808
REMARK  Name = 
REMARK  3 active torsions:
REMARK  status: ('A' for Active; 'I' for Inactive)
REMARK    1  A    between atoms: C_2  and  C_14
REMARK    2  A    between atoms: C_7  and  C_8
REMARK    3  A    between atoms: C_16  and  C_17
REMARK                            x       y       z     vdW  Elec       q    Type
REMARK                         _______ _______ _______ _____ _____    ______ ____
ROOT
ATOM      1  C   UNL     1       2.794   6.052  18.554  0.00  0.00    +0.000 A 
ATOM      2  C   UNL     1       3.822   6.097  17.606  0.00  0.00    +0.000 A 
ATOM      3  C   UNL     1       4.360   4.905  17.162  0.00  0.00    +0.000 A 
ATOM      4  N   UNL     1       3.953   3.704  17.626  0.00  0.00    +0.000 NA
ATOM      5  C   UNL     1       2.986   3.654  18.551  0.00  0.00    +0.000 A 
ATOM      6  C   UNL     1       2.615   2.401  19.021  0.00  0.00    +0.000 A 
ATOM      7  C   UNL     1       1.611   2.232  19.972  0.00  0.00    +0.000 A 
ATOM      8  C   UNL     1       0.945   3.344  20.461  0.00  0.00    +0.000 A 
ATOM      9  C   UNL     1       1.301   4.614  20.008  0.00  0.00    +0.000 A 
ATOM     10  C   UNL     1       2.340   4.803  19.058  0.00  0.00    +0.000 A 
ENDROOT
BRANCH   1  12
ATOM     11  O   UNL     1       2.457   7.681  20.216  0.00  0.00    +0.000 OA
ATOM     12  C   UNL     1       2.244   7.350  19.057  0.00  0.00    +0.000 C 
ATOM     13  N   UNL     1       1.514   8.068  18.138  0.00  0.00    +0.000 N 
ATOM     14  C   UNL     1       0.963   9.287  18.419  0.00  0.00    +0.000 A 
ATOM     15  N   UNL     1       0.131   9.950  17.647  0.00  0.00    +0.000 NA
ATOM     16  N   UNL     1      -0.159  11.124  18.310  0.00  0.00    +0.000 NA
ATOM     17  C   UNL     1       0.542  11.115  19.432  0.00  0.00    +0.000 A 
ATOM     18  O   UNL     1       1.274   9.960  19.562  0.00  0.00    +0.000 OA
ATOM     19  H   UNL     1       1.265   7.691  17.235  0.00  0.00    +0.000 HD
BRANCH  17  20
ATOM     20  C   UNL     1       0.553  12.189  20.377  0.00  0.00    +0.000 A 
ATOM     21  C   UNL     1       1.514  13.177  20.540  0.00  0.00    +0.000 A 
ATOM     22  C   UNL     1       1.102  13.998  21.617  0.00  0.00    +0.000 A 
ATOM     23  C   UNL     1      -0.092  13.471  22.054  0.00  0.00    +0.000 A 
ATOM     24  O   UNL     1      -0.431  12.387  21.313  0.00  0.00    +0.000 OA
ENDBRANCH  17  20
ENDBRANCH   1  12
BRANCH   3  25
ATOM     25  C   UNL     1       5.405   4.835  16.150  0.00  0.00    +0.000 A 
ATOM     26  C   UNL     1       6.631   5.458  16.003  0.00  0.00    +0.000 A 
ATOM     27  C   UNL     1       7.200   4.961  14.807  0.00  0.00    +0.000 A 
ATOM     28  C   UNL     1       6.290   4.068  14.294  0.00  0.00    +0.000 A 
ATOM     29  O   UNL     1       5.200   3.981  15.101  0.00  0.00    +0.000 OA
ENDBRANCH   3  25
TORSDOF 3
ENDMDL
MODEL 7
REMARK VINA RESULT:      -8.3      2.794      9.272
REMARK  Name = 
REMARK  3 active torsions:
REMARK  status: ('A' for Active; 'I' for Inactive)
REMARK    1  A    between atoms: C_2  and  C_14
REMARK    2  A    between atoms: C_7  and  C_8
REMARK    3  A    between atoms: C_16  and  C_17
REMARK                            x       y       z     vdW  Elec       q    Type
REMARK                         _______ _______ _______ _____ _____    ______ ____
ROOT
ATOM      1  C   UNL     1       0.523  10.641  18.340  0.00  0.00    +0.000 A 
ATOM      2  C   UNL     1      -0.855  10.406  18.304  0.00  0.00    +0.000 A 
ATOM      3  C   UNL     1      -1.709  11.475  18.497  0.00  0.00    +0.000 A 
ATOM      4  N   UNL     1      -1.266  12.726  18.744  0.00  0.00    +0.000 NA
ATOM      5  C   UNL     1       0.052  12.954  18.803  0.00  0.00    +0.000 A 
ATOM      6  C   UNL     1       0.465  14.249  19.085  0.00  0.00    +0.000 A 
ATOM      7  C   UNL     1       1.812  14.600  19.156  0.00  0.00    +0.000 A 
ATOM      8  C   UNL     1       2.779  13.635  18.925  0.00  0.00    +0.000 A 
ATOM      9  C   UNL     1       2.389  12.325  18.643  0.00  0.00    +0.000 A 
ATOM     10  C   UNL     1       1.021  11.948  18.593  0.00  0.00    +0.000 A 
ENDROOT
BRANCH   1  12
ATOM     11  O   UNL     1       2.096   9.369  17.140  0.00  0.00    +0.000 OA
ATOM     12  C   UNL     1       1.440   9.470  18.169  0.00  0.00    +0.000 C 
ATOM     13  N   UNL     1       1.451   8.579  19.217  0.00  0.00    +0.000 N 
ATOM     14  C   UNL     1       2.250   7.470  19.239  0.00  0.00    +0.000 A 
ATOM     15  N   UNL     1       2.197   6.504  20.129  0.00  0.00    +0.000 NA
ATOM     16  N   UNL     1       3.180   5.603  19.779  0.00  0.00    +0.000 NA
ATOM     17  C   UNL     1       3.791   6.096  18.714  0.00  0.00    +0.000 A 
ATOM     18  O   UNL     1       3.234   7.287  18.316  0.00  0.00    +0.000 OA
ATOM     19  H   UNL     1       0.800   8.645  19.986  0.00  0.00    +0.000 HD
BRANCH  17  20
ATOM     20  C   UNL     1       4.911   5.475  18.075  0.00  0.00    +0.000 A 
ATOM     21  C   UNL     1       4.960   4.870  16.827  0.00  0.00    +0.000 A 
ATOM     22  C   UNL     1       6.274   4.377  16.644  0.00  0.00    +0.000 A 
ATOM     23  C   UNL     1       6.962   4.709  17.790  0.00  0.00    +0.000 A 
ATOM     24  O   UNL     1       6.152   5.371  18.653  0.00  0.00    +0.000 OA
ENDBRANCH  17  20
ENDBRANCH   1  12
BRANCH   3  25
ATOM     25  C   UNL     1      -3.159  11.351  18.441  0.00  0.00    +0.000 A 
ATOM     26  C   UNL     1      -4.018  10.547  17.715  0.00  0.00    +0.000 A 
ATOM     27  C   UNL     1      -5.332  10.887  18.115  0.00  0.00    +0.000 A 
ATOM     28  C   UNL     1      -5.198  11.877  19.059  0.00  0.00    +0.000 A 
ATOM     29  O   UNL     1      -3.887  12.164  19.266  0.00  0.00    +0.000 OA
ENDBRANCH   3  25
TORSDOF 3
ENDMDL
MODEL 8
REMARK VINA RESULT:      -8.2      1.753      1.995
REMARK  Name = 
REMARK  3 active torsions:
REMARK  status: ('A' for Active; 'I' for Inactive)
REMARK    1  A    between atoms: C_2  and  C_14
REMARK    2  A    between atoms: C_7  and  C_8
REMARK    3  A    between atoms: C_16  and  C_17
REMARK                            x       y       z     vdW  Elec       q    Type
REMARK                         _______ _______ _______ _____ _____    ______ ____
ROOT
ATOM      1  C   UNL     1       3.023   5.482  18.129  0.00  0.00    +0.000 A 
ATOM      2  C   UNL     1       4.001   5.687  17.151  0.00  0.00    +0.000 A 
ATOM      3  C   UNL     1       4.665   4.586  16.644  0.00  0.00    +0.000 A 
ATOM      4  N   UNL     1       4.426   3.329  17.075  0.00  0.00    +0.000 NA
ATOM      5  C   UNL     1       3.507   3.128  18.029  0.00  0.00    +0.000 A 
ATOM      6  C   UNL     1       3.311   1.824  18.462  0.00  0.00    +0.000 A 
ATOM      7  C   UNL     1       2.370   1.500  19.438  0.00  0.00    +0.000 A 
ATOM      8  C   UNL     1       1.591   2.503  19.991  0.00  0.00    +0.000 A 
ATOM      9  C   UNL     1       1.772   3.822  19.575  0.00  0.00    +0.000 A 
ATOM     10  C   UNL     1       2.744   4.170  18.600  0.00  0.00    +0.000 A 
ENDROOT
BRANCH   1  12
ATOM     11  O   UNL     1       1.693   6.571  19.734  0.00  0.00    +0.000 OA
ATOM     12  C   UNL     1       2.336   6.684  18.698  0.00  0.00    +0.000 C 
ATOM     13  N   UNL     1       2.488   7.842  17.971  0.00  0.00    +0.000 N 
ATOM     14  C   UNL     1       1.952   9.038  18.360  0.00  0.00    +0.000 A 
ATOM     15  N   UNL     1       1.928  10.138  17.641  0.00  0.00    +0.000 NA
ATOM     16  N   UNL     1       1.310  11.094  18.420  0.00  0.00    +0.000 NA
ATOM     17  C   UNL     1       1.025  10.521  19.578  0.00  0.00    +0.000 A 
ATOM     18  O   UNL     1       1.406   9.201  19.597  0.00  0.00    +0.000 OA
ATOM     19  H   UNL     1       2.925   7.852  17.061  0.00  0.00    +0.000 HD
BRANCH  17  20
ATOM     20  C   UNL     1       0.421  11.203  20.681  0.00  0.00    +0.000 A 
ATOM     21  C   UNL     1      -0.370  10.671  21.690  0.00  0.00    +0.000 A 
ATOM     22  C   UNL     1      -0.756  11.738  22.536  0.00  0.00    +0.000 A 
ATOM     23  C   UNL     1      -0.178  12.868  22.002  0.00  0.00    +0.000 A 
ATOM     24  O   UNL     1       0.533  12.555  20.890  0.00  0.00    +0.000 OA
ENDBRANCH  17  20
ENDBRANCH   1  12
BRANCH   3  25
ATOM     25  C   UNL     1       5.672   4.681  15.597  0.00  0.00    +0.000 A 
ATOM     26  C   UNL     1       5.817   4.081  14.359  0.00  0.00    +0.000 A 
ATOM     27  C   UNL     1       7.009   4.595  13.794  0.00  0.00    +0.000 A 
ATOM     28  C   UNL     1       7.520   5.475  14.718  0.00  0.00    +0.000 A 
ATOM     29  O   UNL     1       6.717   5.537  15.812  0.00  0.00    +0.000 OA
ENDBRANCH   3  25
TORSDOF 3
ENDMDL
