MODEL 1
REMARK VINA RESULT:      -9.2      0.000      0.000
REMARK  Name = 
REMARK  6 active torsions:
REMARK  status: ('A' for Active; 'I' for Inactive)
REMARK    1  A    between atoms: C_1  and  C_2
REMARK    2  A    between atoms: C_2  and  C_3
REMARK    3  A    between atoms: C_2  and  C_4
REMARK    4  A    between atoms: N_6  and  C_7
REMARK    5  A    between atoms: C_7  and  C_8
REMARK    6  A    between atoms: N_10  and  C_11
REMARK                            x       y       z     vdW  Elec       q    Type
REMARK                         _______ _______ _______ _____ _____    ______ ____
ROOT
ATOM      1  C   UNL     1       6.308   4.583  16.229  0.00  0.00    +0.000 C 
ATOM      2  C   UNL     1       5.565   5.868  16.519  0.00  0.00    +0.000 C 
ATOM      3  N   UNL     1       4.500   5.436  17.374  0.00  0.00    +0.000 N 
ATOM      4  C   UNL     1       4.335   4.066  17.239  0.00  0.00    +0.000 C 
ATOM      5  O   UNL     1       3.452   3.352  17.691  0.00  0.00    +0.000 OA
ATOM      6  O   UNL     1       5.321   3.558  16.428  0.00  0.00    +0.000 OA
ENDROOT
BRANCH   3   7
ATOM      7  C   UNL     1       3.638   6.329  18.057  0.00  0.00    +0.000 A 
ATOM      8  C   UNL     1       3.090   6.013  19.302  0.00  0.00    +0.000 A 
ATOM      9  C   UNL     1       2.218   6.894  19.948  0.00  0.00    +0.000 A 
ATOM     10  F   UNL     1       1.722   6.516  21.138  0.00  0.00    +0.000 F 
ATOM     11  C   UNL     1       1.837   8.118  19.382  0.00  0.00    +0.000 A 
ATOM     12  C   UNL     1       2.414   8.437  18.140  0.00  0.00    +0.000 A 
ATOM     13  C   UNL     1       3.303   7.567  17.494  0.00  0.00    +0.000 A 
ATOM     14  O   UNL     1       2.146   9.610  17.462  0.00  0.00    +0.000 OA
ATOM     15  C   UNL     1       1.660  10.638  18.338  0.00  0.00    +0.000 C 
ATOM     16  C   UNL     1       0.507  10.140  19.211  0.00  0.00    +0.000 C 
ATOM     17  C   UNL     1       0.065  11.164  20.253  0.00  0.00    +0.000 C 
ATOM     18  C   UNL     1       0.208  10.505  21.620  0.00  0.00    +0.000 C 
ATOM     19  C   UNL     1       0.800   9.117  21.406  0.00  0.00    +0.000 C 
ATOM     20  N   UNL     1       0.911   8.967  19.968  0.00  0.00    +0.000 N 
ENDBRANCH   3   7
BRANCH   1  21
ATOM     21  C   UNL     1       6.833   4.538  14.794  0.00  0.00    +0.000 C 
BRANCH  21  24
ATOM     22  C   UNL     1       6.331   3.508  12.604  0.00  0.00    +0.000 C 
ATOM     23  O   UNL     1       7.109   4.260  12.024  0.00  0.00    +0.000 OA
ATOM     24  N   UNL     1       6.108   3.596  13.961  0.00  0.00    +0.000 N 
ATOM     25  H   UNL     1       5.550   2.889  14.424  0.00  0.00    +0.000 HD
BRANCH  22  27
ATOM     26  C   UNL     1       4.348   3.068  11.121  0.00  0.00    +0.000 C 
ATOM     27  C   UNL     1       5.504   2.435  11.897  0.00  0.00    +0.000 C 
ATOM     28  C   UNL     1       6.367   1.595  10.957  0.00  0.00    +0.000 C 
ENDBRANCH  22  27
ENDBRANCH  21  24
ENDBRANCH   1  21
TORSDOF 4
ENDMDL
MODEL 2
REMARK VINA RESULT:      -8.5      2.245      3.074
REMARK  Name = 
REMARK  6 active torsions:
REMARK  status: ('A' for Active; 'I' for Inactive)
REMARK    1  A    between atoms: C_1  and  C_2
REMARK    2  A    between atoms: C_2  and  C_3
REMARK    3  A    between atoms: C_2  and  C_4
REMARK    4  A    between atoms: N_6  and  C_7
REMARK    5  A    between atoms: C_7  and  C_8
REMARK    6  A    between atoms: N_10  and  C_11
REMARK                            x       y       z     vdW  Elec       q    Type
REMARK                         _______ _______ _______ _____ _____    ______ ____
ROOT
ATOM      1  C   UNL     1       5.102   4.338  18.612  0.00  0.00    +0.000 C 
ATOM      2  C   UNL     1       4.796   5.802  18.839  0.00  0.00    +0.000 C 
ATOM      3  N   UNL     1       3.374   5.859  18.692  0.00  0.00    +0.000 N 
ATOM      4  C   UNL     1       2.940   4.727  18.019  0.00  0.00    +0.000 C 
ATOM      5  O   UNL     1       1.826   4.473  17.584  0.00  0.00    +0.000 OA
ATOM      6  O   UNL     1       3.996   3.871  17.824  0.00  0.00    +0.000 OA
ENDROOT
BRANCH   3   7
ATOM      7  C   UNL     1       2.602   7.007  19.000  0.00  0.00    +0.000 A 
ATOM      8  C   UNL     1       2.344   7.996  18.049  0.00  0.00    +0.000 A 
ATOM      9  C   UNL     1       1.605   9.135  18.380  0.00  0.00    +0.000 A 
ATOM     10  F   UNL     1       1.407  10.049  17.414  0.00  0.00    +0.000 F 
ATOM     11  C   UNL     1       1.105   9.354  19.670  0.00  0.00    +0.000 A 
ATOM     12  C   UNL     1       1.350   8.340  20.614  0.00  0.00    +0.000 A 
ATOM     13  C   UNL     1       2.074   7.186  20.285  0.00  0.00    +0.000 A 
ATOM     14  O   UNL     1       0.913   8.405  21.922  0.00  0.00    +0.000 OA
ATOM     15  C   UNL     1      -0.194   9.307  22.075  0.00  0.00    +0.000 C 
ATOM     16  C   UNL     1       0.093  10.669  21.441  0.00  0.00    +0.000 C 
ATOM     17  C   UNL     1      -1.116  11.600  21.459  0.00  0.00    +0.000 C 
ATOM     18  C   UNL     1      -1.409  11.984  20.014  0.00  0.00    +0.000 C 
ATOM     19  C   UNL     1      -0.426  11.233  19.125  0.00  0.00    +0.000 C 
ATOM     20  N   UNL     1       0.441  10.514  20.038  0.00  0.00    +0.000 N 
ENDBRANCH   3   7
BRANCH   1  21
ATOM     21  C   UNL     1       6.414   4.140  17.853  0.00  0.00    +0.000 C 
BRANCH  21  24
ATOM     22  C   UNL     1       6.809   5.144  15.629  0.00  0.00    +0.000 C 
ATOM     23  O   UNL     1       7.445   6.074  16.115  0.00  0.00    +0.000 OA
ATOM     24  N   UNL     1       6.236   4.165  16.412  0.00  0.00    +0.000 N 
ATOM     25  H   UNL     1       5.819   3.354  15.973  0.00  0.00    +0.000 HD
BRANCH  22  27
ATOM     26  C   UNL     1       7.833   5.186  13.332  0.00  0.00    +0.000 C 
ATOM     27  C   UNL     1       6.545   4.988  14.132  0.00  0.00    +0.000 C 
ATOM     28  C   UNL     1       5.935   3.624  13.811  0.00  0.00    +0.000 C 
ENDBRANCH  22  27
ENDBRANCH  21  24
ENDBRANCH   1  21
TORSDOF 4
ENDMDL
MODEL 3
REMARK VINA RESULT:      -8.5      1.397      2.008
REMARK  Name = 
REMARK  6 active torsions:
REMARK  status: ('A' for Active; 'I' for Inactive)
REMARK    1  A    between atoms: C_1  and  C_2
REMARK    2  A    between atoms: C_2  and  C_3
REMARK    3  A    between atoms: C_2  and  C_4
REMARK    4  A    between atoms: N_6  and  C_7
REMARK    5  A    between atoms: C_7  and  C_8
REMARK    6  A    between atoms: N_10  and  C_11
REMARK                            x       y       z     vdW  Elec       q    Type
REMARK                         _______ _______ _______ _____ _____    ______ ____
ROOT
ATOM      1  C   UNL     1       6.199   4.551  16.383  0.00  0.00    +0.000 C 
ATOM      2  C   UNL     1       5.533   5.893  16.590  0.00  0.00    +0.000 C 
ATOM      3  N   UNL     1       4.380   5.561  17.371  0.00  0.00    +0.000 N 
ATOM      4  C   UNL     1       4.125   4.203  17.252  0.00  0.00    +0.000 C 
ATOM      5  O   UNL     1       3.161   3.566  17.651  0.00  0.00    +0.000 OA
ATOM      6  O   UNL     1       5.128   3.605  16.529  0.00  0.00    +0.000 OA
ENDROOT
BRANCH   3   7
ATOM      7  C   UNL     1       3.537   6.531  17.969  0.00  0.00    +0.000 A 
ATOM      8  C   UNL     1       3.265   7.752  17.348  0.00  0.00    +0.000 A 
ATOM      9  C   UNL     1       2.454   8.707  17.966  0.00  0.00    +0.000 A 
ATOM     10  F   UNL     1       2.248   9.863  17.313  0.00  0.00    +0.000 F 
ATOM     11  C   UNL     1       1.891   8.503  19.233  0.00  0.00    +0.000 A 
ATOM     12  C   UNL     1       2.151   7.261  19.839  0.00  0.00    +0.000 A 
ATOM     13  C   UNL     1       2.948   6.290  19.217  0.00  0.00    +0.000 A 
ATOM     14  O   UNL     1       1.659   6.907  21.079  0.00  0.00    +0.000 OA
ATOM     15  C   UNL     1       0.501   7.677  21.437  0.00  0.00    +0.000 C 
ATOM     16  C   UNL     1       0.740   9.177  21.261  0.00  0.00    +0.000 C 
ATOM     17  C   UNL     1      -0.516  10.011  21.493  0.00  0.00    +0.000 C 
ATOM     18  C   UNL     1      -0.770  10.806  20.218  0.00  0.00    +0.000 C 
ATOM     19  C   UNL     1       0.287  10.399  19.199  0.00  0.00    +0.000 C 
ATOM     20  N   UNL     1       1.153   9.470  19.898  0.00  0.00    +0.000 N 
ENDBRANCH   3   7
BRANCH   1  21
ATOM     21  C   UNL     1       6.824   4.432  14.993  0.00  0.00    +0.000 C 
BRANCH  21  24
ATOM     22  C   UNL     1       6.308   3.506  12.761  0.00  0.00    +0.000 C 
ATOM     23  O   UNL     1       7.106   4.262  12.215  0.00  0.00    +0.000 OA
ATOM     24  N   UNL     1       6.080   3.543  14.118  0.00  0.00    +0.000 N 
ATOM     25  H   UNL     1       5.503   2.831  14.549  0.00  0.00    +0.000 HD
BRANCH  22  27
ATOM     26  C   UNL     1       4.365   3.183  11.195  0.00  0.00    +0.000 C 
ATOM     27  C   UNL     1       5.457   2.484  12.006  0.00  0.00    +0.000 C 
ATOM     28  C   UNL     1       6.315   1.615  11.087  0.00  0.00    +0.000 C 
ENDBRANCH  22  27
ENDBRANCH  21  24
ENDBRANCH   1  21
TORSDOF 4
ENDMDL
MODEL 4
REMARK VINA RESULT:      -8.5      0.964      1.048
REMARK  Name = 
REMARK  6 active torsions:
REMARK  status: ('A' for Active; 'I' for Inactive)
REMARK    1  A    between atoms: C_1  and  C_2
REMARK    2  A    between atoms: C_2  and  C_3
REMARK    3  A    between atoms: C_2  and  C_4
REMARK    4  A    between atoms: N_6  and  C_7
REMARK    5  A    between atoms: C_7  and  C_8
REMARK    6  A    between atoms: N_10  and  C_11
REMARK                            x       y       z     vdW  Elec       q    Type
REMARK                         _______ _______ _______ _____ _____    ______ ____
ROOT
ATOM      1  C   UNL     1       5.765   4.316  17.344  0.00  0.00    +0.000 C 
ATOM      2  C   UNL     1       5.342   5.722  17.707  0.00  0.00    +0.000 C 
ATOM      3  N   UNL     1       3.941   5.580  17.961  0.00  0.00    +0.000 N 
ATOM      4  C   UNL     1       3.491   4.400  17.388  0.00  0.00    +0.000 C 
ATOM      5  O   UNL     1       2.345   3.994  17.268  0.00  0.00    +0.000 OA
ATOM      6  O   UNL     1       4.555   3.701  16.873  0.00  0.00    +0.000 OA
ENDROOT
BRANCH   3   7
ATOM      7  C   UNL     1       3.140   6.609  18.518  0.00  0.00    +0.000 A 
ATOM      8  C   UNL     1       2.482   6.448  19.739  0.00  0.00    +0.000 A 
ATOM      9  C   UNL     1       1.674   7.463  20.258  0.00  0.00    +0.000 A 
ATOM     10  F   UNL     1       1.062   7.231  21.432  0.00  0.00    +0.000 F 
ATOM     11  C   UNL     1       1.467   8.674  19.583  0.00  0.00    +0.000 A 
ATOM     12  C   UNL     1       2.155   8.834  18.366  0.00  0.00    +0.000 A 
ATOM     13  C   UNL     1       2.982   7.829  17.848  0.00  0.00    +0.000 A 
ATOM     14  O   UNL     1       2.062   9.974  17.592  0.00  0.00    +0.000 OA
ATOM     15  C   UNL     1       1.637  11.111  18.357  0.00  0.00    +0.000 C 
ATOM     16  C   UNL     1       0.383  10.806  19.177  0.00  0.00    +0.000 C 
ATOM     17  C   UNL     1      -0.009  11.947  20.112  0.00  0.00    +0.000 C 
ATOM     18  C   UNL     1      -0.028  11.383  21.527  0.00  0.00    +0.000 C 
ATOM     19  C   UNL     1       0.419   9.928  21.453  0.00  0.00    +0.000 C 
ATOM     20  N   UNL     1       0.605   9.658  20.041  0.00  0.00    +0.000 N 
ENDBRANCH   3   7
BRANCH   1  21
ATOM     21  C   UNL     1       6.826   4.305  16.244  0.00  0.00    +0.000 C 
BRANCH  21  24
ATOM     22  C   UNL     1       6.515   4.097  13.801  0.00  0.00    +0.000 C 
ATOM     23  O   UNL     1       6.917   5.241  13.609  0.00  0.00    +0.000 OA
ATOM     24  N   UNL     1       6.405   3.566  15.066  0.00  0.00    +0.000 N 
ATOM     25  H   UNL     1       6.182   2.584  15.181  0.00  0.00    +0.000 HD
BRANCH  22  27
ATOM     26  C   UNL     1       4.759   3.664  12.053  0.00  0.00    +0.000 C 
ATOM     27  C   UNL     1       6.058   3.161  12.682  0.00  0.00    +0.000 C 
ATOM     28  C   UNL     1       7.134   3.009  11.607  0.00  0.00    +0.000 C 
ENDBRANCH  22  27
ENDBRANCH  21  24
ENDBRANCH   1  21
TORSDOF 4
ENDMDL
MODEL 5
REMARK VINA RESULT:      -8.4      2.533      3.781
REMARK  Name = 
REMARK  6 active torsions:
REMARK  status: ('A' for Active; 'I' for Inactive)
REMARK    1  A    between atoms: C_1  and  C_2
REMARK    2  A    between atoms: C_2  and  C_3
REMARK    3  A    between atoms: C_2  and  C_4
REMARK    4  A    between atoms: N_6  and  C_7
REMARK    5  A    between atoms: C_7  and  C_8
REMARK    6  A    between atoms: N_10  and  C_11
REMARK                            x       y       z     vdW  Elec       q    Type
REMARK                         _______ _______ _______ _____ _____    ______ ____
ROOT
ATOM      1  C   UNL     1       4.345   4.123  19.664  0.00  0.00    +0.000 C 
ATOM      2  C   UNL     1       4.115   5.565  19.273  0.00  0.00    +0.000 C 
ATOM      3  N   UNL     1       2.772   5.804  19.705  0.00  0.00    +0.000 N 
ATOM      4  C   UNL     1       2.130   4.589  19.889  0.00  0.00    +0.000 C 
ATOM      5  O   UNL     1       0.948   4.372  20.118  0.00  0.00    +0.000 OA
ATOM      6  O   UNL     1       3.024   3.562  19.714  0.00  0.00    +0.000 OA
ENDROOT
BRANCH   3   7
ATOM      7  C   UNL     1       2.171   7.088  19.715  0.00  0.00    +0.000 A 
ATOM      8  C   UNL     1       2.124   7.886  18.570  0.00  0.00    +0.000 A 
ATOM      9  C   UNL     1       1.553   9.161  18.606  0.00  0.00    +0.000 A 
ATOM     10  F   UNL     1       1.555   9.875  17.468  0.00  0.00    +0.000 F 
ATOM     11  C   UNL     1       1.019   9.708  19.780  0.00  0.00    +0.000 A 
ATOM     12  C   UNL     1       1.049   8.887  20.922  0.00  0.00    +0.000 A 
ATOM     13  C   UNL     1       1.604   7.600  20.889  0.00  0.00    +0.000 A 
ATOM     14  O   UNL     1       0.553   9.280  22.149  0.00  0.00    +0.000 OA
ATOM     15  C   UNL     1      -0.407  10.340  22.025  0.00  0.00    +0.000 C 
ATOM     16  C   UNL     1       0.123  11.488  21.166  0.00  0.00    +0.000 C 
ATOM     17  C   UNL     1      -0.926  12.563  20.896  0.00  0.00    +0.000 C 
ATOM     18  C   UNL     1      -1.072  12.679  19.383  0.00  0.00    +0.000 C 
ATOM     19  C   UNL     1      -0.168  11.630  18.748  0.00  0.00    +0.000 C 
ATOM     20  N   UNL     1       0.523  11.001  19.856  0.00  0.00    +0.000 N 
ENDBRANCH   3   7
BRANCH   1  21
ATOM     21  C   UNL     1       5.196   3.380  18.634  0.00  0.00    +0.000 C 
BRANCH  21  24
ATOM     22  C   UNL     1       6.463   4.501  16.832  0.00  0.00    +0.000 C 
ATOM     23  O   UNL     1       7.522   4.374  17.438  0.00  0.00    +0.000 OA
ATOM     24  N   UNL     1       5.265   4.073  17.359  0.00  0.00    +0.000 N 
ATOM     25  H   UNL     1       4.430   4.089  16.786  0.00  0.00    +0.000 HD
BRANCH  22  27
ATOM     26  C   UNL     1       6.069   4.144  14.373  0.00  0.00    +0.000 C 
ATOM     27  C   UNL     1       6.345   5.177  15.466  0.00  0.00    +0.000 C 
ATOM     28  C   UNL     1       5.250   6.244  15.464  0.00  0.00    +0.000 C 
ENDBRANCH  22  27
ENDBRANCH  21  24
ENDBRANCH   1  21
TORSDOF 4
ENDMDL
MODEL 6
REMARK VINA RESULT:      -8.3      1.316      1.674
REMARK  Name = 
REMARK  6 active torsions:
REMARK  status: ('A' for Active; 'I' for Inactive)
REMARK    1  A    between atoms: C_1  and  C_2
REMARK    2  A    between atoms: C_2  and  C_3
REMARK    3  A    between atoms: C_2  and  C_4
REMARK    4  A    between atoms: N_6  and  C_7
REMARK    5  A    between atoms: C_7  and  C_8
REMARK    6  A    between atoms: N_10  and  C_11
REMARK                            x       y       z     vdW  Elec       q    Type
REMARK                         _______ _______ _______ _____ _____    ______ ____
ROOT
ATOM      1  C   UNL     1       5.960   5.277  15.215  0.00  0.00    +0.000 C 
ATOM      2  C   UNL     1       4.717   5.300  16.076  0.00  0.00    +0.000 C 
ATOM      3  N   UNL     1       4.917   6.455  16.897  0.00  0.00    +0.000 N 
ATOM      4  C   UNL     1       6.260   6.799  16.880  0.00  0.00    +0.000 C 
ATOM      5  O   UNL     1       6.847   7.633  17.554  0.00  0.00    +0.000 OA
ATOM      6  O   UNL     1       6.932   5.998  15.990  0.00  0.00    +0.000 OA
ENDROOT
BRANCH   3   7
ATOM      7  C   UNL     1       3.917   6.991  17.747  0.00  0.00    +0.000 A 
ATOM      8  C   UNL     1       3.454   6.296  18.866  0.00  0.00    +0.000 A 
ATOM      9  C   UNL     1       2.448   6.828  19.676  0.00  0.00    +0.000 A 
ATOM     10  F   UNL     1       2.045   6.096  20.729  0.00  0.00    +0.000 F 
ATOM     11  C   UNL     1       1.843   8.063  19.405  0.00  0.00    +0.000 A 
ATOM     12  C   UNL     1       2.334   8.766  18.289  0.00  0.00    +0.000 A 
ATOM     13  C   UNL     1       3.357   8.247  17.483  0.00  0.00    +0.000 A 
ATOM     14  O   UNL     1       1.849   9.998  17.900  0.00  0.00    +0.000 OA
ATOM     15  C   UNL     1       1.198  10.685  18.979  0.00  0.00    +0.000 C 
ATOM     16  C   UNL     1       0.167   9.796  19.677  0.00  0.00    +0.000 C 
ATOM     17  C   UNL     1      -0.437  10.447  20.918  0.00  0.00    +0.000 C 
ATOM     18  C   UNL     1      -0.156   9.520  22.095  0.00  0.00    +0.000 C 
ATOM     19  C   UNL     1       0.673   8.351  21.576  0.00  0.00    +0.000 C 
ATOM     20  N   UNL     1       0.788   8.569  20.148  0.00  0.00    +0.000 N 
ENDBRANCH   3   7
BRANCH   1  21
ATOM     21  C   UNL     1       6.447   3.852  14.951  0.00  0.00    +0.000 C 
BRANCH  21  24
ATOM     22  C   UNL     1       6.380   3.584  12.495  0.00  0.00    +0.000 C 
ATOM     23  O   UNL     1       7.287   4.395  12.339  0.00  0.00    +0.000 OA
ATOM     24  N   UNL     1       5.880   3.281  13.742  0.00  0.00    +0.000 N 
ATOM     25  H   UNL     1       5.214   2.525  13.845  0.00  0.00    +0.000 HD
BRANCH  22  27
ATOM     26  C   UNL     1       5.956   1.357  11.403  0.00  0.00    +0.000 C 
ATOM     27  C   UNL     1       5.682   2.860  11.344  0.00  0.00    +0.000 C 
ATOM     28  C   UNL     1       4.176   3.117  11.355  0.00  0.00    +0.000 C 
ENDBRANCH  22  27
ENDBRANCH  21  24
ENDBRANCH   1  21
TORSDOF 4
ENDMDL
MODEL 7
REMARK VINA RESULT:      -8.1      3.312      4.394
REMARK  Name = 
REMARK  6 active torsions:
REMARK  status: ('A' for Active; 'I' for Inactive)
REMARK    1  A    between atoms: C_1  and  C_2
REMARK    2  A    between atoms: C_2  and  C_3
REMARK    3  A    between atoms: C_2  and  C_4
REMARK    4  A    between atoms: N_6  and  C_7
REMARK    5  A    between atoms: C_7  and  C_8
REMARK    6  A    between atoms: N_10  and  C_11
REMARK                            x       y       z     vdW  Elec       q    Type
REMARK                         _______ _______ _______ _____ _____    ______ ____
ROOT
ATOM      1  C   UNL     1       3.770   3.836  19.628  0.00  0.00    +0.000 C 
ATOM      2  C   UNL     1       3.777   5.327  19.878  0.00  0.00    +0.000 C 
ATOM      3  N   UNL     1       2.568   5.764  19.249  0.00  0.00    +0.000 N 
ATOM      4  C   UNL     1       2.142   4.791  18.357  0.00  0.00    +0.000 C 
ATOM      5  O   UNL     1       1.237   4.845  17.537  0.00  0.00    +0.000 OA
ATOM      6  O   UNL     1       2.948   3.684  18.460  0.00  0.00    +0.000 OA
ENDROOT
BRANCH   3   7
ATOM      7  C   UNL     1       2.049   7.076  19.380  0.00  0.00    +0.000 A 
ATOM      8  C   UNL     1       2.072   7.985  18.320  0.00  0.00    +0.000 A 
ATOM      9  C   UNL     1       1.581   9.284  18.477  0.00  0.00    +0.000 A 
ATOM     10  F   UNL     1       1.648  10.105  17.416  0.00  0.00    +0.000 F 
ATOM     11  C   UNL     1       1.063   9.746  19.695  0.00  0.00    +0.000 A 
ATOM     12  C   UNL     1       1.022   8.815  20.748  0.00  0.00    +0.000 A 
ATOM     13  C   UNL     1       1.495   7.504  20.593  0.00  0.00    +0.000 A 
ATOM     14  O   UNL     1       0.531   9.116  22.003  0.00  0.00    +0.000 OA
ATOM     15  C   UNL     1      -0.359  10.242  21.976  0.00  0.00    +0.000 C 
ATOM     16  C   UNL     1       0.257  11.434  21.241  0.00  0.00    +0.000 C 
ATOM     17  C   UNL     1      -0.717  12.595  21.068  0.00  0.00    +0.000 C 
ATOM     18  C   UNL     1      -0.831  12.869  19.573  0.00  0.00    +0.000 C 
ATOM     19  C   UNL     1       0.017  11.833  18.846  0.00  0.00    +0.000 C 
ATOM     20  N   UNL     1       0.648  11.054  19.893  0.00  0.00    +0.000 N 
ENDBRANCH   3   7
BRANCH   1  21
ATOM     21  C   UNL     1       5.174   3.295  19.360  0.00  0.00    +0.000 C 
BRANCH  21  24
ATOM     22  C   UNL     1       6.870   4.965  18.697  0.00  0.00    +0.000 C 
ATOM     23  O   UNL     1       7.148   5.211  19.867  0.00  0.00    +0.000 OA
ATOM     24  N   UNL     1       5.888   4.062  18.355  0.00  0.00    +0.000 N 
ATOM     25  H   UNL     1       5.765   3.799  17.385  0.00  0.00    +0.000 HD
BRANCH  22  27
ATOM     26  C   UNL     1       6.896   5.203  16.192  0.00  0.00    +0.000 C 
ATOM     27  C   UNL     1       7.538   5.652  17.505  0.00  0.00    +0.000 C 
ATOM     28  C   UNL     1       7.466   7.174  17.627  0.00  0.00    +0.000 C 
ENDBRANCH  22  27
ENDBRANCH  21  24
ENDBRANCH   1  21
TORSDOF 4
ENDMDL
MODEL 8
REMARK VINA RESULT:      -8.1      2.399      3.491
REMARK  Name = 
REMARK  6 active torsions:
REMARK  status: ('A' for Active; 'I' for Inactive)
REMARK    1  A    between atoms: C_1  and  C_2
REMARK    2  A    between atoms: C_2  and  C_3
REMARK    3  A    between atoms: C_2  and  C_4
REMARK    4  A    between atoms: N_6  and  C_7
REMARK    5  A    between atoms: C_7  and  C_8
REMARK    6  A    between atoms: N_10  and  C_11
REMARK                            x       y       z     vdW  Elec       q    Type
REMARK                         _______ _______ _______ _____ _____    ______ ____
ROOT
ATOM      1  C   UNL     1       4.101   3.814  19.738  0.00  0.00    +0.000 C 
ATOM      2  C   UNL     1       3.951   5.290  19.448  0.00  0.00    +0.000 C 
ATOM      3  N   UNL     1       2.612   5.567  19.872  0.00  0.00    +0.000 N 
ATOM      4  C   UNL     1       1.907   4.376  19.955  0.00  0.00    +0.000 C 
ATOM      5  O   UNL     1       0.711   4.204  20.147  0.00  0.00    +0.000 OA
ATOM      6  O   UNL     1       2.752   3.319  19.723  0.00  0.00    +0.000 OA
ENDROOT
BRANCH   3   7
ATOM      7  C   UNL     1       2.076   6.876  19.963  0.00  0.00    +0.000 A 
ATOM      8  C   UNL     1       1.351   7.296  21.079  0.00  0.00    +0.000 A 
ATOM      9  C   UNL     1       0.806   8.582  21.139  0.00  0.00    +0.000 A 
ATOM     10  F   UNL     1       0.110   8.911  22.240  0.00  0.00    +0.000 F 
ATOM     11  C   UNL     1       0.940   9.500  20.089  0.00  0.00    +0.000 A 
ATOM     12  C   UNL     1       1.694   9.075  18.980  0.00  0.00    +0.000 A 
ATOM     13  C   UNL     1       2.259   7.794  18.921  0.00  0.00    +0.000 A 
ATOM     14  O   UNL     1       1.923   9.868  17.874  0.00  0.00    +0.000 OA
ATOM     15  C   UNL     1       1.770  11.264  18.173  0.00  0.00    +0.000 C 
ATOM     16  C   UNL     1       0.448  11.550  18.886  0.00  0.00    +0.000 C 
ATOM     17  C   UNL     1       0.320  12.999  19.346  0.00  0.00    +0.000 C 
ATOM     18  C   UNL     1       0.103  12.975  20.854  0.00  0.00    +0.000 C 
ATOM     19  C   UNL     1       0.170  11.522  21.309  0.00  0.00    +0.000 C 
ATOM     20  N   UNL     1       0.338  10.749  20.094  0.00  0.00    +0.000 N 
ENDBRANCH   3   7
BRANCH   1  21
ATOM     21  C   UNL     1       4.936   3.104  18.672  0.00  0.00    +0.000 C 
BRANCH  21  24
ATOM     22  C   UNL     1       6.401   4.480  17.234  0.00  0.00    +0.000 C 
ATOM     23  O   UNL     1       7.348   4.352  18.004  0.00  0.00    +0.000 OA
ATOM     24  N   UNL     1       5.167   3.928  17.500  0.00  0.00    +0.000 N 
ATOM     25  H   UNL     1       4.444   3.955  16.791  0.00  0.00    +0.000 HD
BRANCH  22  27
ATOM     26  C   UNL     1       6.566   4.357  14.727  0.00  0.00    +0.000 C 
ATOM     27  C   UNL     1       6.466   5.286  15.937  0.00  0.00    +0.000 C 
ATOM     28  C   UNL     1       5.254   6.205  15.791  0.00  0.00    +0.000 C 
ENDBRANCH  22  27
ENDBRANCH  21  24
ENDBRANCH   1  21
TORSDOF 4
ENDMDL
MODEL 9
REMARK VINA RESULT:      -7.9      1.901      2.649
REMARK  Name = 
REMARK  6 active torsions:
REMARK  status: ('A' for Active; 'I' for Inactive)
REMARK    1  A    between atoms: C_1  and  C_2
REMARK    2  A    between atoms: C_2  and  C_3
REMARK    3  A    between atoms: C_2  and  C_4
REMARK    4  A    between atoms: N_6  and  C_7
REMARK    5  A    between atoms: C_7  and  C_8
REMARK    6  A    between atoms: N_10  and  C_11
REMARK                            x       y       z     vdW  Elec       q    Type
REMARK                         _______ _______ _______ _____ _____    ______ ____
ROOT
ATOM      1  C   UNL     1       4.604   4.169  18.925  0.00  0.00    +0.000 C 
ATOM      2  C   UNL     1       4.403   5.643  19.191  0.00  0.00    +0.000 C 
ATOM      3  N   UNL     1       2.980   5.789  19.129  0.00  0.00    +0.000 N 
ATOM      4  C   UNL     1       2.439   4.697  18.467  0.00  0.00    +0.000 C 
ATOM      5  O   UNL     1       1.288   4.519  18.096  0.00  0.00    +0.000 OA
ATOM      6  O   UNL     1       3.428   3.783  18.197  0.00  0.00    +0.000 OA
ENDROOT
BRANCH   3   7
ATOM      7  C   UNL     1       2.300   6.976  19.499  0.00  0.00    +0.000 A 
ATOM      8  C   UNL     1       1.655   7.100  20.732  0.00  0.00    +0.000 A 
ATOM      9  C   UNL     1       0.965   8.268  21.067  0.00  0.00    +0.000 A 
ATOM     10  F   UNL     1       0.360   8.309  22.266  0.00  0.00    +0.000 F 
ATOM     11  C   UNL     1       0.868   9.357  20.191  0.00  0.00    +0.000 A 
ATOM     12  C   UNL     1       1.542   9.231  18.963  0.00  0.00    +0.000 A 
ATOM     13  C   UNL     1       2.251   8.070  18.626  0.00  0.00    +0.000 A 
ATOM     14  O   UNL     1       1.548  10.221  18.000  0.00  0.00    +0.000 OA
ATOM     15  C   UNL     1       1.257  11.512  18.556  0.00  0.00    +0.000 C 
ATOM     16  C   UNL     1      -0.004  11.487  19.421  0.00  0.00    +0.000 C 
ATOM     17  C   UNL     1      -0.258  12.807  20.142  0.00  0.00    +0.000 C 
ATOM     18  C   UNL     1      -0.302  12.504  21.634  0.00  0.00    +0.000 C 
ATOM     19  C   UNL     1      -0.007  11.020  21.815  0.00  0.00    +0.000 C 
ATOM     20  N   UNL     1       0.120  10.490  20.472  0.00  0.00    +0.000 N 
ENDBRANCH   3   7
BRANCH   1  21
ATOM     21  C   UNL     1       5.855   3.905  18.086  0.00  0.00    +0.000 C 
BRANCH  21  24
ATOM     22  C   UNL     1       6.761   4.547  15.878  0.00  0.00    +0.000 C 
ATOM     23  O   UNL     1       7.913   4.546  16.303  0.00  0.00    +0.000 OA
ATOM     24  N   UNL     1       5.684   4.277  16.693  0.00  0.00    +0.000 N 
ATOM     25  H   UNL     1       4.762   4.174  16.286  0.00  0.00    +0.000 HD
BRANCH  22  27
ATOM     26  C   UNL     1       7.643   5.194  13.612  0.00  0.00    +0.000 C 
ATOM     27  C   UNL     1       6.391   4.885  14.434  0.00  0.00    +0.000 C 
ATOM     28  C   UNL     1       5.604   3.750  13.780  0.00  0.00    +0.000 C 
ENDBRANCH  22  27
ENDBRANCH  21  24
ENDBRANCH   1  21
TORSDOF 4
ENDMDL
