MODEL 1
REMARK VINA RESULT:      -8.1      0.000      0.000
REMARK  Name = 
REMARK  6 active torsions:
REMARK  status: ('A' for Active; 'I' for Inactive)
REMARK    1  A    between atoms: C_1  and  C_2
REMARK    2  A    between atoms: C_4  and  N_5
REMARK    3  A    between atoms: C_9  and  C_10
REMARK    4  A    between atoms: N_11  and  N_12
REMARK    5  A    between atoms: C_13  and  C_14
REMARK    6  A    between atoms: C_24  and  O_25
REMARK                            x       y       z     vdW  Elec       q    Type
REMARK                         _______ _______ _______ _____ _____    ______ ____
ROOT
ATOM      1  C   UNL     1       5.553   3.860  15.972  0.00  0.00    +0.000 C 
ATOM      2  N   UNL     1       4.708   4.712  16.466  0.00  0.00    +0.000 NA
ENDROOT
BRANCH   2   3
ATOM      3  N   UNL     1       4.159   4.409  17.715  0.00  0.00    +0.000 N 
ATOM      4  C   UNL     1       4.717   5.009  18.836  0.00  0.00    +0.000 A 
ATOM      5  C   UNL     1       5.957   5.861  18.678  0.00  0.00    +0.000 C 
ATOM      6  N   UNL     1       4.253   4.864  20.039  0.00  0.00    +0.000 NA
ATOM      7  C   UNL     1       3.092   4.106  20.223  0.00  0.00    +0.000 A 
ATOM      8  C   UNL     1       2.569   3.972  21.511  0.00  0.00    +0.000 A 
ATOM      9  C   UNL     1       1.377   3.274  21.728  0.00  0.00    +0.000 A 
ATOM     10  C   UNL     1       0.703   2.689  20.658  0.00  0.00    +0.000 A 
ATOM     11  C   UNL     1       1.224   2.801  19.370  0.00  0.00    +0.000 A 
ATOM     12  C   UNL     1       2.412   3.514  19.163  0.00  0.00    +0.000 A 
ATOM     13  C   UNL     1       2.951   3.697  17.806  0.00  0.00    +0.000 A 
ATOM     14  O   UNL     1       2.300   3.257  16.857  0.00  0.00    +0.000 OA
ENDBRANCH   2   3
BRANCH   1  20
ATOM     15  C   UNL     1       8.725   5.979  12.653  0.00  0.00    +0.000 C 
ATOM     16  C   UNL     1       7.632   5.005  12.989  0.00  0.00    +0.000 A 
ATOM     17  C   UNL     1       7.125   4.146  12.001  0.00  0.00    +0.000 A 
ATOM     18  C   UNL     1       6.104   3.239  12.319  0.00  0.00    +0.000 A 
ATOM     19  C   UNL     1       5.591   3.160  13.620  0.00  0.00    +0.000 A 
ATOM     20  C   UNL     1       6.108   4.004  14.609  0.00  0.00    +0.000 A 
ATOM     21  C   UNL     1       7.108   4.935  14.289  0.00  0.00    +0.000 A 
BRANCH  18  22
ATOM     22  N   UNL     1       5.566   2.349  11.278  0.00  0.00    +0.000 N 
ATOM     23  O   UNL     1       6.290   1.426  10.878  0.00  0.00    +0.000 OA
ATOM     24  O   UNL     1       4.417   2.571  10.868  0.00  0.00    +0.000 OA
ENDBRANCH  18  22
BRANCH  21  25
ATOM     25  O   UNL     1       7.609   5.812  15.214  0.00  0.00    +0.000 OA
ATOM     26  H   UNL     1       7.903   5.297  15.993  0.00  0.00    +0.000 HD
ENDBRANCH  21  25
ENDBRANCH   1  20
TORSDOF 4
ENDMDL
MODEL 2
REMARK VINA RESULT:      -8.0      4.717      6.476
REMARK  Name = 
REMARK  6 active torsions:
REMARK  status: ('A' for Active; 'I' for Inactive)
REMARK    1  A    between atoms: C_1  and  C_2
REMARK    2  A    between atoms: C_4  and  N_5
REMARK    3  A    between atoms: C_9  and  C_10
REMARK    4  A    between atoms: N_11  and  N_12
REMARK    5  A    between atoms: C_13  and  C_14
REMARK    6  A    between atoms: C_24  and  O_25
REMARK                            x       y       z     vdW  Elec       q    Type
REMARK                         _______ _______ _______ _____ _____    ______ ____
ROOT
ATOM      1  C   UNL     1       3.232   6.998  19.098  0.00  0.00    +0.000 C 
ATOM      2  N   UNL     1       2.106   7.516  18.716  0.00  0.00    +0.000 NA
ENDROOT
BRANCH   2   3
ATOM      3  N   UNL     1       1.581   8.545  19.502  0.00  0.00    +0.000 N 
ATOM      4  C   UNL     1       1.486   9.812  18.942  0.00  0.00    +0.000 A 
ATOM      5  C   UNL     1       2.058  10.054  17.562  0.00  0.00    +0.000 C 
ATOM      6  N   UNL     1       0.953  10.830  19.543  0.00  0.00    +0.000 NA
ATOM      7  C   UNL     1       0.390  10.641  20.810  0.00  0.00    +0.000 A 
ATOM      8  C   UNL     1      -0.214  11.725  21.450  0.00  0.00    +0.000 A 
ATOM      9  C   UNL     1      -0.843  11.563  22.689  0.00  0.00    +0.000 A 
ATOM     10  C   UNL     1      -0.860  10.314  23.307  0.00  0.00    +0.000 A 
ATOM     11  C   UNL     1      -0.246   9.228  22.686  0.00  0.00    +0.000 A 
ATOM     12  C   UNL     1       0.369   9.399  21.440  0.00  0.00    +0.000 A 
ATOM     13  C   UNL     1       0.972   8.256  20.735  0.00  0.00    +0.000 A 
ATOM     14  O   UNL     1       0.870   7.140  21.246  0.00  0.00    +0.000 OA
ENDBRANCH   2   3
BRANCH   1  20
ATOM     15  C   UNL     1       3.001   2.234  17.419  0.00  0.00    +0.000 C 
ATOM     16  C   UNL     1       3.738   3.531  17.597  0.00  0.00    +0.000 A 
ATOM     17  C   UNL     1       5.030   3.684  17.071  0.00  0.00    +0.000 A 
ATOM     18  C   UNL     1       5.716   4.896  17.241  0.00  0.00    +0.000 A 
ATOM     19  C   UNL     1       5.121   5.971  17.914  0.00  0.00    +0.000 A 
ATOM     20  C   UNL     1       3.826   5.824  18.424  0.00  0.00    +0.000 A 
ATOM     21  C   UNL     1       3.148   4.603  18.283  0.00  0.00    +0.000 A 
BRANCH  18  22
ATOM     22  N   UNL     1       7.075   5.049  16.700  0.00  0.00    +0.000 N 
ATOM     23  O   UNL     1       7.237   5.849  15.767  0.00  0.00    +0.000 OA
ATOM     24  O   UNL     1       7.979   4.375  17.214  0.00  0.00    +0.000 OA
ENDBRANCH  18  22
BRANCH  21  25
ATOM     25  O   UNL     1       1.899   4.399  18.807  0.00  0.00    +0.000 OA
ATOM     26  H   UNL     1       1.691   3.445  18.732  0.00  0.00    +0.000 HD
ENDBRANCH  21  25
ENDBRANCH   1  20
TORSDOF 4
ENDMDL
MODEL 3
REMARK VINA RESULT:      -7.9      0.909      1.109
REMARK  Name = 
REMARK  6 active torsions:
REMARK  status: ('A' for Active; 'I' for Inactive)
REMARK    1  A    between atoms: C_1  and  C_2
REMARK    2  A    between atoms: C_4  and  N_5
REMARK    3  A    between atoms: C_9  and  C_10
REMARK    4  A    between atoms: N_11  and  N_12
REMARK    5  A    between atoms: C_13  and  C_14
REMARK    6  A    between atoms: C_24  and  O_25
REMARK                            x       y       z     vdW  Elec       q    Type
REMARK                         _______ _______ _______ _____ _____    ______ ____
ROOT
ATOM      1  C   UNL     1       5.511   4.325  16.038  0.00  0.00    +0.000 C 
ATOM      2  N   UNL     1       4.325   4.793  16.285  0.00  0.00    +0.000 NA
ENDROOT
BRANCH   2   3
ATOM      3  N   UNL     1       3.846   4.649  17.589  0.00  0.00    +0.000 N 
ATOM      4  C   UNL     1       3.589   5.801  18.321  0.00  0.00    +0.000 A 
ATOM      5  C   UNL     1       3.948   7.147  17.730  0.00  0.00    +0.000 C 
ATOM      6  N   UNL     1       3.077   5.800  19.513  0.00  0.00    +0.000 NA
ATOM      7  C   UNL     1       2.707   4.577  20.083  0.00  0.00    +0.000 A 
ATOM      8  C   UNL     1       2.126   4.572  21.353  0.00  0.00    +0.000 A 
ATOM      9  C   UNL     1       1.686   3.377  21.931  0.00  0.00    +0.000 A 
ATOM     10  C   UNL     1       1.839   2.171  21.250  0.00  0.00    +0.000 A 
ATOM     11  C   UNL     1       2.433   2.161  19.989  0.00  0.00    +0.000 A 
ATOM     12  C   UNL     1       2.857   3.366  19.414  0.00  0.00    +0.000 A 
ATOM     13  C   UNL     1       3.434   3.391  18.060  0.00  0.00    +0.000 A 
ATOM     14  O   UNL     1       3.479   2.334  17.428  0.00  0.00    +0.000 OA
ENDBRANCH   2   3
BRANCH   1  20
ATOM     15  C   UNL     1       8.890   5.840  12.594  0.00  0.00    +0.000 C 
ATOM     16  C   UNL     1       7.701   5.014  12.995  0.00  0.00    +0.000 A 
ATOM     17  C   UNL     1       7.108   4.140  12.070  0.00  0.00    +0.000 A 
ATOM     18  C   UNL     1       5.996   3.372  12.448  0.00  0.00    +0.000 A 
ATOM     19  C   UNL     1       5.477   3.447  13.746  0.00  0.00    +0.000 A 
ATOM     20  C   UNL     1       6.078   4.305  14.673  0.00  0.00    +0.000 A 
ATOM     21  C   UNL     1       7.171   5.099  14.291  0.00  0.00    +0.000 A 
BRANCH  18  22
ATOM     22  N   UNL     1       5.369   2.465  11.473  0.00  0.00    +0.000 N 
ATOM     23  O   UNL     1       4.239   2.759  11.057  0.00  0.00    +0.000 OA
ATOM     24  O   UNL     1       6.012   1.466  11.120  0.00  0.00    +0.000 OA
ENDBRANCH  18  22
BRANCH  21  25
ATOM     25  O   UNL     1       7.761   5.988  15.151  0.00  0.00    +0.000 OA
ATOM     26  H   UNL     1       7.083   6.638  15.427  0.00  0.00    +0.000 HD
ENDBRANCH  21  25
ENDBRANCH   1  20
TORSDOF 4
ENDMDL
MODEL 4
REMARK VINA RESULT:      -7.8      2.682      7.974
REMARK  Name = 
REMARK  6 active torsions:
REMARK  status: ('A' for Active; 'I' for Inactive)
REMARK    1  A    between atoms: C_1  and  C_2
REMARK    2  A    between atoms: C_4  and  N_5
REMARK    3  A    between atoms: C_9  and  C_10
REMARK    4  A    between atoms: N_11  and  N_12
REMARK    5  A    between atoms: C_13  and  C_14
REMARK    6  A    between atoms: C_24  and  O_25
REMARK                            x       y       z     vdW  Elec       q    Type
REMARK                         _______ _______ _______ _____ _____    ______ ____
ROOT
ATOM      1  C   UNL     1       3.835   5.946  17.689  0.00  0.00    +0.000 C 
ATOM      2  N   UNL     1       4.962   5.304  17.655  0.00  0.00    +0.000 NA
ENDROOT
BRANCH   2   3
ATOM      3  N   UNL     1       5.617   5.236  16.423  0.00  0.00    +0.000 N 
ATOM      4  C   UNL     1       6.857   5.850  16.307  0.00  0.00    +0.000 A 
ATOM      5  C   UNL     1       7.389   6.663  17.468  0.00  0.00    +0.000 C 
ATOM      6  N   UNL     1       7.593   5.798  15.241  0.00  0.00    +0.000 NA
ATOM      7  C   UNL     1       7.148   5.035  14.156  0.00  0.00    +0.000 A 
ATOM      8  C   UNL     1       7.950   4.946  13.016  0.00  0.00    +0.000 A 
ATOM      9  C   UNL     1       7.570   4.145  11.936  0.00  0.00    +0.000 A 
ATOM     10  C   UNL     1       6.372   3.434  11.979  0.00  0.00    +0.000 A 
ATOM     11  C   UNL     1       5.554   3.526  13.103  0.00  0.00    +0.000 A 
ATOM     12  C   UNL     1       5.952   4.322  14.185  0.00  0.00    +0.000 A 
ATOM     13  C   UNL     1       5.136   4.390  15.408  0.00  0.00    +0.000 A 
ATOM     14  O   UNL     1       4.128   3.686  15.474  0.00  0.00    +0.000 OA
ENDBRANCH   2   3
BRANCH   1  20
ATOM     15  C   UNL     1       0.896   8.393  20.997  0.00  0.00    +0.000 C 
ATOM     16  C   UNL     1       1.560   7.139  20.506  0.00  0.00    +0.000 A 
ATOM     17  C   UNL     1       1.351   5.922  21.175  0.00  0.00    +0.000 A 
ATOM     18  C   UNL     1       1.975   4.754  20.714  0.00  0.00    +0.000 A 
ATOM     19  C   UNL     1       2.792   4.775  19.577  0.00  0.00    +0.000 A 
ATOM     20  C   UNL     1       2.988   5.983  18.900  0.00  0.00    +0.000 A 
ATOM     21  C   UNL     1       2.391   7.162  19.375  0.00  0.00    +0.000 A 
BRANCH  18  22
ATOM     22  N   UNL     1       1.763   3.483  21.425  0.00  0.00    +0.000 N 
ATOM     23  O   UNL     1       0.907   2.707  20.977  0.00  0.00    +0.000 OA
ATOM     24  O   UNL     1       2.460   3.261  22.426  0.00  0.00    +0.000 OA
ENDBRANCH  18  22
BRANCH  21  25
ATOM     25  O   UNL     1       2.593   8.375  18.772  0.00  0.00    +0.000 OA
ATOM     26  H   UNL     1       3.265   8.257  18.069  0.00  0.00    +0.000 HD
ENDBRANCH  21  25
ENDBRANCH   1  20
TORSDOF 4
ENDMDL
MODEL 5
REMARK VINA RESULT:      -7.7      5.960      8.310
REMARK  Name = 
REMARK  6 active torsions:
REMARK  status: ('A' for Active; 'I' for Inactive)
REMARK    1  A    between atoms: C_1  and  C_2
REMARK    2  A    between atoms: C_4  and  N_5
REMARK    3  A    between atoms: C_9  and  C_10
REMARK    4  A    between atoms: N_11  and  N_12
REMARK    5  A    between atoms: C_13  and  C_14
REMARK    6  A    between atoms: C_24  and  O_25
REMARK                            x       y       z     vdW  Elec       q    Type
REMARK                         _______ _______ _______ _____ _____    ______ ____
ROOT
ATOM      1  C   UNL     1       1.365   7.193  20.365  0.00  0.00    +0.000 C 
ATOM      2  N   UNL     1       1.816   8.401  20.216  0.00  0.00    +0.000 NA
ENDROOT
BRANCH   2   3
ATOM      3  N   UNL     1       0.914   9.446  20.426  0.00  0.00    +0.000 N 
ATOM      4  C   UNL     1       0.360  10.065  19.314  0.00  0.00    +0.000 A 
ATOM      5  C   UNL     1       0.842   9.672  17.934  0.00  0.00    +0.000 C 
ATOM      6  N   UNL     1      -0.540  10.997  19.378  0.00  0.00    +0.000 NA
ATOM      7  C   UNL     1      -1.030  11.370  20.634  0.00  0.00    +0.000 A 
ATOM      8  C   UNL     1      -2.023  12.349  20.709  0.00  0.00    +0.000 A 
ATOM      9  C   UNL     1      -2.582  12.705  21.940  0.00  0.00    +0.000 A 
ATOM     10  C   UNL     1      -2.142  12.094  23.113  0.00  0.00    +0.000 A 
ATOM     11  C   UNL     1      -1.140  11.127  23.053  0.00  0.00    +0.000 A 
ATOM     12  C   UNL     1      -0.596  10.769  21.813  0.00  0.00    +0.000 A 
ATOM     13  C   UNL     1       0.420   9.709  21.716  0.00  0.00    +0.000 A 
ATOM     14  O   UNL     1       0.735   9.110  22.745  0.00  0.00    +0.000 OA
ENDBRANCH   2   3
BRANCH   1  20
ATOM     15  C   UNL     1       4.812   4.769  17.571  0.00  0.00    +0.000 C 
ATOM     16  C   UNL     1       3.851   4.814  18.724  0.00  0.00    +0.000 A 
ATOM     17  C   UNL     1       3.736   3.714  19.588  0.00  0.00    +0.000 A 
ATOM     18  C   UNL     1       2.836   3.760  20.663  0.00  0.00    +0.000 A 
ATOM     19  C   UNL     1       2.059   4.901  20.902  0.00  0.00    +0.000 A 
ATOM     20  C   UNL     1       2.185   6.003  20.051  0.00  0.00    +0.000 A 
ATOM     21  C   UNL     1       3.062   5.951  18.956  0.00  0.00    +0.000 A 
BRANCH  18  22
ATOM     22  N   UNL     1       2.708   2.601  21.560  0.00  0.00    +0.000 N 
ATOM     23  O   UNL     1       3.705   1.881  21.717  0.00  0.00    +0.000 OA
ATOM     24  O   UNL     1       1.613   2.418  22.112  0.00  0.00    +0.000 OA
ENDBRANCH  18  22
BRANCH  21  25
ATOM     25  O   UNL     1       3.183   6.988  18.070  0.00  0.00    +0.000 OA
ATOM     26  H   UNL     1       3.553   7.757  18.551  0.00  0.00    +0.000 HD
ENDBRANCH  21  25
ENDBRANCH   1  20
TORSDOF 4
ENDMDL
MODEL 6
REMARK VINA RESULT:      -7.7      2.835      8.280
REMARK  Name = 
REMARK  6 active torsions:
REMARK  status: ('A' for Active; 'I' for Inactive)
REMARK    1  A    between atoms: C_1  and  C_2
REMARK    2  A    between atoms: C_4  and  N_5
REMARK    3  A    between atoms: C_9  and  C_10
REMARK    4  A    between atoms: N_11  and  N_12
REMARK    5  A    between atoms: C_13  and  C_14
REMARK    6  A    between atoms: C_24  and  O_25
REMARK                            x       y       z     vdW  Elec       q    Type
REMARK                         _______ _______ _______ _____ _____    ______ ____
ROOT
ATOM      1  C   UNL     1       3.850   5.836  17.655  0.00  0.00    +0.000 C 
ATOM      2  N   UNL     1       4.989   5.214  17.615  0.00  0.00    +0.000 NA
ENDROOT
BRANCH   2   3
ATOM      3  N   UNL     1       5.647   5.174  16.383  0.00  0.00    +0.000 N 
ATOM      4  C   UNL     1       6.880   5.804  16.281  0.00  0.00    +0.000 A 
ATOM      5  C   UNL     1       7.401   6.602  17.456  0.00  0.00    +0.000 C 
ATOM      6  N   UNL     1       7.619   5.777  15.215  0.00  0.00    +0.000 NA
ATOM      7  C   UNL     1       7.184   5.028  14.116  0.00  0.00    +0.000 A 
ATOM      8  C   UNL     1       7.990   4.968  12.977  0.00  0.00    +0.000 A 
ATOM      9  C   UNL     1       7.620   4.181  11.882  0.00  0.00    +0.000 A 
ATOM     10  C   UNL     1       6.430   3.457  11.911  0.00  0.00    +0.000 A 
ATOM     11  C   UNL     1       5.609   3.521  13.035  0.00  0.00    +0.000 A 
ATOM     12  C   UNL     1       5.996   4.302  14.131  0.00  0.00    +0.000 A 
ATOM     13  C   UNL     1       5.177   4.341  15.354  0.00  0.00    +0.000 A 
ATOM     14  O   UNL     1       4.176   3.625  15.405  0.00  0.00    +0.000 OA
ENDBRANCH   2   3
BRANCH   1  20
ATOM     15  C   UNL     1       1.556   3.487  21.500  0.00  0.00    +0.000 C 
ATOM     16  C   UNL     1       1.890   4.734  20.733  0.00  0.00    +0.000 A 
ATOM     17  C   UNL     1       1.430   5.982  21.183  0.00  0.00    +0.000 A 
ATOM     18  C   UNL     1       1.743   7.144  20.463  0.00  0.00    +0.000 A 
ATOM     19  C   UNL     1       2.529   7.083  19.305  0.00  0.00    +0.000 A 
ATOM     20  C   UNL     1       3.001   5.842  18.865  0.00  0.00    +0.000 A 
ATOM     21  C   UNL     1       2.665   4.673  19.565  0.00  0.00    +0.000 A 
BRANCH  18  22
ATOM     22  N   UNL     1       1.250   8.450  20.931  0.00  0.00    +0.000 N 
ATOM     23  O   UNL     1       0.922   9.282  20.073  0.00  0.00    +0.000 OA
ATOM     24  O   UNL     1       1.184   8.635  22.154  0.00  0.00    +0.000 OA
ENDBRANCH  18  22
BRANCH  21  25
ATOM     25  O   UNL     1       3.065   3.432  19.144  0.00  0.00    +0.000 OA
ATOM     26  H   UNL     1       3.503   3.533  18.274  0.00  0.00    +0.000 HD
ENDBRANCH  21  25
ENDBRANCH   1  20
TORSDOF 4
ENDMDL
MODEL 7
REMARK VINA RESULT:      -7.7      5.693      9.436
REMARK  Name = 
REMARK  6 active torsions:
REMARK  status: ('A' for Active; 'I' for Inactive)
REMARK    1  A    between atoms: C_1  and  C_2
REMARK    2  A    between atoms: C_4  and  N_5
REMARK    3  A    between atoms: C_9  and  C_10
REMARK    4  A    between atoms: N_11  and  N_12
REMARK    5  A    between atoms: C_13  and  C_14
REMARK    6  A    between atoms: C_24  and  O_25
REMARK                            x       y       z     vdW  Elec       q    Type
REMARK                         _______ _______ _______ _____ _____    ______ ____
ROOT
ATOM      1  C   UNL     1       1.619   8.456  19.030  0.00  0.00    +0.000 C 
ATOM      2  N   UNL     1       2.129   7.475  19.709  0.00  0.00    +0.000 NA
ENDROOT
BRANCH   2   3
ATOM      3  N   UNL     1       2.923   6.564  19.009  0.00  0.00    +0.000 N 
ATOM      4  C   UNL     1       2.817   5.218  19.336  0.00  0.00    +0.000 A 
ATOM      5  C   UNL     1       1.948   4.810  20.506  0.00  0.00    +0.000 C 
ATOM      6  N   UNL     1       3.446   4.271  18.713  0.00  0.00    +0.000 NA
ATOM      7  C   UNL     1       4.239   4.606  17.609  0.00  0.00    +0.000 A 
ATOM      8  C   UNL     1       4.893   3.588  16.913  0.00  0.00    +0.000 A 
ATOM      9  C   UNL     1       5.645   3.874  15.769  0.00  0.00    +0.000 A 
ATOM     10  C   UNL     1       5.761   5.188  15.319  0.00  0.00    +0.000 A 
ATOM     11  C   UNL     1       5.126   6.215  16.014  0.00  0.00    +0.000 A 
ATOM     12  C   UNL     1       4.365   5.914  17.151  0.00  0.00    +0.000 A 
ATOM     13  C   UNL     1       3.636   6.973  17.869  0.00  0.00    +0.000 A 
ATOM     14  O   UNL     1       3.669   8.115  17.409  0.00  0.00    +0.000 OA
ENDBRANCH   2   3
BRANCH   1  20
ATOM     15  C   UNL     1      -1.978  11.989  18.648  0.00  0.00    +0.000 C 
ATOM     16  C   UNL     1      -1.077  11.115  19.471  0.00  0.00    +0.000 A 
ATOM     17  C   UNL     1      -1.152  11.149  20.873  0.00  0.00    +0.000 A 
ATOM     18  C   UNL     1      -0.307  10.331  21.639  0.00  0.00    +0.000 A 
ATOM     19  C   UNL     1       0.602   9.461  21.025  0.00  0.00    +0.000 A 
ATOM     20  C   UNL     1       0.665   9.414  19.628  0.00  0.00    +0.000 A 
ATOM     21  C   UNL     1      -0.156  10.252  18.858  0.00  0.00    +0.000 A 
BRANCH  18  22
ATOM     22  N   UNL     1      -0.379  10.379  23.108  0.00  0.00    +0.000 N 
ATOM     23  O   UNL     1       0.433   9.694  23.747  0.00  0.00    +0.000 OA
ATOM     24  O   UNL     1      -1.243  11.107  23.618  0.00  0.00    +0.000 OA
ENDBRANCH  18  22
BRANCH  21  25
ATOM     25  O   UNL     1      -0.095  10.274  17.489  0.00  0.00    +0.000 OA
ATOM     26  H   UNL     1       0.171   9.383  17.183  0.00  0.00    +0.000 HD
ENDBRANCH  21  25
ENDBRANCH   1  20
TORSDOF 4
ENDMDL
MODEL 8
REMARK VINA RESULT:      -7.6      5.187      6.937
REMARK  Name = 
REMARK  6 active torsions:
REMARK  status: ('A' for Active; 'I' for Inactive)
REMARK    1  A    between atoms: C_1  and  C_2
REMARK    2  A    between atoms: C_4  and  N_5
REMARK    3  A    between atoms: C_9  and  C_10
REMARK    4  A    between atoms: N_11  and  N_12
REMARK    5  A    between atoms: C_13  and  C_14
REMARK    6  A    between atoms: C_24  and  O_25
REMARK                            x       y       z     vdW  Elec       q    Type
REMARK                         _______ _______ _______ _____ _____    ______ ____
ROOT
ATOM      1  C   UNL     1       3.227   7.550  18.316  0.00  0.00    +0.000 C 
ATOM      2  N   UNL     1       1.952   7.714  18.494  0.00  0.00    +0.000 NA
ENDROOT
BRANCH   2   3
ATOM      3  N   UNL     1       1.540   8.929  19.048  0.00  0.00    +0.000 N 
ATOM      4  C   UNL     1       1.153   8.941  20.382  0.00  0.00    +0.000 A 
ATOM      5  C   UNL     1       1.077   7.633  21.140  0.00  0.00    +0.000 C 
ATOM      6  N   UNL     1       0.819  10.015  21.028  0.00  0.00    +0.000 NA
ATOM      7  C   UNL     1       0.902  11.246  20.369  0.00  0.00    +0.000 A 
ATOM      8  C   UNL     1       0.575  12.410  21.068  0.00  0.00    +0.000 A 
ATOM      9  C   UNL     1       0.704  13.665  20.465  0.00  0.00    +0.000 A 
ATOM     10  C   UNL     1       1.147  13.766  19.147  0.00  0.00    +0.000 A 
ATOM     11  C   UNL     1       1.461  12.611  18.434  0.00  0.00    +0.000 A 
ATOM     12  C   UNL     1       1.341  11.361  19.053  0.00  0.00    +0.000 A 
ATOM     13  C   UNL     1       1.721  10.130  18.341  0.00  0.00    +0.000 A 
ATOM     14  O   UNL     1       2.200  10.236  17.211  0.00  0.00    +0.000 OA
ENDBRANCH   2   3
BRANCH   1  20
ATOM     15  C   UNL     1       2.862   2.595  17.376  0.00  0.00    +0.000 C 
ATOM     16  C   UNL     1       3.644   3.877  17.385  0.00  0.00    +0.000 A 
ATOM     17  C   UNL     1       4.960   3.902  16.898  0.00  0.00    +0.000 A 
ATOM     18  C   UNL     1       5.688   5.101  16.910  0.00  0.00    +0.000 A 
ATOM     19  C   UNL     1       5.114   6.287  17.384  0.00  0.00    +0.000 A 
ATOM     20  C   UNL     1       3.796   6.266  17.854  0.00  0.00    +0.000 A 
ATOM     21  C   UNL     1       3.074   5.063  17.873  0.00  0.00    +0.000 A 
BRANCH  18  22
ATOM     22  N   UNL     1       7.072   5.121  16.410  0.00  0.00    +0.000 N 
ATOM     23  O   UNL     1       7.332   5.879  15.464  0.00  0.00    +0.000 OA
ATOM     24  O   UNL     1       7.897   4.384  16.969  0.00  0.00    +0.000 OA
ENDBRANCH  18  22
BRANCH  21  25
ATOM     25  O   UNL     1       1.799   4.986  18.368  0.00  0.00    +0.000 OA
ATOM     26  H   UNL     1       1.278   4.404  17.777  0.00  0.00    +0.000 HD
ENDBRANCH  21  25
ENDBRANCH   1  20
TORSDOF 4
ENDMDL
MODEL 9
REMARK VINA RESULT:      -7.5      4.971      6.584
REMARK  Name = 
REMARK  6 active torsions:
REMARK  status: ('A' for Active; 'I' for Inactive)
REMARK    1  A    between atoms: C_1  and  C_2
REMARK    2  A    between atoms: C_4  and  N_5
REMARK    3  A    between atoms: C_9  and  C_10
REMARK    4  A    between atoms: N_11  and  N_12
REMARK    5  A    between atoms: C_13  and  C_14
REMARK    6  A    between atoms: C_24  and  O_25
REMARK                            x       y       z     vdW  Elec       q    Type
REMARK                         _______ _______ _______ _____ _____    ______ ____
ROOT
ATOM      1  C   UNL     1       2.648   6.843  19.313  0.00  0.00    +0.000 C 
ATOM      2  N   UNL     1       2.167   7.897  18.728  0.00  0.00    +0.000 NA
ENDROOT
BRANCH   2   3
ATOM      3  N   UNL     1       1.580   8.864  19.546  0.00  0.00    +0.000 N 
ATOM      4  C   UNL     1       1.450  10.153  19.045  0.00  0.00    +0.000 A 
ATOM      5  C   UNL     1       2.052  10.484  17.697  0.00  0.00    +0.000 C 
ATOM      6  N   UNL     1       0.860  11.119  19.678  0.00  0.00    +0.000 NA
ATOM      7  C   UNL     1       0.267  10.846  20.916  0.00  0.00    +0.000 A 
ATOM      8  C   UNL     1      -0.398  11.873  21.588  0.00  0.00    +0.000 A 
ATOM      9  C   UNL     1      -1.055  11.626  22.798  0.00  0.00    +0.000 A 
ATOM     10  C   UNL     1      -1.040  10.348  23.355  0.00  0.00    +0.000 A 
ATOM     11  C   UNL     1      -0.366   9.318  22.701  0.00  0.00    +0.000 A 
ATOM     12  C   UNL     1       0.278   9.575  21.484  0.00  0.00    +0.000 A 
ATOM     13  C   UNL     1       0.947   8.492  20.745  0.00  0.00    +0.000 A 
ATOM     14  O   UNL     1       0.874   7.348  21.197  0.00  0.00    +0.000 OA
ENDBRANCH   2   3
BRANCH   1  20
ATOM     15  C   UNL     1       5.497   4.884  15.623  0.00  0.00    +0.000 C 
ATOM     16  C   UNL     1       4.554   4.724  16.782  0.00  0.00    +0.000 A 
ATOM     17  C   UNL     1       4.181   3.442  17.214  0.00  0.00    +0.000 A 
ATOM     18  C   UNL     1       3.300   3.297  18.296  0.00  0.00    +0.000 A 
ATOM     19  C   UNL     1       2.797   4.417  18.969  0.00  0.00    +0.000 A 
ATOM     20  C   UNL     1       3.182   5.695  18.550  0.00  0.00    +0.000 A 
ATOM     21  C   UNL     1       4.039   5.846  17.449  0.00  0.00    +0.000 A 
BRANCH  18  22
ATOM     22  N   UNL     1       2.901   1.951  18.739  0.00  0.00    +0.000 N 
ATOM     23  O   UNL     1       3.692   1.019  18.535  0.00  0.00    +0.000 OA
ATOM     24  O   UNL     1       1.800   1.832  19.296  0.00  0.00    +0.000 OA
ENDBRANCH  18  22
BRANCH  21  25
ATOM     25  O   UNL     1       4.405   7.078  16.974  0.00  0.00    +0.000 OA
ATOM     26  H   UNL     1       3.617   7.491  16.564  0.00  0.00    +0.000 HD
ENDBRANCH  21  25
ENDBRANCH   1  20
TORSDOF 4
ENDMDL
