MODEL 1
REMARK VINA RESULT:      -6.1      0.000      0.000
REMARK  Name = 
REMARK  18 active torsions:
REMARK  status: ('A' for Active; 'I' for Inactive)
REMARK    1  A    between atoms: C_1  and  C_2
REMARK    2  A    between atoms: C_2  and  C_3
REMARK    3  A    between atoms: C_3  and  C_4
REMARK    4  A    between atoms: C_4  and  C_5
REMARK    5  A    between atoms: C_5  and  C_6
REMARK    6  A    between atoms: C_7  and  C_8
REMARK    7  A    between atoms: C_8  and  C_9
REMARK    8  A    between atoms: C_10  and  C_11
REMARK    9  A    between atoms: C_11  and  C_12
REMARK   10  A    between atoms: C_13  and  C_14
REMARK   11  A    between atoms: C_14  and  C_15
REMARK   12  A    between atoms: C_16  and  C_17
REMARK   13  A    between atoms: C_17  and  C_18
REMARK   14  A    between atoms: C_18  and  C_19
REMARK   15  A    between atoms: C_19  and  C_20
REMARK   16  A    between atoms: N_22  and  C_23
REMARK   17  A    between atoms: C_23  and  C_24
REMARK   18  A    between atoms: C_24  and  O_26
REMARK                            x       y       z     vdW  Elec       q    Type
REMARK                         _______ _______ _______ _____ _____    ______ ____
ROOT
ATOM      1  C   UNL     1       2.144   4.297  19.996  0.00  0.00    +0.000 C 
ENDROOT
BRANCH   1   3
ATOM      2  C   UNL     1       4.101   2.769  19.649  0.00  0.00    +0.000 C 
ATOM      3  C   UNL     1       2.893   3.016  20.194  0.00  0.00    +0.000 C 
BRANCH   2   4
ATOM      4  C   UNL     1       4.951   3.703  18.810  0.00  0.00    +0.000 C 
BRANCH   4   6
ATOM      5  C   UNL     1       6.662   5.568  19.054  0.00  0.00    +0.000 C 
ATOM      6  C   UNL     1       5.714   4.761  19.568  0.00  0.00    +0.000 C 
BRANCH   5   7
ATOM      7  C   UNL     1       7.108   5.551  17.627  0.00  0.00    +0.000 C 
BRANCH   7   9
ATOM      8  C   UNL     1       5.350   6.055  15.909  0.00  0.00    +0.000 C 
ATOM      9  C   UNL     1       6.261   6.469  16.809  0.00  0.00    +0.000 C 
BRANCH   8  10
ATOM     10  C   UNL     1       5.108   4.604  15.637  0.00  0.00    +0.000 C 
BRANCH  10  11
ATOM     11  C   UNL     1       5.098   4.297  14.152  0.00  0.00    +0.000 C 
BRANCH  11  12
ATOM     12  C   UNL     1       6.524   4.040  13.675  0.00  0.00    +0.000 C 
BRANCH  12  14
ATOM     13  C   UNL     1       5.135   3.120  11.804  0.00  0.00    +0.000 C 
ATOM     14  C   UNL     1       6.527   3.540  12.238  0.00  0.00    +0.000 C 
ENDBRANCH  12  14
ENDBRANCH  11  12
ENDBRANCH  10  11
ENDBRANCH   8  10
ENDBRANCH   7   9
ENDBRANCH   5   7
ENDBRANCH   4   6
ENDBRANCH   2   4
ENDBRANCH   1   3
BRANCH   1  15
ATOM     15  C   UNL     1       1.821   4.615  18.573  0.00  0.00    +0.000 C 
ATOM     16  C   UNL     1       2.144   5.770  17.967  0.00  0.00    +0.000 C 
BRANCH  16  17
ATOM     17  C   UNL     1       2.784   6.962  18.630  0.00  0.00    +0.000 C 
BRANCH  17  18
ATOM     18  C   UNL     1       2.741   8.235  17.782  0.00  0.00    +0.000 C 
BRANCH  18  19
ATOM     19  C   UNL     1       1.344   8.846  17.699  0.00  0.00    +0.000 C 
BRANCH  19  20
ATOM     20  C   UNL     1       1.170   9.984  18.681  0.00  0.00    +0.000 C 
ATOM     21  O   UNL     1       1.101   9.846  19.893  0.00  0.00    +0.000 OA
ATOM     22  N   UNL     1       1.095  11.216  18.080  0.00  0.00    +0.000 N 
ATOM     23  H   UNL     1       1.171  11.314  17.068  0.00  0.00    +0.000 HD
BRANCH  22  24
ATOM     24  C   UNL     1       0.947  12.413  18.873  0.00  0.00    +0.000 C 
BRANCH  24  25
ATOM     25  C   UNL     1      -0.225  13.251  18.382  0.00  0.00    +0.000 C 
ATOM     26  O   UNL     1      -0.539  14.336  18.851  0.00  0.00    +0.000 OA
BRANCH  25  27
ATOM     27  O   UNL     1      -0.898  12.669  17.366  0.00  0.00    +0.000 OA
ATOM     28  H   UNL     1      -1.478  11.927  17.630  0.00  0.00    +0.000 HD
ENDBRANCH  25  27
ENDBRANCH  24  25
ENDBRANCH  22  24
ENDBRANCH  19  20
ENDBRANCH  18  19
ENDBRANCH  17  18
ENDBRANCH  16  17
ENDBRANCH   1  15
TORSDOF 17
ENDMDL
MODEL 2
REMARK VINA RESULT:      -5.9      2.271      3.819
REMARK  Name = 
REMARK  18 active torsions:
REMARK  status: ('A' for Active; 'I' for Inactive)
REMARK    1  A    between atoms: C_1  and  C_2
REMARK    2  A    between atoms: C_2  and  C_3
REMARK    3  A    between atoms: C_3  and  C_4
REMARK    4  A    between atoms: C_4  and  C_5
REMARK    5  A    between atoms: C_5  and  C_6
REMARK    6  A    between atoms: C_7  and  C_8
REMARK    7  A    between atoms: C_8  and  C_9
REMARK    8  A    between atoms: C_10  and  C_11
REMARK    9  A    between atoms: C_11  and  C_12
REMARK   10  A    between atoms: C_13  and  C_14
REMARK   11  A    between atoms: C_14  and  C_15
REMARK   12  A    between atoms: C_16  and  C_17
REMARK   13  A    between atoms: C_17  and  C_18
REMARK   14  A    between atoms: C_18  and  C_19
REMARK   15  A    between atoms: C_19  and  C_20
REMARK   16  A    between atoms: N_22  and  C_23
REMARK   17  A    between atoms: C_23  and  C_24
REMARK   18  A    between atoms: C_24  and  O_26
REMARK                            x       y       z     vdW  Elec       q    Type
REMARK                         _______ _______ _______ _____ _____    ______ ____
ROOT
ATOM      1  C   UNL     1       2.136   2.853  20.744  0.00  0.00    +0.000 C 
ENDROOT
BRANCH   1   3
ATOM      2  C   UNL     1       4.217   2.201  19.508  0.00  0.00    +0.000 C 
ATOM      3  C   UNL     1       3.622   2.773  20.573  0.00  0.00    +0.000 C 
BRANCH   2   4
ATOM      4  C   UNL     1       3.555   1.598  18.284  0.00  0.00    +0.000 C 
BRANCH   4   6
ATOM      5  C   UNL     1       3.009   3.509  16.698  0.00  0.00    +0.000 C 
ATOM      6  C   UNL     1       2.629   2.510  17.519  0.00  0.00    +0.000 C 
BRANCH   5   7
ATOM      7  C   UNL     1       4.430   3.871  16.404  0.00  0.00    +0.000 C 
BRANCH   7   9
ATOM      8  C   UNL     1       5.477   5.891  17.463  0.00  0.00    +0.000 C 
ATOM      9  C   UNL     1       4.632   5.342  16.570  0.00  0.00    +0.000 C 
BRANCH   8  10
ATOM     10  C   UNL     1       6.299   5.056  18.393  0.00  0.00    +0.000 C 
BRANCH  10  11
ATOM     11  C   UNL     1       7.774   5.403  18.316  0.00  0.00    +0.000 C 
BRANCH  11  12
ATOM     12  C   UNL     1       7.989   6.829  18.810  0.00  0.00    +0.000 C 
BRANCH  12  14
ATOM     13  C   UNL     1       8.319   9.208  18.096  0.00  0.00    +0.000 C 
ATOM     14  C   UNL     1       7.908   7.816  17.655  0.00  0.00    +0.000 C 
ENDBRANCH  12  14
ENDBRANCH  11  12
ENDBRANCH  10  11
ENDBRANCH   8  10
ENDBRANCH   7   9
ENDBRANCH   5   7
ENDBRANCH   4   6
ENDBRANCH   2   4
ENDBRANCH   1   3
BRANCH   1  15
ATOM     15  C   UNL     1       1.652   4.107  21.394  0.00  0.00    +0.000 C 
ATOM     16  C   UNL     1       1.628   5.308  20.791  0.00  0.00    +0.000 C 
BRANCH  16  17
ATOM     17  C   UNL     1       2.168   5.613  19.417  0.00  0.00    +0.000 C 
BRANCH  17  18
ATOM     18  C   UNL     1       2.699   7.040  19.267  0.00  0.00    +0.000 C 
BRANCH  18  19
ATOM     19  C   UNL     1       2.209   7.724  17.993  0.00  0.00    +0.000 C 
BRANCH  19  20
ATOM     20  C   UNL     1       1.783   9.152  18.251  0.00  0.00    +0.000 C 
ATOM     21  O   UNL     1       2.168  10.116  17.607  0.00  0.00    +0.000 OA
ATOM     22  N   UNL     1       0.902   9.277  19.298  0.00  0.00    +0.000 N 
ATOM     23  H   UNL     1       0.579   8.459  19.814  0.00  0.00    +0.000 HD
BRANCH  22  24
ATOM     24  C   UNL     1       0.379  10.570  19.669  0.00  0.00    +0.000 C 
BRANCH  24  25
ATOM     25  C   UNL     1       1.019  11.069  20.957  0.00  0.00    +0.000 C 
ATOM     26  O   UNL     1       1.148  10.394  21.968  0.00  0.00    +0.000 OA
BRANCH  25  27
ATOM     27  O   UNL     1       1.432  12.352  20.874  0.00  0.00    +0.000 OA
ATOM     28  H   UNL     1       0.782  12.969  20.484  0.00  0.00    +0.000 HD
ENDBRANCH  25  27
ENDBRANCH  24  25
ENDBRANCH  22  24
ENDBRANCH  19  20
ENDBRANCH  18  19
ENDBRANCH  17  18
ENDBRANCH  16  17
ENDBRANCH   1  15
TORSDOF 17
ENDMDL
MODEL 3
REMARK VINA RESULT:      -5.8      1.891      3.328
REMARK  Name = 
REMARK  18 active torsions:
REMARK  status: ('A' for Active; 'I' for Inactive)
REMARK    1  A    between atoms: C_1  and  C_2
REMARK    2  A    between atoms: C_2  and  C_3
REMARK    3  A    between atoms: C_3  and  C_4
REMARK    4  A    between atoms: C_4  and  C_5
REMARK    5  A    between atoms: C_5  and  C_6
REMARK    6  A    between atoms: C_7  and  C_8
REMARK    7  A    between atoms: C_8  and  C_9
REMARK    8  A    between atoms: C_10  and  C_11
REMARK    9  A    between atoms: C_11  and  C_12
REMARK   10  A    between atoms: C_13  and  C_14
REMARK   11  A    between atoms: C_14  and  C_15
REMARK   12  A    between atoms: C_16  and  C_17
REMARK   13  A    between atoms: C_17  and  C_18
REMARK   14  A    between atoms: C_18  and  C_19
REMARK   15  A    between atoms: C_19  and  C_20
REMARK   16  A    between atoms: N_22  and  C_23
REMARK   17  A    between atoms: C_23  and  C_24
REMARK   18  A    between atoms: C_24  and  O_26
REMARK                            x       y       z     vdW  Elec       q    Type
REMARK                         _______ _______ _______ _____ _____    ______ ____
ROOT
ATOM      1  C   UNL     1       1.701   4.984  20.209  0.00  0.00    +0.000 C 
ENDROOT
BRANCH   1   3
ATOM      2  C   UNL     1       1.818   2.492  20.470  0.00  0.00    +0.000 C 
ATOM      3  C   UNL     1       1.164   3.657  20.652  0.00  0.00    +0.000 C 
BRANCH   2   4
ATOM      4  C   UNL     1       3.191   2.282  19.863  0.00  0.00    +0.000 C 
BRANCH   4   6
ATOM      5  C   UNL     1       3.815   2.430  17.403  0.00  0.00    +0.000 C 
ATOM      6  C   UNL     1       3.213   1.805  18.432  0.00  0.00    +0.000 C 
BRANCH   5   7
ATOM      7  C   UNL     1       4.578   3.712  17.518  0.00  0.00    +0.000 C 
BRANCH   7   9
ATOM      8  C   UNL     1       5.534   5.204  15.742  0.00  0.00    +0.000 C 
ATOM      9  C   UNL     1       5.334   3.977  16.258  0.00  0.00    +0.000 C 
BRANCH   8  10
ATOM     10  C   UNL     1       4.996   6.436  16.397  0.00  0.00    +0.000 C 
BRANCH  10  11
ATOM     11  C   UNL     1       6.096   7.281  17.011  0.00  0.00    +0.000 C 
BRANCH  11  12
ATOM     12  C   UNL     1       7.361   6.442  17.161  0.00  0.00    +0.000 C 
BRANCH  12  14
ATOM     13  C   UNL     1       7.196   5.529  19.489  0.00  0.00    +0.000 C 
ATOM     14  C   UNL     1       7.895   6.527  18.584  0.00  0.00    +0.000 C 
ENDBRANCH  12  14
ENDBRANCH  11  12
ENDBRANCH  10  11
ENDBRANCH   8  10
ENDBRANCH   7   9
ENDBRANCH   5   7
ENDBRANCH   4   6
ENDBRANCH   2   4
ENDBRANCH   1   3
BRANCH   1  15
ATOM     15  C   UNL     1       1.714   5.185  18.730  0.00  0.00    +0.000 C 
ATOM     16  C   UNL     1       2.067   6.333  18.128  0.00  0.00    +0.000 C 
BRANCH  16  17
ATOM     17  C   UNL     1       2.409   7.624  18.829  0.00  0.00    +0.000 C 
BRANCH  17  18
ATOM     18  C   UNL     1       2.319   8.857  17.926  0.00  0.00    +0.000 C 
BRANCH  18  19
ATOM     19  C   UNL     1       0.940   9.512  17.953  0.00  0.00    +0.000 C 
BRANCH  19  20
ATOM     20  C   UNL     1       0.927  10.756  18.815  0.00  0.00    +0.000 C 
ATOM     21  O   UNL     1       0.716  10.761  20.017  0.00  0.00    +0.000 OA
ATOM     22  N   UNL     1       1.181  11.908  18.112  0.00  0.00    +0.000 N 
ATOM     23  H   UNL     1       1.372  11.883  17.111  0.00  0.00    +0.000 HD
BRANCH  22  24
ATOM     24  C   UNL     1       1.225  13.185  18.785  0.00  0.00    +0.000 C 
BRANCH  24  25
ATOM     25  C   UNL     1       2.660  13.607  19.062  0.00  0.00    +0.000 C 
ATOM     26  O   UNL     1       3.454  13.956  18.199  0.00  0.00    +0.000 OA
BRANCH  25  27
ATOM     27  O   UNL     1       2.979  13.554  20.373  0.00  0.00    +0.000 OA
ATOM     28  H   UNL     1       3.900  13.286  20.561  0.00  0.00    +0.000 HD
ENDBRANCH  25  27
ENDBRANCH  24  25
ENDBRANCH  22  24
ENDBRANCH  19  20
ENDBRANCH  18  19
ENDBRANCH  17  18
ENDBRANCH  16  17
ENDBRANCH   1  15
TORSDOF 17
ENDMDL
MODEL 4
REMARK VINA RESULT:      -5.8      4.462      8.239
REMARK  Name = 
REMARK  18 active torsions:
REMARK  status: ('A' for Active; 'I' for Inactive)
REMARK    1  A    between atoms: C_1  and  C_2
REMARK    2  A    between atoms: C_2  and  C_3
REMARK    3  A    between atoms: C_3  and  C_4
REMARK    4  A    between atoms: C_4  and  C_5
REMARK    5  A    between atoms: C_5  and  C_6
REMARK    6  A    between atoms: C_7  and  C_8
REMARK    7  A    between atoms: C_8  and  C_9
REMARK    8  A    between atoms: C_10  and  C_11
REMARK    9  A    between atoms: C_11  and  C_12
REMARK   10  A    between atoms: C_13  and  C_14
REMARK   11  A    between atoms: C_14  and  C_15
REMARK   12  A    between atoms: C_16  and  C_17
REMARK   13  A    between atoms: C_17  and  C_18
REMARK   14  A    between atoms: C_18  and  C_19
REMARK   15  A    between atoms: C_19  and  C_20
REMARK   16  A    between atoms: N_22  and  C_23
REMARK   17  A    between atoms: C_23  and  C_24
REMARK   18  A    between atoms: C_24  and  O_26
REMARK                            x       y       z     vdW  Elec       q    Type
REMARK                         _______ _______ _______ _____ _____    ______ ____
ROOT
ATOM      1  C   UNL     1       4.077   3.650  17.025  0.00  0.00    +0.000 C 
ENDROOT
BRANCH   1   3
ATOM      2  C   UNL     1       2.792   2.287  18.691  0.00  0.00    +0.000 C 
ATOM      3  C   UNL     1       3.931   2.536  18.015  0.00  0.00    +0.000 C 
BRANCH   2   4
ATOM      4  C   UNL     1       1.461   3.002  18.565  0.00  0.00    +0.000 C 
BRANCH   4   6
ATOM      5  C   UNL     1       1.002   4.399  20.638  0.00  0.00    +0.000 C 
ATOM      6  C   UNL     1       0.761   3.327  19.861  0.00  0.00    +0.000 C 
BRANCH   5   7
ATOM      7  C   UNL     1       2.011   5.460  20.332  0.00  0.00    +0.000 C 
BRANCH   7   9
ATOM      8  C   UNL     1       1.635   7.938  20.201  0.00  0.00    +0.000 C 
ATOM      9  C   UNL     1       1.558   6.776  20.875  0.00  0.00    +0.000 C 
BRANCH   8  10
ATOM     10  C   UNL     1       2.202   8.016  18.819  0.00  0.00    +0.000 C 
BRANCH  10  11
ATOM     11  C   UNL     1       1.392   8.933  17.922  0.00  0.00    +0.000 C 
BRANCH  11  12
ATOM     12  C   UNL     1       1.583  10.379  18.368  0.00  0.00    +0.000 C 
BRANCH  12  14
ATOM     13  C   UNL     1      -0.213  12.098  18.684  0.00  0.00    +0.000 C 
ATOM     14  C   UNL     1       0.417  10.832  19.235  0.00  0.00    +0.000 C 
ENDBRANCH  12  14
ENDBRANCH  11  12
ENDBRANCH  10  11
ENDBRANCH   8  10
ENDBRANCH   7   9
ENDBRANCH   5   7
ENDBRANCH   4   6
ENDBRANCH   2   4
ENDBRANCH   1   3
BRANCH   1  15
ATOM     15  C   UNL     1       3.882   5.016  17.593  0.00  0.00    +0.000 C 
ATOM     16  C   UNL     1       4.843   5.716  18.220  0.00  0.00    +0.000 C 
BRANCH  16  17
ATOM     17  C   UNL     1       6.227   5.215  18.542  0.00  0.00    +0.000 C 
BRANCH  17  18
ATOM     18  C   UNL     1       7.258   5.508  17.449  0.00  0.00    +0.000 C 
BRANCH  18  19
ATOM     19  C   UNL     1       7.427   4.350  16.467  0.00  0.00    +0.000 C 
BRANCH  19  20
ATOM     20  C   UNL     1       6.784   4.650  15.131  0.00  0.00    +0.000 C 
ATOM     21  O   UNL     1       6.633   5.772  14.673  0.00  0.00    +0.000 OA
ATOM     22  N   UNL     1       6.375   3.524  14.459  0.00  0.00    +0.000 N 
ATOM     23  H   UNL     1       6.524   2.594  14.849  0.00  0.00    +0.000 HD
BRANCH  22  24
ATOM     24  C   UNL     1       5.758   3.628  13.158  0.00  0.00    +0.000 C 
BRANCH  24  25
ATOM     25  C   UNL     1       6.792   3.487  12.050  0.00  0.00    +0.000 C 
ATOM     26  O   UNL     1       7.021   2.446  11.452  0.00  0.00    +0.000 OA
BRANCH  25  27
ATOM     27  O   UNL     1       7.445   4.641  11.791  0.00  0.00    +0.000 OA
ATOM     28  H   UNL     1       8.189   4.835  12.394  0.00  0.00    +0.000 HD
ENDBRANCH  25  27
ENDBRANCH  24  25
ENDBRANCH  22  24
ENDBRANCH  19  20
ENDBRANCH  18  19
ENDBRANCH  17  18
ENDBRANCH  16  17
ENDBRANCH   1  15
TORSDOF 17
ENDMDL
MODEL 5
REMARK VINA RESULT:      -5.8      4.389      8.173
REMARK  Name = 
REMARK  18 active torsions:
REMARK  status: ('A' for Active; 'I' for Inactive)
REMARK    1  A    between atoms: C_1  and  C_2
REMARK    2  A    between atoms: C_2  and  C_3
REMARK    3  A    between atoms: C_3  and  C_4
REMARK    4  A    between atoms: C_4  and  C_5
REMARK    5  A    between atoms: C_5  and  C_6
REMARK    6  A    between atoms: C_7  and  C_8
REMARK    7  A    between atoms: C_8  and  C_9
REMARK    8  A    between atoms: C_10  and  C_11
REMARK    9  A    between atoms: C_11  and  C_12
REMARK   10  A    between atoms: C_13  and  C_14
REMARK   11  A    between atoms: C_14  and  C_15
REMARK   12  A    between atoms: C_16  and  C_17
REMARK   13  A    between atoms: C_17  and  C_18
REMARK   14  A    between atoms: C_18  and  C_19
REMARK   15  A    between atoms: C_19  and  C_20
REMARK   16  A    between atoms: N_22  and  C_23
REMARK   17  A    between atoms: C_23  and  C_24
REMARK   18  A    between atoms: C_24  and  O_26
REMARK                            x       y       z     vdW  Elec       q    Type
REMARK                         _______ _______ _______ _____ _____    ______ ____
ROOT
ATOM      1  C   UNL     1       1.938   5.162  20.683  0.00  0.00    +0.000 C 
ENDROOT
BRANCH   1   3
ATOM      2  C   UNL     1       1.862   7.620  20.193  0.00  0.00    +0.000 C 
ATOM      3  C   UNL     1       1.564   6.578  20.996  0.00  0.00    +0.000 C 
BRANCH   2   4
ATOM      4  C   UNL     1       2.551   7.586  18.843  0.00  0.00    +0.000 C 
BRANCH   4   6
ATOM      5  C   UNL     1       1.307   9.565  17.844  0.00  0.00    +0.000 C 
ATOM      6  C   UNL     1       1.867   8.345  17.734  0.00  0.00    +0.000 C 
BRANCH   5   7
ATOM      7  C   UNL     1       1.283  10.378  19.099  0.00  0.00    +0.000 C 
BRANCH   7   9
ATOM      8  C   UNL     1       0.342  12.679  18.763  0.00  0.00    +0.000 C 
ATOM      9  C   UNL     1       1.387  11.832  18.775  0.00  0.00    +0.000 C 
BRANCH   8  10
ATOM     10  C   UNL     1      -1.049  12.225  19.071  0.00  0.00    +0.000 C 
BRANCH  10  11
ATOM     11  C   UNL     1      -1.834  11.898  17.815  0.00  0.00    +0.000 C 
BRANCH  11  12
ATOM     12  C   UNL     1      -2.375  10.475  17.907  0.00  0.00    +0.000 C 
BRANCH  12  14
ATOM     13  C   UNL     1      -2.854  10.650  15.454  0.00  0.00    +0.000 C 
ATOM     14  C   UNL     1      -2.284   9.778  16.558  0.00  0.00    +0.000 C 
ENDBRANCH  12  14
ENDBRANCH  11  12
ENDBRANCH  10  11
ENDBRANCH   8  10
ENDBRANCH   7   9
ENDBRANCH   5   7
ENDBRANCH   4   6
ENDBRANCH   2   4
ENDBRANCH   1   3
BRANCH   1  15
ATOM     15  C   UNL     1       0.834   4.341  20.103  0.00  0.00    +0.000 C 
ATOM     16  C   UNL     1       0.918   3.021  19.872  0.00  0.00    +0.000 C 
BRANCH  16  17
ATOM     17  C   UNL     1       2.149   2.172  20.058  0.00  0.00    +0.000 C 
BRANCH  17  18
ATOM     18  C   UNL     1       2.847   1.802  18.747  0.00  0.00    +0.000 C 
BRANCH  18  19
ATOM     19  C   UNL     1       4.325   2.185  18.734  0.00  0.00    +0.000 C 
BRANCH  19  20
ATOM     20  C   UNL     1       4.521   3.657  18.447  0.00  0.00    +0.000 C 
ATOM     21  O   UNL     1       3.763   4.336  17.771  0.00  0.00    +0.000 OA
ATOM     22  N   UNL     1       5.650   4.180  19.026  0.00  0.00    +0.000 N 
ATOM     23  H   UNL     1       6.263   3.603  19.602  0.00  0.00    +0.000 HD
BRANCH  22  24
ATOM     24  C   UNL     1       5.979   5.577  18.869  0.00  0.00    +0.000 C 
BRANCH  24  25
ATOM     25  C   UNL     1       7.427   5.844  19.250  0.00  0.00    +0.000 C 
ATOM     26  O   UNL     1       8.199   6.525  18.590  0.00  0.00    +0.000 OA
BRANCH  25  27
ATOM     27  O   UNL     1       7.785   5.242  20.406  0.00  0.00    +0.000 OA
ATOM     28  H   UNL     1       7.497   4.312  20.490  0.00  0.00    +0.000 HD
ENDBRANCH  25  27
ENDBRANCH  24  25
ENDBRANCH  22  24
ENDBRANCH  19  20
ENDBRANCH  18  19
ENDBRANCH  17  18
ENDBRANCH  16  17
ENDBRANCH   1  15
TORSDOF 17
ENDMDL
MODEL 6
REMARK VINA RESULT:      -5.8      2.070      3.326
REMARK  Name = 
REMARK  18 active torsions:
REMARK  status: ('A' for Active; 'I' for Inactive)
REMARK    1  A    between atoms: C_1  and  C_2
REMARK    2  A    between atoms: C_2  and  C_3
REMARK    3  A    between atoms: C_3  and  C_4
REMARK    4  A    between atoms: C_4  and  C_5
REMARK    5  A    between atoms: C_5  and  C_6
REMARK    6  A    between atoms: C_7  and  C_8
REMARK    7  A    between atoms: C_8  and  C_9
REMARK    8  A    between atoms: C_10  and  C_11
REMARK    9  A    between atoms: C_11  and  C_12
REMARK   10  A    between atoms: C_13  and  C_14
REMARK   11  A    between atoms: C_14  and  C_15
REMARK   12  A    between atoms: C_16  and  C_17
REMARK   13  A    between atoms: C_17  and  C_18
REMARK   14  A    between atoms: C_18  and  C_19
REMARK   15  A    between atoms: C_19  and  C_20
REMARK   16  A    between atoms: N_22  and  C_23
REMARK   17  A    between atoms: C_23  and  C_24
REMARK   18  A    between atoms: C_24  and  O_26
REMARK                            x       y       z     vdW  Elec       q    Type
REMARK                         _______ _______ _______ _____ _____    ______ ____
ROOT
ATOM      1  C   UNL     1       2.673   6.335  18.179  0.00  0.00    +0.000 C 
ENDROOT
BRANCH   1   3
ATOM      2  C   UNL     1       4.438   4.658  18.781  0.00  0.00    +0.000 C 
ATOM      3  C   UNL     1       3.163   4.945  18.450  0.00  0.00    +0.000 C 
BRANCH   2   4
ATOM      4  C   UNL     1       5.583   5.627  18.998  0.00  0.00    +0.000 C 
BRANCH   4   6
ATOM      5  C   UNL     1       7.482   4.856  17.494  0.00  0.00    +0.000 C 
ATOM      6  C   UNL     1       6.964   5.091  18.715  0.00  0.00    +0.000 C 
BRANCH   5   7
ATOM      7  C   UNL     1       6.764   5.104  16.205  0.00  0.00    +0.000 C 
BRANCH   7   9
ATOM      8  C   UNL     1       5.832   3.513  14.504  0.00  0.00    +0.000 C 
ATOM      9  C   UNL     1       6.021   3.878  15.785  0.00  0.00    +0.000 C 
BRANCH   8  10
ATOM     10  C   UNL     1       6.354   4.326  13.363  0.00  0.00    +0.000 C 
BRANCH  10  11
ATOM     11  C   UNL     1       6.796   3.459  12.199  0.00  0.00    +0.000 C 
BRANCH  11  12
ATOM     12  C   UNL     1       5.596   2.697  11.646  0.00  0.00    +0.000 C 
BRANCH  12  14
ATOM     13  C   UNL     1       3.385   3.191  10.577  0.00  0.00    +0.000 C 
ATOM     14  C   UNL     1       4.345   3.562  11.692  0.00  0.00    +0.000 C 
ENDBRANCH  12  14
ENDBRANCH  11  12
ENDBRANCH  10  11
ENDBRANCH   8  10
ENDBRANCH   7   9
ENDBRANCH   5   7
ENDBRANCH   4   6
ENDBRANCH   2   4
ENDBRANCH   1   3
BRANCH   1  15
ATOM     15  C   UNL     1       2.397   7.146  19.401  0.00  0.00    +0.000 C 
ATOM     16  C   UNL     1       1.795   8.347  19.389  0.00  0.00    +0.000 C 
BRANCH  16  17
ATOM     17  C   UNL     1       1.393   9.116  18.157  0.00  0.00    +0.000 C 
BRANCH  17  18
ATOM     18  C   UNL     1       0.224  10.077  18.386  0.00  0.00    +0.000 C 
BRANCH  18  19
ATOM     19  C   UNL     1       0.664  11.421  18.960  0.00  0.00    +0.000 C 
BRANCH  19  20
ATOM     20  C   UNL     1       0.575  11.442  20.470  0.00  0.00    +0.000 C 
ATOM     21  O   UNL     1       1.452  11.865  21.208  0.00  0.00    +0.000 OA
ATOM     22  N   UNL     1      -0.605  10.934  20.953  0.00  0.00    +0.000 N 
ATOM     23  H   UNL     1      -1.334  10.601  20.322  0.00  0.00    +0.000 HD
BRANCH  22  24
ATOM     24  C   UNL     1      -0.864  10.897  22.373  0.00  0.00    +0.000 C 
BRANCH  24  25
ATOM     25  C   UNL     1      -0.303   9.626  22.996  0.00  0.00    +0.000 C 
ATOM     26  O   UNL     1       0.548   9.607  23.873  0.00  0.00    +0.000 OA
BRANCH  25  27
ATOM     27  O   UNL     1      -0.844   8.503  22.475  0.00  0.00    +0.000 OA
ATOM     28  H   UNL     1      -1.746   8.297  22.791  0.00  0.00    +0.000 HD
ENDBRANCH  25  27
ENDBRANCH  24  25
ENDBRANCH  22  24
ENDBRANCH  19  20
ENDBRANCH  18  19
ENDBRANCH  17  18
ENDBRANCH  16  17
ENDBRANCH   1  15
TORSDOF 17
ENDMDL
MODEL 7
REMARK VINA RESULT:      -5.8      4.137      8.674
REMARK  Name = 
REMARK  18 active torsions:
REMARK  status: ('A' for Active; 'I' for Inactive)
REMARK    1  A    between atoms: C_1  and  C_2
REMARK    2  A    between atoms: C_2  and  C_3
REMARK    3  A    between atoms: C_3  and  C_4
REMARK    4  A    between atoms: C_4  and  C_5
REMARK    5  A    between atoms: C_5  and  C_6
REMARK    6  A    between atoms: C_7  and  C_8
REMARK    7  A    between atoms: C_8  and  C_9
REMARK    8  A    between atoms: C_10  and  C_11
REMARK    9  A    between atoms: C_11  and  C_12
REMARK   10  A    between atoms: C_13  and  C_14
REMARK   11  A    between atoms: C_14  and  C_15
REMARK   12  A    between atoms: C_16  and  C_17
REMARK   13  A    between atoms: C_17  and  C_18
REMARK   14  A    between atoms: C_18  and  C_19
REMARK   15  A    between atoms: C_19  and  C_20
REMARK   16  A    between atoms: N_22  and  C_23
REMARK   17  A    between atoms: C_23  and  C_24
REMARK   18  A    between atoms: C_24  and  O_26
REMARK                            x       y       z     vdW  Elec       q    Type
REMARK                         _______ _______ _______ _____ _____    ______ ____
ROOT
ATOM      1  C   UNL     1      -0.093   8.940  21.359  0.00  0.00    +0.000 C 
ENDROOT
BRANCH   1   3
ATOM      2  C   UNL     1      -1.006  10.596  23.007  0.00  0.00    +0.000 C 
ATOM      3  C   UNL     1      -0.534   9.364  22.727  0.00  0.00    +0.000 C 
BRANCH   2   4
ATOM      4  C   UNL     1      -1.237  11.744  22.044  0.00  0.00    +0.000 C 
BRANCH   4   6
ATOM      5  C   UNL     1       0.761  12.957  21.044  0.00  0.00    +0.000 C 
ATOM      6  C   UNL     1      -0.164  12.803  22.011  0.00  0.00    +0.000 C 
BRANCH   5   7
ATOM      7  C   UNL     1       0.866  12.095  19.826  0.00  0.00    +0.000 C 
BRANCH   7   9
ATOM      8  C   UNL     1      -0.934  12.532  18.133  0.00  0.00    +0.000 C 
ATOM      9  C   UNL     1       0.282  12.797  18.644  0.00  0.00    +0.000 C 
BRANCH   8  10
ATOM     10  C   UNL     1      -1.824  11.479  18.713  0.00  0.00    +0.000 C 
BRANCH  10  11
ATOM     11  C   UNL     1      -1.784  10.193  17.910  0.00  0.00    +0.000 C 
BRANCH  11  12
ATOM     12  C   UNL     1      -3.208   9.741  17.600  0.00  0.00    +0.000 C 
BRANCH  12  14
ATOM     13  C   UNL     1      -2.807  10.485  15.242  0.00  0.00    +0.000 C 
ATOM     14  C   UNL     1      -3.769  10.512  16.415  0.00  0.00    +0.000 C 
ENDBRANCH  12  14
ENDBRANCH  11  12
ENDBRANCH  10  11
ENDBRANCH   8  10
ENDBRANCH   7   9
ENDBRANCH   5   7
ENDBRANCH   4   6
ENDBRANCH   2   4
ENDBRANCH   1   3
BRANCH   1  15
ATOM     15  C   UNL     1       1.015   7.940  21.346  0.00  0.00    +0.000 C 
ATOM     16  C   UNL     1       1.900   7.809  20.344  0.00  0.00    +0.000 C 
BRANCH  16  17
ATOM     17  C   UNL     1       1.869   8.563  19.039  0.00  0.00    +0.000 C 
BRANCH  17  18
ATOM     18  C   UNL     1       2.685   7.902  17.926  0.00  0.00    +0.000 C 
BRANCH  18  19
ATOM     19  C   UNL     1       2.423   6.402  17.809  0.00  0.00    +0.000 C 
BRANCH  19  20
ATOM     20  C   UNL     1       3.708   5.618  17.663  0.00  0.00    +0.000 C 
ATOM     21  O   UNL     1       3.799   4.539  17.099  0.00  0.00    +0.000 OA
ATOM     22  N   UNL     1       4.792   6.239  18.232  0.00  0.00    +0.000 N 
ATOM     23  H   UNL     1       4.702   7.149  18.684  0.00  0.00    +0.000 HD
BRANCH  22  24
ATOM     24  C   UNL     1       6.103   5.637  18.168  0.00  0.00    +0.000 C 
BRANCH  24  25
ATOM     25  C   UNL     1       6.900   6.186  16.994  0.00  0.00    +0.000 C 
ATOM     26  O   UNL     1       7.403   5.495  16.120  0.00  0.00    +0.000 OA
BRANCH  25  27
ATOM     27  O   UNL     1       7.003   7.533  17.014  0.00  0.00    +0.000 OA
ATOM     28  H   UNL     1       6.425   7.998  16.377  0.00  0.00    +0.000 HD
ENDBRANCH  25  27
ENDBRANCH  24  25
ENDBRANCH  22  24
ENDBRANCH  19  20
ENDBRANCH  18  19
ENDBRANCH  17  18
ENDBRANCH  16  17
ENDBRANCH   1  15
TORSDOF 17
ENDMDL
MODEL 8
REMARK VINA RESULT:      -5.7      4.205      8.700
REMARK  Name = 
REMARK  18 active torsions:
REMARK  status: ('A' for Active; 'I' for Inactive)
REMARK    1  A    between atoms: C_1  and  C_2
REMARK    2  A    between atoms: C_2  and  C_3
REMARK    3  A    between atoms: C_3  and  C_4
REMARK    4  A    between atoms: C_4  and  C_5
REMARK    5  A    between atoms: C_5  and  C_6
REMARK    6  A    between atoms: C_7  and  C_8
REMARK    7  A    between atoms: C_8  and  C_9
REMARK    8  A    between atoms: C_10  and  C_11
REMARK    9  A    between atoms: C_11  and  C_12
REMARK   10  A    between atoms: C_13  and  C_14
REMARK   11  A    between atoms: C_14  and  C_15
REMARK   12  A    between atoms: C_16  and  C_17
REMARK   13  A    between atoms: C_17  and  C_18
REMARK   14  A    between atoms: C_18  and  C_19
REMARK   15  A    between atoms: C_19  and  C_20
REMARK   16  A    between atoms: N_22  and  C_23
REMARK   17  A    between atoms: C_23  and  C_24
REMARK   18  A    between atoms: C_24  and  O_26
REMARK                            x       y       z     vdW  Elec       q    Type
REMARK                         _______ _______ _______ _____ _____    ______ ____
ROOT
ATOM      1  C   UNL     1       2.553   7.116  18.205  0.00  0.00    +0.000 C 
ENDROOT
BRANCH   1   3
ATOM      2  C   UNL     1       1.603   9.436  18.157  0.00  0.00    +0.000 C 
ATOM      3  C   UNL     1       2.537   8.548  17.763  0.00  0.00    +0.000 C 
BRANCH   2   4
ATOM      4  C   UNL     1       0.459   9.215  19.126  0.00  0.00    +0.000 C 
BRANCH   4   6
ATOM      5  C   UNL     1       0.877  10.207  21.429  0.00  0.00    +0.000 C 
ATOM      6  C   UNL     1       0.833   9.158  20.586  0.00  0.00    +0.000 C 
BRANCH   5   7
ATOM      7  C   UNL     1       0.547  11.615  21.049  0.00  0.00    +0.000 C 
BRANCH   7   9
ATOM      8  C   UNL     1      -1.740  12.167  20.177  0.00  0.00    +0.000 C 
ATOM      9  C   UNL     1      -0.919  11.860  21.198  0.00  0.00    +0.000 C 
BRANCH   8  10
ATOM     10  C   UNL     1      -1.242  12.301  18.773  0.00  0.00    +0.000 C 
BRANCH  10  11
ATOM     11  C   UNL     1      -2.301  11.924  17.754  0.00  0.00    +0.000 C 
BRANCH  11  12
ATOM     12  C   UNL     1      -2.673  10.454  17.926  0.00  0.00    +0.000 C 
BRANCH  12  14
ATOM     13  C   UNL     1      -2.736  10.452  15.422  0.00  0.00    +0.000 C 
ATOM     14  C   UNL     1      -2.351   9.669  16.663  0.00  0.00    +0.000 C 
ENDBRANCH  12  14
ENDBRANCH  11  12
ENDBRANCH  10  11
ENDBRANCH   8  10
ENDBRANCH   7   9
ENDBRANCH   5   7
ENDBRANCH   4   6
ENDBRANCH   2   4
ENDBRANCH   1   3
BRANCH   1  15
ATOM     15  C   UNL     1       3.854   6.657  18.775  0.00  0.00    +0.000 C 
ATOM     16  C   UNL     1       4.780   5.972  18.084  0.00  0.00    +0.000 C 
BRANCH  16  17
ATOM     17  C   UNL     1       4.629   5.468  16.672  0.00  0.00    +0.000 C 
BRANCH  17  18
ATOM     18  C   UNL     1       4.525   3.945  16.568  0.00  0.00    +0.000 C 
BRANCH  18  19
ATOM     19  C   UNL     1       3.163   3.413  17.010  0.00  0.00    +0.000 C 
BRANCH  19  20
ATOM     20  C   UNL     1       3.259   2.634  18.304  0.00  0.00    +0.000 C 
ATOM     21  O   UNL     1       3.650   1.480  18.388  0.00  0.00    +0.000 OA
ATOM     22  N   UNL     1       2.860   3.352  19.403  0.00  0.00    +0.000 N 
ATOM     23  H   UNL     1       2.552   4.321  19.317  0.00  0.00    +0.000 HD
BRANCH  22  24
ATOM     24  C   UNL     1       2.905   2.765  20.722  0.00  0.00    +0.000 C 
BRANCH  24  25
ATOM     25  C   UNL     1       1.521   2.736  21.354  0.00  0.00    +0.000 C 
ATOM     26  O   UNL     1       1.300   2.403  22.509  0.00  0.00    +0.000 OA
BRANCH  25  27
ATOM     27  O   UNL     1       0.546   3.114  20.500  0.00  0.00    +0.000 OA
ATOM     28  H   UNL     1       0.857   3.371  19.610  0.00  0.00    +0.000 HD
ENDBRANCH  25  27
ENDBRANCH  24  25
ENDBRANCH  22  24
ENDBRANCH  19  20
ENDBRANCH  18  19
ENDBRANCH  17  18
ENDBRANCH  16  17
ENDBRANCH   1  15
TORSDOF 17
ENDMDL
MODEL 9
REMARK VINA RESULT:      -5.7      5.077      7.713
REMARK  Name = 
REMARK  18 active torsions:
REMARK  status: ('A' for Active; 'I' for Inactive)
REMARK    1  A    between atoms: C_1  and  C_2
REMARK    2  A    between atoms: C_2  and  C_3
REMARK    3  A    between atoms: C_3  and  C_4
REMARK    4  A    between atoms: C_4  and  C_5
REMARK    5  A    between atoms: C_5  and  C_6
REMARK    6  A    between atoms: C_7  and  C_8
REMARK    7  A    between atoms: C_8  and  C_9
REMARK    8  A    between atoms: C_10  and  C_11
REMARK    9  A    between atoms: C_11  and  C_12
REMARK   10  A    between atoms: C_13  and  C_14
REMARK   11  A    between atoms: C_14  and  C_15
REMARK   12  A    between atoms: C_16  and  C_17
REMARK   13  A    between atoms: C_17  and  C_18
REMARK   14  A    between atoms: C_18  and  C_19
REMARK   15  A    between atoms: C_19  and  C_20
REMARK   16  A    between atoms: N_22  and  C_23
REMARK   17  A    between atoms: C_23  and  C_24
REMARK   18  A    between atoms: C_24  and  O_26
REMARK                            x       y       z     vdW  Elec       q    Type
REMARK                         _______ _______ _______ _____ _____    ______ ____
ROOT
ATOM      1  C   UNL     1       6.194   5.546  18.830  0.00  0.00    +0.000 C 
ENDROOT
BRANCH   1   3
ATOM      2  C   UNL     1       4.916   4.369  17.022  0.00  0.00    +0.000 C 
ATOM      3  C   UNL     1       5.673   5.406  17.432  0.00  0.00    +0.000 C 
BRANCH   2   4
ATOM      4  C   UNL     1       4.401   3.208  17.850  0.00  0.00    +0.000 C 
BRANCH   4   6
ATOM      5  C   UNL     1       2.074   2.232  18.151  0.00  0.00    +0.000 C 
ATOM      6  C   UNL     1       3.118   2.575  17.373  0.00  0.00    +0.000 C 
BRANCH   5   7
ATOM      7  C   UNL     1       2.014   2.435  19.631  0.00  0.00    +0.000 C 
BRANCH   7   9
ATOM      8  C   UNL     1       0.900   4.505  20.508  0.00  0.00    +0.000 C 
ATOM      9  C   UNL     1       0.826   3.265  19.991  0.00  0.00    +0.000 C 
BRANCH   8  10
ATOM     10  C   UNL     1       2.211   5.172  20.781  0.00  0.00    +0.000 C 
BRANCH  10  11
ATOM     11  C   UNL     1       2.729   5.928  19.572  0.00  0.00    +0.000 C 
BRANCH  11  12
ATOM     12  C   UNL     1       1.953   7.231  19.414  0.00  0.00    +0.000 C 
BRANCH  12  14
ATOM     13  C   UNL     1       0.782   9.077  20.639  0.00  0.00    +0.000 C 
ATOM     14  C   UNL     1       1.685   7.864  20.772  0.00  0.00    +0.000 C 
ENDBRANCH  12  14
ENDBRANCH  11  12
ENDBRANCH  10  11
ENDBRANCH   8  10
ENDBRANCH   7   9
ENDBRANCH   5   7
ENDBRANCH   4   6
ENDBRANCH   2   4
ENDBRANCH   1   3
BRANCH   1  15
ATOM     15  C   UNL     1       7.656   5.834  18.922  0.00  0.00    +0.000 C 
ATOM     16  C   UNL     1       8.232   6.962  18.474  0.00  0.00    +0.000 C 
BRANCH  16  17
ATOM     17  C   UNL     1       7.534   8.067  17.723  0.00  0.00    +0.000 C 
BRANCH  17  18
ATOM     18  C   UNL     1       8.269   9.409  17.777  0.00  0.00    +0.000 C 
BRANCH  18  19
ATOM     19  C   UNL     1       9.076   9.591  19.061  0.00  0.00    +0.000 C 
BRANCH  19  20
ATOM     20  C   UNL     1       9.292  11.053  19.384  0.00  0.00    +0.000 C 
ATOM     21  O   UNL     1       9.195  11.535  20.502  0.00  0.00    +0.000 OA
ATOM     22  N   UNL     1       9.617  11.811  18.287  0.00  0.00    +0.000 N 
ATOM     23  H   UNL     1       9.710  11.389  17.363  0.00  0.00    +0.000 HD
BRANCH  22  24
ATOM     24  C   UNL     1       9.875  13.225  18.420  0.00  0.00    +0.000 C 
BRANCH  24  25
ATOM     25  C   UNL     1      11.139  13.623  17.671  0.00  0.00    +0.000 C 
ATOM     26  O   UNL     1      11.155  14.342  16.682  0.00  0.00    +0.000 OA
BRANCH  25  27
ATOM     27  O   UNL     1      12.258  13.092  18.210  0.00  0.00    +0.000 OA
ATOM     28  H   UNL     1      12.328  12.120  18.134  0.00  0.00    +0.000 HD
ENDBRANCH  25  27
ENDBRANCH  24  25
ENDBRANCH  22  24
ENDBRANCH  19  20
ENDBRANCH  18  19
ENDBRANCH  17  18
ENDBRANCH  16  17
ENDBRANCH   1  15
TORSDOF 17
ENDMDL
