MODEL 1
REMARK VINA RESULT:      -8.4      0.000      0.000
REMARK  Name = 
REMARK  10 active torsions:
REMARK  status: ('A' for Active; 'I' for Inactive)
REMARK    1  A    between atoms: C_1  and  C_2
REMARK    2  A    between atoms: C_2  and  N_3
REMARK    3  A    between atoms: C_2  and  C_27
REMARK    4  A    between atoms: C_4  and  C_6
REMARK    5  A    between atoms: C_7  and  C_8
REMARK    6  A    between atoms: N_15  and  C_16
REMARK    7  A    between atoms: C_16  and  C_17
REMARK    8  A    between atoms: C_20  and  C_21
REMARK    9  A    between atoms: C_30  and  C_31
REMARK   10  A    between atoms: C_31  and  O_33
REMARK                            x       y       z     vdW  Elec       q    Type
REMARK                         _______ _______ _______ _____ _____    ______ ____
ROOT
ATOM      1  C   UNL     1       2.892   6.172  19.411  0.00  0.00    +0.000 A 
ATOM      2  C   UNL     1       2.286   4.925  19.560  0.00  0.00    +0.000 A 
ATOM      3  N   UNL     1       1.309   4.978  20.514  0.00  0.00    +0.000 NA
ATOM      4  N   UNL     1       1.263   6.208  20.981  0.00  0.00    +0.000 NA
ATOM      5  N   UNL     1       2.196   6.938  20.329  0.00  0.00    +0.000 N 
ENDROOT
BRANCH   2   6
ATOM      6  C   UNL     1       2.531   3.639  18.921  0.00  0.00    +0.000 A 
ATOM      7  C   UNL     1       3.514   2.699  19.341  0.00  0.00    +0.000 A 
ATOM      8  C   UNL     1       3.467   1.665  18.434  0.00  0.00    +0.000 A 
ATOM      9  O   UNL     1       2.519   1.905  17.490  0.00  0.00    +0.000 OA
ATOM     10  C   UNL     1       1.950   3.103  17.796  0.00  0.00    +0.000 A 
ENDBRANCH   2   6
BRANCH   1  12
ATOM     11  N   UNL     1       5.105   5.921  18.427  0.00  0.00    +0.000 N 
ATOM     12  C   UNL     1       3.872   6.569  18.423  0.00  0.00    +0.000 C 
ATOM     13  O   UNL     1       3.628   7.434  17.591  0.00  0.00    +0.000 OA
ATOM     14  H   UNL     1       5.320   5.242  19.141  0.00  0.00    +0.000 HD
BRANCH  11  16
ATOM     15  C   UNL     1       7.523   6.326  18.117  0.00  0.00    +0.000 C 
ATOM     16  C   UNL     1       6.144   6.280  17.448  0.00  0.00    +0.000 C 
BRANCH  16  17
ATOM     17  C   UNL     1       6.227   5.395  16.199  0.00  0.00    +0.000 A 
ATOM     18  C   UNL     1       5.061   4.708  15.808  0.00  0.00    +0.000 A 
ATOM     19  C   UNL     1       4.993   4.012  14.590  0.00  0.00    +0.000 A 
ATOM     20  C   UNL     1       6.090   3.978  13.719  0.00  0.00    +0.000 A 
ATOM     21  C   UNL     1       7.268   4.621  14.120  0.00  0.00    +0.000 A 
ATOM     22  C   UNL     1       7.336   5.323  15.348  0.00  0.00    +0.000 A 
BRANCH  20  23
ATOM     23  C   UNL     1       5.872   3.289  12.404  0.00  0.00    +0.000 C 
ATOM     24  O   UNL     1       4.790   3.300  11.837  0.00  0.00    +0.000 OA
BRANCH  23  25
ATOM     25  O   UNL     1       6.938   2.668  11.863  0.00  0.00    +0.000 OA
ATOM     26  H   UNL     1       7.211   2.935  10.973  0.00  0.00    +0.000 HD
ENDBRANCH  23  25
ENDBRANCH  20  23
ENDBRANCH  16  17
ENDBRANCH  11  16
ENDBRANCH   1  12
BRANCH   5  27
ATOM     27  C   UNL     1       2.099   8.380  20.466  0.00  0.00    +0.000 C 
BRANCH  27  28
ATOM     28  C   UNL     1       0.904   9.013  19.780  0.00  0.00    +0.000 A 
ATOM     29  C   UNL     1      -0.040   9.705  20.550  0.00  0.00    +0.000 A 
ATOM     30  C   UNL     1      -0.975  10.555  19.948  0.00  0.00    +0.000 A 
ATOM     31  C   UNL     1      -0.976  10.744  18.560  0.00  0.00    +0.000 A 
ATOM     32  C   UNL     1      -0.120   9.958  17.776  0.00  0.00    +0.000 A 
ATOM     33  C   UNL     1       0.817   9.109  18.379  0.00  0.00    +0.000 A 
BRANCH  31  34
ATOM     34  C   UNL     1      -1.799  11.844  17.926  0.00  0.00    +0.000 C 
ATOM     35  F   UNL     1      -2.967  12.090  18.583  0.00  0.00    +0.000 F 
ATOM     36  F   UNL     1      -1.134  13.033  17.900  0.00  0.00    +0.000 F 
ATOM     37  F   UNL     1      -2.144  11.579  16.636  0.00  0.00    +0.000 F 
ENDBRANCH  31  34
ENDBRANCH  27  28
ENDBRANCH   5  27
TORSDOF 9
ENDMDL
MODEL 2
REMARK VINA RESULT:      -8.3      0.857      1.420
REMARK  Name = 
REMARK  10 active torsions:
REMARK  status: ('A' for Active; 'I' for Inactive)
REMARK    1  A    between atoms: C_1  and  C_2
REMARK    2  A    between atoms: C_2  and  N_3
REMARK    3  A    between atoms: C_2  and  C_27
REMARK    4  A    between atoms: C_4  and  C_6
REMARK    5  A    between atoms: C_7  and  C_8
REMARK    6  A    between atoms: N_15  and  C_16
REMARK    7  A    between atoms: C_16  and  C_17
REMARK    8  A    between atoms: C_20  and  C_21
REMARK    9  A    between atoms: C_30  and  C_31
REMARK   10  A    between atoms: C_31  and  O_33
REMARK                            x       y       z     vdW  Elec       q    Type
REMARK                         _______ _______ _______ _____ _____    ______ ____
ROOT
ATOM      1  C   UNL     1       2.830   6.388  19.438  0.00  0.00    +0.000 A 
ATOM      2  C   UNL     1       2.139   5.185  19.579  0.00  0.00    +0.000 A 
ATOM      3  N   UNL     1       1.093   5.333  20.447  0.00  0.00    +0.000 NA
ATOM      4  N   UNL     1       1.085   6.580  20.866  0.00  0.00    +0.000 NA
ATOM      5  N   UNL     1       2.111   7.228  20.269  0.00  0.00    +0.000 N 
ENDROOT
BRANCH   2   6
ATOM      6  C   UNL     1       2.354   3.863  19.006  0.00  0.00    +0.000 A 
ATOM      7  C   UNL     1       2.050   3.503  17.664  0.00  0.00    +0.000 A 
ATOM      8  C   UNL     1       2.332   2.160  17.554  0.00  0.00    +0.000 A 
ATOM      9  O   UNL     1       2.792   1.675  18.737  0.00  0.00    +0.000 OA
ATOM     10  C   UNL     1       2.809   2.716  19.612  0.00  0.00    +0.000 A 
ENDBRANCH   2   6
BRANCH   1  12
ATOM     11  N   UNL     1       5.087   5.954  18.632  0.00  0.00    +0.000 N 
ATOM     12  C   UNL     1       3.909   6.689  18.521  0.00  0.00    +0.000 C 
ATOM     13  O   UNL     1       3.792   7.547  17.656  0.00  0.00    +0.000 OA
ATOM     14  H   UNL     1       5.196   5.278  19.374  0.00  0.00    +0.000 HD
BRANCH  11  16
ATOM     15  C   UNL     1       7.551   6.030  18.470  0.00  0.00    +0.000 C 
ATOM     16  C   UNL     1       6.220   6.212  17.730  0.00  0.00    +0.000 C 
BRANCH  16  17
ATOM     17  C   UNL     1       6.254   5.387  16.438  0.00  0.00    +0.000 A 
ATOM     18  C   UNL     1       5.194   4.487  16.212  0.00  0.00    +0.000 A 
ATOM     19  C   UNL     1       5.050   3.817  14.985  0.00  0.00    +0.000 A 
ATOM     20  C   UNL     1       5.961   4.023  13.942  0.00  0.00    +0.000 A 
ATOM     21  C   UNL     1       7.043   4.882  14.174  0.00  0.00    +0.000 A 
ATOM     22  C   UNL     1       7.187   5.558  15.410  0.00  0.00    +0.000 A 
BRANCH  20  23
ATOM     23  C   UNL     1       5.655   3.331  12.647  0.00  0.00    +0.000 C 
ATOM     24  O   UNL     1       4.602   3.505  12.051  0.00  0.00    +0.000 OA
BRANCH  23  25
ATOM     25  O   UNL     1       6.609   2.517  12.155  0.00  0.00    +0.000 OA
ATOM     26  H   UNL     1       7.408   2.928  11.793  0.00  0.00    +0.000 HD
ENDBRANCH  23  25
ENDBRANCH  20  23
ENDBRANCH  16  17
ENDBRANCH  11  16
ENDBRANCH   1  12
BRANCH   5  27
ATOM     27  C   UNL     1       2.092   8.678  20.348  0.00  0.00    +0.000 C 
BRANCH  27  28
ATOM     28  C   UNL     1       1.000   9.353  19.541  0.00  0.00    +0.000 A 
ATOM     29  C   UNL     1       0.980   9.191  18.149  0.00  0.00    +0.000 A 
ATOM     30  C   UNL     1      -0.157   9.526  17.404  0.00  0.00    +0.000 A 
ATOM     31  C   UNL     1      -1.307  10.015  18.038  0.00  0.00    +0.000 A 
ATOM     32  C   UNL     1      -1.246  10.297  19.409  0.00  0.00    +0.000 A 
ATOM     33  C   UNL     1      -0.110   9.962  20.156  0.00  0.00    +0.000 A 
BRANCH  31  34
ATOM     34  C   UNL     1      -2.615  10.134  17.289  0.00  0.00    +0.000 C 
ATOM     35  F   UNL     1      -3.233  11.334  17.470  0.00  0.00    +0.000 F 
ATOM     36  F   UNL     1      -2.450  10.004  15.941  0.00  0.00    +0.000 F 
ATOM     37  F   UNL     1      -3.526   9.186  17.647  0.00  0.00    +0.000 F 
ENDBRANCH  31  34
ENDBRANCH  27  28
ENDBRANCH   5  27
TORSDOF 9
ENDMDL
MODEL 3
REMARK VINA RESULT:      -8.0      5.309     10.341
REMARK  Name = 
REMARK  10 active torsions:
REMARK  status: ('A' for Active; 'I' for Inactive)
REMARK    1  A    between atoms: C_1  and  C_2
REMARK    2  A    between atoms: C_2  and  N_3
REMARK    3  A    between atoms: C_2  and  C_27
REMARK    4  A    between atoms: C_4  and  C_6
REMARK    5  A    between atoms: C_7  and  C_8
REMARK    6  A    between atoms: N_15  and  C_16
REMARK    7  A    between atoms: C_16  and  C_17
REMARK    8  A    between atoms: C_20  and  C_21
REMARK    9  A    between atoms: C_30  and  C_31
REMARK   10  A    between atoms: C_31  and  O_33
REMARK                            x       y       z     vdW  Elec       q    Type
REMARK                         _______ _______ _______ _____ _____    ______ ____
ROOT
ATOM      1  C   UNL     1       0.795   9.168  19.505  0.00  0.00    +0.000 A 
ATOM      2  C   UNL     1       0.738   9.243  20.896  0.00  0.00    +0.000 A 
ATOM      3  N   UNL     1       1.579   8.325  21.460  0.00  0.00    +0.000 NA
ATOM      4  N   UNL     1       2.173   7.666  20.488  0.00  0.00    +0.000 NA
ATOM      5  N   UNL     1       1.723   8.160  19.312  0.00  0.00    +0.000 N 
ENDROOT
BRANCH   2   6
ATOM      6  C   UNL     1      -0.049  10.075  21.796  0.00  0.00    +0.000 A 
ATOM      7  C   UNL     1      -0.423  11.423  21.534  0.00  0.00    +0.000 A 
ATOM      8  C   UNL     1      -1.087  11.861  22.657  0.00  0.00    +0.000 A 
ATOM      9  O   UNL     1      -1.149  10.872  23.587  0.00  0.00    +0.000 OA
ATOM     10  C   UNL     1      -0.522   9.789  23.055  0.00  0.00    +0.000 A 
ENDBRANCH   2   6
BRANCH   1  12
ATOM     11  N   UNL     1      -1.187   9.854  18.267  0.00  0.00    +0.000 N 
ATOM     12  C   UNL     1       0.165  10.047  18.543  0.00  0.00    +0.000 C 
ATOM     13  O   UNL     1       0.787  10.949  17.996  0.00  0.00    +0.000 OA
ATOM     14  H   UNL     1      -1.685   9.083  18.685  0.00  0.00    +0.000 HD
BRANCH  11  16
ATOM     15  C   UNL     1      -2.302   9.907  16.063  0.00  0.00    +0.000 C 
ATOM     16  C   UNL     1      -1.885  10.714  17.298  0.00  0.00    +0.000 C 
BRANCH  16  17
ATOM     17  C   UNL     1      -3.105  11.474  17.830  0.00  0.00    +0.000 A 
ATOM     18  C   UNL     1      -4.244  11.540  17.003  0.00  0.00    +0.000 A 
ATOM     19  C   UNL     1      -5.461  12.065  17.470  0.00  0.00    +0.000 A 
ATOM     20  C   UNL     1      -5.581  12.543  18.781  0.00  0.00    +0.000 A 
ATOM     21  C   UNL     1      -4.442  12.523  19.596  0.00  0.00    +0.000 A 
ATOM     22  C   UNL     1      -3.216  11.993  19.125  0.00  0.00    +0.000 A 
BRANCH  20  23
ATOM     23  C   UNL     1      -6.951  12.990  19.201  0.00  0.00    +0.000 C 
ATOM     24  O   UNL     1      -7.845  13.188  18.393  0.00  0.00    +0.000 OA
BRANCH  23  25
ATOM     25  O   UNL     1      -7.157  13.143  20.524  0.00  0.00    +0.000 OA
ATOM     26  H   UNL     1      -6.401  13.020  21.115  0.00  0.00    +0.000 HD
ENDBRANCH  23  25
ENDBRANCH  20  23
ENDBRANCH  16  17
ENDBRANCH  11  16
ENDBRANCH   1  12
BRANCH   5  27
ATOM     27  C   UNL     1       2.477   7.793  18.127  0.00  0.00    +0.000 C 
BRANCH  27  28
ATOM     28  C   UNL     1       2.710   6.305  17.948  0.00  0.00    +0.000 A 
ATOM     29  C   UNL     1       4.015   5.802  18.034  0.00  0.00    +0.000 A 
ATOM     30  C   UNL     1       4.247   4.429  18.184  0.00  0.00    +0.000 A 
ATOM     31  C   UNL     1       3.176   3.530  18.268  0.00  0.00    +0.000 A 
ATOM     32  C   UNL     1       1.878   4.013  18.055  0.00  0.00    +0.000 A 
ATOM     33  C   UNL     1       1.645   5.386  17.906  0.00  0.00    +0.000 A 
BRANCH  31  34
ATOM     34  C   UNL     1       3.399   2.094  18.685  0.00  0.00    +0.000 C 
ATOM     35  F   UNL     1       4.309   1.959  19.690  0.00  0.00    +0.000 F 
ATOM     36  F   UNL     1       2.256   1.508  19.144  0.00  0.00    +0.000 F 
ATOM     37  F   UNL     1       3.843   1.303  17.669  0.00  0.00    +0.000 F 
ENDBRANCH  31  34
ENDBRANCH  27  28
ENDBRANCH   5  27
TORSDOF 9
ENDMDL
MODEL 4
REMARK VINA RESULT:      -7.9      5.742     10.642
REMARK  Name = 
REMARK  10 active torsions:
REMARK  status: ('A' for Active; 'I' for Inactive)
REMARK    1  A    between atoms: C_1  and  C_2
REMARK    2  A    between atoms: C_2  and  N_3
REMARK    3  A    between atoms: C_2  and  C_27
REMARK    4  A    between atoms: C_4  and  C_6
REMARK    5  A    between atoms: C_7  and  C_8
REMARK    6  A    between atoms: N_15  and  C_16
REMARK    7  A    between atoms: C_16  and  C_17
REMARK    8  A    between atoms: C_20  and  C_21
REMARK    9  A    between atoms: C_30  and  C_31
REMARK   10  A    between atoms: C_31  and  O_33
REMARK                            x       y       z     vdW  Elec       q    Type
REMARK                         _______ _______ _______ _____ _____    ______ ____
ROOT
ATOM      1  C   UNL     1       0.145  10.318  20.259  0.00  0.00    +0.000 A 
ATOM      2  C   UNL     1       0.114  10.722  21.594  0.00  0.00    +0.000 A 
ATOM      3  N   UNL     1       0.979   9.972  22.341  0.00  0.00    +0.000 NA
ATOM      4  N   UNL     1       1.562   9.105  21.540  0.00  0.00    +0.000 NA
ATOM      5  N   UNL     1       1.082   9.301  20.291  0.00  0.00    +0.000 N 
ENDROOT
BRANCH   2   6
ATOM      6  C   UNL     1      -0.666  11.737  22.288  0.00  0.00    +0.000 A 
ATOM      7  C   UNL     1      -1.822  11.474  23.073  0.00  0.00    +0.000 A 
ATOM      8  C   UNL     1      -2.294  12.700  23.484  0.00  0.00    +0.000 A 
ATOM      9  O   UNL     1      -1.502  13.696  23.007  0.00  0.00    +0.000 OA
ATOM     10  C   UNL     1      -0.511  13.103  22.287  0.00  0.00    +0.000 A 
ENDBRANCH   2   6
BRANCH   1  12
ATOM     11  N   UNL     1      -1.646  10.309  18.610  0.00  0.00    +0.000 N 
ATOM     12  C   UNL     1      -0.517  10.936  19.130  0.00  0.00    +0.000 C 
ATOM     13  O   UNL     1      -0.116  11.989  18.652  0.00  0.00    +0.000 OA
ATOM     14  H   UNL     1      -1.948   9.418  18.976  0.00  0.00    +0.000 HD
BRANCH  11  16
ATOM     15  C   UNL     1      -2.483   9.861  16.328  0.00  0.00    +0.000 C 
ATOM     16  C   UNL     1      -2.364  10.887  17.462  0.00  0.00    +0.000 C 
BRANCH  16  17
ATOM     17  C   UNL     1      -3.753  11.464  17.757  0.00  0.00    +0.000 A 
ATOM     18  C   UNL     1      -4.013  11.896  19.073  0.00  0.00    +0.000 A 
ATOM     19  C   UNL     1      -5.190  12.591  19.397  0.00  0.00    +0.000 A 
ATOM     20  C   UNL     1      -6.150  12.877  18.418  0.00  0.00    +0.000 A 
ATOM     21  C   UNL     1      -5.920  12.411  17.117  0.00  0.00    +0.000 A 
ATOM     22  C   UNL     1      -4.733  11.712  16.790  0.00  0.00    +0.000 A 
BRANCH  20  23
ATOM     23  C   UNL     1      -7.319  13.708  18.857  0.00  0.00    +0.000 C 
ATOM     24  O   UNL     1      -7.813  14.564  18.140  0.00  0.00    +0.000 OA
BRANCH  23  25
ATOM     25  O   UNL     1      -7.817  13.450  20.082  0.00  0.00    +0.000 OA
ATOM     26  H   UNL     1      -7.306  12.867  20.663  0.00  0.00    +0.000 HD
ENDBRANCH  23  25
ENDBRANCH  20  23
ENDBRANCH  16  17
ENDBRANCH  11  16
ENDBRANCH   1  12
BRANCH   5  27
ATOM     27  C   UNL     1       1.818   8.668  19.210  0.00  0.00    +0.000 C 
BRANCH  27  28
ATOM     28  C   UNL     1       2.030   7.175  19.365  0.00  0.00    +0.000 A 
ATOM     29  C   UNL     1       1.767   6.571  20.602  0.00  0.00    +0.000 A 
ATOM     30  C   UNL     1       1.649   5.180  20.712  0.00  0.00    +0.000 A 
ATOM     31  C   UNL     1       1.777   4.362  19.582  0.00  0.00    +0.000 A 
ATOM     32  C   UNL     1       2.166   4.950  18.370  0.00  0.00    +0.000 A 
ATOM     33  C   UNL     1       2.283   6.341  18.259  0.00  0.00    +0.000 A 
BRANCH  31  34
ATOM     34  C   UNL     1       1.400   2.899  19.636  0.00  0.00    +0.000 C 
ATOM     35  F   UNL     1       0.514   2.534  18.667  0.00  0.00    +0.000 F 
ATOM     36  F   UNL     1       2.480   2.083  19.473  0.00  0.00    +0.000 F 
ATOM     37  F   UNL     1       0.831   2.535  20.819  0.00  0.00    +0.000 F 
ENDBRANCH  31  34
ENDBRANCH  27  28
ENDBRANCH   5  27
TORSDOF 9
ENDMDL
MODEL 5
REMARK VINA RESULT:      -7.9      1.727      2.445
REMARK  Name = 
REMARK  10 active torsions:
REMARK  status: ('A' for Active; 'I' for Inactive)
REMARK    1  A    between atoms: C_1  and  C_2
REMARK    2  A    between atoms: C_2  and  N_3
REMARK    3  A    between atoms: C_2  and  C_27
REMARK    4  A    between atoms: C_4  and  C_6
REMARK    5  A    between atoms: C_7  and  C_8
REMARK    6  A    between atoms: N_15  and  C_16
REMARK    7  A    between atoms: C_16  and  C_17
REMARK    8  A    between atoms: C_20  and  C_21
REMARK    9  A    between atoms: C_30  and  C_31
REMARK   10  A    between atoms: C_31  and  O_33
REMARK                            x       y       z     vdW  Elec       q    Type
REMARK                         _______ _______ _______ _____ _____    ______ ____
ROOT
ATOM      1  C   UNL     1       2.872   6.226  19.374  0.00  0.00    +0.000 A 
ATOM      2  C   UNL     1       2.203   5.024  19.603  0.00  0.00    +0.000 A 
ATOM      3  N   UNL     1       1.165   5.212  20.472  0.00  0.00    +0.000 NA
ATOM      4  N   UNL     1       1.142   6.485  20.809  0.00  0.00    +0.000 NA
ATOM      5  N   UNL     1       2.149   7.108  20.157  0.00  0.00    +0.000 N 
ENDROOT
BRANCH   2   6
ATOM      6  C   UNL     1       2.433   3.671  19.115  0.00  0.00    +0.000 A 
ATOM      7  C   UNL     1       2.241   3.252  17.768  0.00  0.00    +0.000 A 
ATOM      8  C   UNL     1       2.495   1.900  17.749  0.00  0.00    +0.000 A 
ATOM      9  O   UNL     1       2.833   1.463  18.990  0.00  0.00    +0.000 OA
ATOM     10  C   UNL     1       2.799   2.545  19.813  0.00  0.00    +0.000 A 
ENDBRANCH   2   6
BRANCH   1  12
ATOM     11  N   UNL     1       5.107   5.739  18.538  0.00  0.00    +0.000 N 
ATOM     12  C   UNL     1       3.934   6.483  18.425  0.00  0.00    +0.000 C 
ATOM     13  O   UNL     1       3.809   7.312  17.533  0.00  0.00    +0.000 OA
ATOM     14  H   UNL     1       5.225   5.089  19.300  0.00  0.00    +0.000 HD
BRANCH  11  16
ATOM     15  C   UNL     1       7.546   5.493  18.230  0.00  0.00    +0.000 C 
ATOM     16  C   UNL     1       6.224   5.953  17.604  0.00  0.00    +0.000 C 
BRANCH  16  17
ATOM     17  C   UNL     1       6.078   5.307  16.221  0.00  0.00    +0.000 A 
ATOM     18  C   UNL     1       6.977   5.712  15.214  0.00  0.00    +0.000 A 
ATOM     19  C   UNL     1       7.030   5.057  13.972  0.00  0.00    +0.000 A 
ATOM     20  C   UNL     1       6.186   3.975  13.693  0.00  0.00    +0.000 A 
ATOM     21  C   UNL     1       5.258   3.595  14.671  0.00  0.00    +0.000 A 
ATOM     22  C   UNL     1       5.206   4.254  15.923  0.00  0.00    +0.000 A 
BRANCH  20  23
ATOM     23  C   UNL     1       6.398   3.292  12.374  0.00  0.00    +0.000 C 
ATOM     24  O   UNL     1       7.294   3.618  11.610  0.00  0.00    +0.000 OA
BRANCH  23  25
ATOM     25  O   UNL     1       5.560   2.280  12.076  0.00  0.00    +0.000 OA
ATOM     26  H   UNL     1       4.611   2.470  12.065  0.00  0.00    +0.000 HD
ENDBRANCH  23  25
ENDBRANCH  20  23
ENDBRANCH  16  17
ENDBRANCH  11  16
ENDBRANCH   1  12
BRANCH   5  27
ATOM     27  C   UNL     1       2.108   8.559  20.142  0.00  0.00    +0.000 C 
BRANCH  27  28
ATOM     28  C   UNL     1       0.888   9.175  20.799  0.00  0.00    +0.000 A 
ATOM     29  C   UNL     1       0.783   9.161  22.197  0.00  0.00    +0.000 A 
ATOM     30  C   UNL     1      -0.149   9.973  22.855  0.00  0.00    +0.000 A 
ATOM     31  C   UNL     1      -0.988  10.828  22.129  0.00  0.00    +0.000 A 
ATOM     32  C   UNL     1      -0.974  10.751  20.730  0.00  0.00    +0.000 A 
ATOM     33  C   UNL     1      -0.042   9.941  20.071  0.00  0.00    +0.000 A 
BRANCH  31  34
ATOM     34  C   UNL     1      -1.809  11.888  22.829  0.00  0.00    +0.000 C 
ATOM     35  F   UNL     1      -1.051  12.809  23.488  0.00  0.00    +0.000 F 
ATOM     36  F   UNL     1      -2.579  12.600  21.958  0.00  0.00    +0.000 F 
ATOM     37  F   UNL     1      -2.666  11.377  23.756  0.00  0.00    +0.000 F 
ENDBRANCH  31  34
ENDBRANCH  27  28
ENDBRANCH   5  27
TORSDOF 9
ENDMDL
MODEL 6
REMARK VINA RESULT:      -7.9      0.762      1.631
REMARK  Name = 
REMARK  10 active torsions:
REMARK  status: ('A' for Active; 'I' for Inactive)
REMARK    1  A    between atoms: C_1  and  C_2
REMARK    2  A    between atoms: C_2  and  N_3
REMARK    3  A    between atoms: C_2  and  C_27
REMARK    4  A    between atoms: C_4  and  C_6
REMARK    5  A    between atoms: C_7  and  C_8
REMARK    6  A    between atoms: N_15  and  C_16
REMARK    7  A    between atoms: C_16  and  C_17
REMARK    8  A    between atoms: C_20  and  C_21
REMARK    9  A    between atoms: C_30  and  C_31
REMARK   10  A    between atoms: C_31  and  O_33
REMARK                            x       y       z     vdW  Elec       q    Type
REMARK                         _______ _______ _______ _____ _____    ______ ____
ROOT
ATOM      1  C   UNL     1       2.834   6.204  19.429  0.00  0.00    +0.000 A 
ATOM      2  C   UNL     1       2.101   5.023  19.532  0.00  0.00    +0.000 A 
ATOM      3  N   UNL     1       1.074   5.173  20.422  0.00  0.00    +0.000 NA
ATOM      4  N   UNL     1       1.120   6.402  20.893  0.00  0.00    +0.000 NA
ATOM      5  N   UNL     1       2.160   7.036  20.306  0.00  0.00    +0.000 N 
ENDROOT
BRANCH   2   6
ATOM      6  C   UNL     1       2.258   3.719  18.902  0.00  0.00    +0.000 A 
ATOM      7  C   UNL     1       3.000   2.637  19.454  0.00  0.00    +0.000 A 
ATOM      8  C   UNL     1       2.958   1.628  18.519  0.00  0.00    +0.000 A 
ATOM      9  O   UNL     1       2.237   2.017  17.434  0.00  0.00    +0.000 OA
ATOM     10  C   UNL     1       1.810   3.286  17.677  0.00  0.00    +0.000 A 
ENDBRANCH   2   6
BRANCH   1  12
ATOM     11  N   UNL     1       5.031   5.677  18.521  0.00  0.00    +0.000 N 
ATOM     12  C   UNL     1       3.909   6.503  18.508  0.00  0.00    +0.000 C 
ATOM     13  O   UNL     1       3.837   7.438  17.721  0.00  0.00    +0.000 OA
ATOM     14  H   UNL     1       5.108   4.935  19.200  0.00  0.00    +0.000 HD
BRANCH  11  16
ATOM     15  C   UNL     1       7.473   5.437  18.227  0.00  0.00    +0.000 C 
ATOM     16  C   UNL     1       6.159   5.929  17.609  0.00  0.00    +0.000 C 
BRANCH  16  17
ATOM     17  C   UNL     1       6.025   5.345  16.198  0.00  0.00    +0.000 A 
ATOM     18  C   UNL     1       7.089   5.561  15.299  0.00  0.00    +0.000 A 
ATOM     19  C   UNL     1       7.133   4.924  14.048  0.00  0.00    +0.000 A 
ATOM     20  C   UNL     1       6.114   4.050  13.650  0.00  0.00    +0.000 A 
ATOM     21  C   UNL     1       5.030   3.864  14.518  0.00  0.00    +0.000 A 
ATOM     22  C   UNL     1       4.987   4.505  15.780  0.00  0.00    +0.000 A 
BRANCH  20  23
ATOM     23  C   UNL     1       6.313   3.353  12.336  0.00  0.00    +0.000 C 
ATOM     24  O   UNL     1       7.395   3.334  11.769  0.00  0.00    +0.000 OA
BRANCH  23  25
ATOM     25  O   UNL     1       5.240   2.726  11.815  0.00  0.00    +0.000 OA
ATOM     26  H   UNL     1       4.994   2.938  10.903  0.00  0.00    +0.000 HD
ENDBRANCH  23  25
ENDBRANCH  20  23
ENDBRANCH  16  17
ENDBRANCH  11  16
ENDBRANCH   1  12
BRANCH   5  27
ATOM     27  C   UNL     1       2.197   8.481  20.445  0.00  0.00    +0.000 C 
BRANCH  27  28
ATOM     28  C   UNL     1       1.121   9.228  19.682  0.00  0.00    +0.000 A 
ATOM     29  C   UNL     1       1.189   9.285  18.283  0.00  0.00    +0.000 A 
ATOM     30  C   UNL     1       0.081   9.685  17.526  0.00  0.00    +0.000 A 
ATOM     31  C   UNL     1      -1.126  10.023  18.151  0.00  0.00    +0.000 A 
ATOM     32  C   UNL     1      -1.159  10.090  19.551  0.00  0.00    +0.000 A 
ATOM     33  C   UNL     1      -0.052   9.689  20.309  0.00  0.00    +0.000 A 
BRANCH  31  34
ATOM     34  C   UNL     1      -2.393  10.205  17.346  0.00  0.00    +0.000 C 
ATOM     35  F   UNL     1      -2.322   9.663  16.098  0.00  0.00    +0.000 F 
ATOM     36  F   UNL     1      -3.469   9.616  17.942  0.00  0.00    +0.000 F 
ATOM     37  F   UNL     1      -2.733  11.512  17.169  0.00  0.00    +0.000 F 
ENDBRANCH  31  34
ENDBRANCH  27  28
ENDBRANCH   5  27
TORSDOF 9
ENDMDL
MODEL 7
REMARK VINA RESULT:      -7.8      1.703      2.311
REMARK  Name = 
REMARK  10 active torsions:
REMARK  status: ('A' for Active; 'I' for Inactive)
REMARK    1  A    between atoms: C_1  and  C_2
REMARK    2  A    between atoms: C_2  and  N_3
REMARK    3  A    between atoms: C_2  and  C_27
REMARK    4  A    between atoms: C_4  and  C_6
REMARK    5  A    between atoms: C_7  and  C_8
REMARK    6  A    between atoms: N_15  and  C_16
REMARK    7  A    between atoms: C_16  and  C_17
REMARK    8  A    between atoms: C_20  and  C_21
REMARK    9  A    between atoms: C_30  and  C_31
REMARK   10  A    between atoms: C_31  and  O_33
REMARK                            x       y       z     vdW  Elec       q    Type
REMARK                         _______ _______ _______ _____ _____    ______ ____
ROOT
ATOM      1  C   UNL     1       3.177   6.144  19.205  0.00  0.00    +0.000 A 
ATOM      2  C   UNL     1       2.634   4.903  19.535  0.00  0.00    +0.000 A 
ATOM      3  N   UNL     1       1.496   5.061  20.275  0.00  0.00    +0.000 NA
ATOM      4  N   UNL     1       1.288   6.351  20.432  0.00  0.00    +0.000 NA
ATOM      5  N   UNL     1       2.278   7.015  19.793  0.00  0.00    +0.000 N 
ENDROOT
BRANCH   2   6
ATOM      6  C   UNL     1       3.072   3.542  19.258  0.00  0.00    +0.000 A 
ATOM      7  C   UNL     1       2.761   2.816  18.075  0.00  0.00    +0.000 A 
ATOM      8  C   UNL     1       3.297   1.560  18.244  0.00  0.00    +0.000 A 
ATOM      9  O   UNL     1       3.919   1.468  19.449  0.00  0.00    +0.000 OA
ATOM     10  C   UNL     1       3.783   2.678  20.057  0.00  0.00    +0.000 A 
ENDBRANCH   2   6
BRANCH   1  12
ATOM     11  N   UNL     1       5.455   5.661  18.490  0.00  0.00    +0.000 N 
ATOM     12  C   UNL     1       4.296   6.418  18.328  0.00  0.00    +0.000 C 
ATOM     13  O   UNL     1       4.230   7.272  17.453  0.00  0.00    +0.000 OA
ATOM     14  H   UNL     1       5.523   4.990  19.239  0.00  0.00    +0.000 HD
BRANCH  11  16
ATOM     15  C   UNL     1       7.919   5.529  18.372  0.00  0.00    +0.000 C 
ATOM     16  C   UNL     1       6.627   5.891  17.630  0.00  0.00    +0.000 C 
BRANCH  16  17
ATOM     17  C   UNL     1       6.617   5.177  16.273  0.00  0.00    +0.000 A 
ATOM     18  C   UNL     1       5.734   4.090  16.115  0.00  0.00    +0.000 A 
ATOM     19  C   UNL     1       5.533   3.486  14.862  0.00  0.00    +0.000 A 
ATOM     20  C   UNL     1       6.207   3.947  13.724  0.00  0.00    +0.000 A 
ATOM     21  C   UNL     1       7.120   4.998  13.881  0.00  0.00    +0.000 A 
ATOM     22  C   UNL     1       7.322   5.607  15.144  0.00  0.00    +0.000 A 
BRANCH  20  23
ATOM     23  C   UNL     1       5.841   3.291  12.426  0.00  0.00    +0.000 C 
ATOM     24  O   UNL     1       6.633   2.601  11.802  0.00  0.00    +0.000 OA
BRANCH  23  25
ATOM     25  O   UNL     1       4.582   3.483  11.985  0.00  0.00    +0.000 OA
ATOM     26  H   UNL     1       3.903   2.859  12.278  0.00  0.00    +0.000 HD
ENDBRANCH  23  25
ENDBRANCH  20  23
ENDBRANCH  16  17
ENDBRANCH  11  16
ENDBRANCH   1  12
BRANCH   5  27
ATOM     27  C   UNL     1       2.068   8.435  19.577  0.00  0.00    +0.000 C 
BRANCH  27  28
ATOM     28  C   UNL     1       0.904   9.037  20.341  0.00  0.00    +0.000 A 
ATOM     29  C   UNL     1       0.868   8.917  21.737  0.00  0.00    +0.000 A 
ATOM     30  C   UNL     1      -0.000   9.704  22.504  0.00  0.00    +0.000 A 
ATOM     31  C   UNL     1      -0.841  10.642  21.890  0.00  0.00    +0.000 A 
ATOM     32  C   UNL     1      -0.899  10.675  20.491  0.00  0.00    +0.000 A 
ATOM     33  C   UNL     1      -0.030   9.889  19.723  0.00  0.00    +0.000 A 
BRANCH  31  34
ATOM     34  C   UNL     1      -1.587  11.670  22.712  0.00  0.00    +0.000 C 
ATOM     35  F   UNL     1      -0.769  12.583  23.305  0.00  0.00    +0.000 F 
ATOM     36  F   UNL     1      -2.462  12.394  21.957  0.00  0.00    +0.000 F 
ATOM     37  F   UNL     1      -2.324  11.120  23.716  0.00  0.00    +0.000 F 
ENDBRANCH  31  34
ENDBRANCH  27  28
ENDBRANCH   5  27
TORSDOF 9
ENDMDL
MODEL 8
REMARK VINA RESULT:      -7.8      3.846      8.416
REMARK  Name = 
REMARK  10 active torsions:
REMARK  status: ('A' for Active; 'I' for Inactive)
REMARK    1  A    between atoms: C_1  and  C_2
REMARK    2  A    between atoms: C_2  and  N_3
REMARK    3  A    between atoms: C_2  and  C_27
REMARK    4  A    between atoms: C_4  and  C_6
REMARK    5  A    between atoms: C_7  and  C_8
REMARK    6  A    between atoms: N_15  and  C_16
REMARK    7  A    between atoms: C_16  and  C_17
REMARK    8  A    between atoms: C_20  and  C_21
REMARK    9  A    between atoms: C_30  and  C_31
REMARK   10  A    between atoms: C_31  and  O_33
REMARK                            x       y       z     vdW  Elec       q    Type
REMARK                         _______ _______ _______ _____ _____    ______ ____
ROOT
ATOM      1  C   UNL     1       6.090   5.949  17.636  0.00  0.00    +0.000 A 
ATOM      2  C   UNL     1       7.353   6.475  17.910  0.00  0.00    +0.000 A 
ATOM      3  N   UNL     1       8.276   5.473  18.013  0.00  0.00    +0.000 NA
ATOM      4  N   UNL     1       7.658   4.327  17.816  0.00  0.00    +0.000 NA
ATOM      5  N   UNL     1       6.353   4.592  17.582  0.00  0.00    +0.000 N 
ENDROOT
BRANCH   2   6
ATOM      6  C   UNL     1       7.817   7.839  18.119  0.00  0.00    +0.000 A 
ATOM      7  C   UNL     1       7.429   8.957  17.329  0.00  0.00    +0.000 A 
ATOM      8  C   UNL     1       8.142  10.032  17.809  0.00  0.00    +0.000 A 
ATOM      9  O   UNL     1       8.938   9.649  18.842  0.00  0.00    +0.000 OA
ATOM     10  C   UNL     1       8.730   8.317  19.029  0.00  0.00    +0.000 A 
ENDBRANCH   2   6
BRANCH   1  12
ATOM     11  N   UNL     1       3.880   6.729  18.297  0.00  0.00    +0.000 N 
ATOM     12  C   UNL     1       4.877   6.673  17.325  0.00  0.00    +0.000 C 
ATOM     13  O   UNL     1       4.728   7.242  16.251  0.00  0.00    +0.000 OA
ATOM     14  H   UNL     1       3.986   6.223  19.163  0.00  0.00    +0.000 HD
BRANCH  11  16
ATOM     15  C   UNL     1       1.560   6.498  17.479  0.00  0.00    +0.000 C 
ATOM     16  C   UNL     1       2.622   7.450  18.041  0.00  0.00    +0.000 C 
BRANCH  16  17
ATOM     17  C   UNL     1       2.028   8.210  19.233  0.00  0.00    +0.000 A 
ATOM     18  C   UNL     1       1.506   9.496  18.991  0.00  0.00    +0.000 A 
ATOM     19  C   UNL     1       0.792  10.195  19.979  0.00  0.00    +0.000 A 
ATOM     20  C   UNL     1       0.575   9.632  21.244  0.00  0.00    +0.000 A 
ATOM     21  C   UNL     1       1.130   8.373  21.507  0.00  0.00    +0.000 A 
ATOM     22  C   UNL     1       1.849   7.669  20.511  0.00  0.00    +0.000 A 
BRANCH  20  23
ATOM     23  C   UNL     1      -0.282  10.426  22.185  0.00  0.00    +0.000 C 
ATOM     24  O   UNL     1      -1.162  11.175  21.787  0.00  0.00    +0.000 OA
BRANCH  23  25
ATOM     25  O   UNL     1      -0.049  10.259  23.501  0.00  0.00    +0.000 OA
ATOM     26  H   UNL     1      -0.707  10.605  24.122  0.00  0.00    +0.000 HD
ENDBRANCH  23  25
ENDBRANCH  20  23
ENDBRANCH  16  17
ENDBRANCH  11  16
ENDBRANCH   1  12
BRANCH   5  27
ATOM     27  C   UNL     1       5.562   3.505  17.034  0.00  0.00    +0.000 C 
BRANCH  27  28
ATOM     28  C   UNL     1       4.341   3.123  17.849  0.00  0.00    +0.000 A 
ATOM     29  C   UNL     1       4.458   3.003  19.240  0.00  0.00    +0.000 A 
ATOM     30  C   UNL     1       3.321   2.960  20.055  0.00  0.00    +0.000 A 
ATOM     31  C   UNL     1       2.039   3.052  19.497  0.00  0.00    +0.000 A 
ATOM     32  C   UNL     1       1.915   3.043  18.101  0.00  0.00    +0.000 A 
ATOM     33  C   UNL     1       3.052   3.088  17.285  0.00  0.00    +0.000 A 
BRANCH  31  34
ATOM     34  C   UNL     1       0.824   3.266  20.372  0.00  0.00    +0.000 C 
ATOM     35  F   UNL     1       0.576   4.579  20.637  0.00  0.00    +0.000 F 
ATOM     36  F   UNL     1      -0.314   2.784  19.798  0.00  0.00    +0.000 F 
ATOM     37  F   UNL     1       0.922   2.651  21.583  0.00  0.00    +0.000 F 
ENDBRANCH  31  34
ENDBRANCH  27  28
ENDBRANCH   5  27
TORSDOF 9
ENDMDL
MODEL 9
REMARK VINA RESULT:      -7.8      5.620     10.592
REMARK  Name = 
REMARK  10 active torsions:
REMARK  status: ('A' for Active; 'I' for Inactive)
REMARK    1  A    between atoms: C_1  and  C_2
REMARK    2  A    between atoms: C_2  and  N_3
REMARK    3  A    between atoms: C_2  and  C_27
REMARK    4  A    between atoms: C_4  and  C_6
REMARK    5  A    between atoms: C_7  and  C_8
REMARK    6  A    between atoms: N_15  and  C_16
REMARK    7  A    between atoms: C_16  and  C_17
REMARK    8  A    between atoms: C_20  and  C_21
REMARK    9  A    between atoms: C_30  and  C_31
REMARK   10  A    between atoms: C_31  and  O_33
REMARK                            x       y       z     vdW  Elec       q    Type
REMARK                         _______ _______ _______ _____ _____    ______ ____
ROOT
ATOM      1  C   UNL     1       0.391   9.781  20.425  0.00  0.00    +0.000 A 
ATOM      2  C   UNL     1       0.225  10.230  21.735  0.00  0.00    +0.000 A 
ATOM      3  N   UNL     1       0.999   9.501  22.593  0.00  0.00    +0.000 NA
ATOM      4  N   UNL     1       1.656   8.604  21.887  0.00  0.00    +0.000 NA
ATOM      5  N   UNL     1       1.311   8.761  20.589  0.00  0.00    +0.000 N 
ENDROOT
BRANCH   2   6
ATOM      6  C   UNL     1      -0.614  11.273  22.309  0.00  0.00    +0.000 A 
ATOM      7  C   UNL     1      -1.686  11.043  23.216  0.00  0.00    +0.000 A 
ATOM      8  C   UNL     1      -2.258  12.272  23.453  0.00  0.00    +0.000 A 
ATOM      9  O   UNL     1      -1.607  13.239  22.756  0.00  0.00    +0.000 OA
ATOM     10  C   UNL     1      -0.606  12.626  22.069  0.00  0.00    +0.000 A 
ENDBRANCH   2   6
BRANCH   1  12
ATOM     11  N   UNL     1      -1.519  10.301  19.007  0.00  0.00    +0.000 N 
ATOM     12  C   UNL     1      -0.143  10.364  19.213  0.00  0.00    +0.000 C 
ATOM     13  O   UNL     1       0.582  10.918  18.396  0.00  0.00    +0.000 OA
ATOM     14  H   UNL     1      -2.108   9.805  19.658  0.00  0.00    +0.000 HD
BRANCH  11  16
ATOM     15  C   UNL     1      -2.082   9.865  16.640  0.00  0.00    +0.000 C 
ATOM     16  C   UNL     1      -2.123  10.875  17.794  0.00  0.00    +0.000 C 
BRANCH  16  17
ATOM     17  C   UNL     1      -3.555  11.403  17.940  0.00  0.00    +0.000 A 
ATOM     18  C   UNL     1      -3.917  11.972  19.177  0.00  0.00    +0.000 A 
ATOM     19  C   UNL     1      -5.145  12.632  19.350  0.00  0.00    +0.000 A 
ATOM     20  C   UNL     1      -6.056  12.745  18.291  0.00  0.00    +0.000 A 
ATOM     21  C   UNL     1      -5.724  12.143  17.071  0.00  0.00    +0.000 A 
ATOM     22  C   UNL     1      -4.485  11.479  16.897  0.00  0.00    +0.000 A 
BRANCH  20  23
ATOM     23  C   UNL     1      -7.290  13.554  18.562  0.00  0.00    +0.000 C 
ATOM     24  O   UNL     1      -7.876  14.160  17.677  0.00  0.00    +0.000 OA
BRANCH  23  25
ATOM     25  O   UNL     1      -7.739  13.565  19.832  0.00  0.00    +0.000 OA
ATOM     26  H   UNL     1      -8.515  14.109  20.030  0.00  0.00    +0.000 HD
ENDBRANCH  23  25
ENDBRANCH  20  23
ENDBRANCH  16  17
ENDBRANCH  11  16
ENDBRANCH   1  12
BRANCH   5  27
ATOM     27  C   UNL     1       2.149   8.087  19.613  0.00  0.00    +0.000 C 
BRANCH  27  28
ATOM     28  C   UNL     1       1.874   6.606  19.441  0.00  0.00    +0.000 A 
ATOM     29  C   UNL     1       1.928   6.045  18.158  0.00  0.00    +0.000 A 
ATOM     30  C   UNL     1       1.989   4.657  17.983  0.00  0.00    +0.000 A 
ATOM     31  C   UNL     1       2.012   3.799  19.090  0.00  0.00    +0.000 A 
ATOM     32  C   UNL     1       1.829   4.348  20.367  0.00  0.00    +0.000 A 
ATOM     33  C   UNL     1       1.770   5.737  20.542  0.00  0.00    +0.000 A 
BRANCH  31  34
ATOM     34  C   UNL     1       2.335   2.331  18.928  0.00  0.00    +0.000 C 
ATOM     35  F   UNL     1       2.503   1.955  17.630  0.00  0.00    +0.000 F 
ATOM     36  F   UNL     1       3.491   1.986  19.564  0.00  0.00    +0.000 F 
ATOM     37  F   UNL     1       1.372   1.511  19.433  0.00  0.00    +0.000 F 
ENDBRANCH  31  34
ENDBRANCH  27  28
ENDBRANCH   5  27
TORSDOF 9
ENDMDL
