MODEL 1
REMARK VINA RESULT:      -7.6      0.000      0.000
REMARK  Name = 
REMARK  12 active torsions:
REMARK  status: ('A' for Active; 'I' for Inactive)
REMARK    1  A    between atoms: C_1  and  C_2
REMARK    2  A    between atoms: C_10  and  C_11
REMARK    3  A    between atoms: C_12  and  C_13
REMARK    4  A    between atoms: N_15  and  C_16
REMARK    5  A    between atoms: C_16  and  C_17
REMARK    6  A    between atoms: C_17  and  C_18
REMARK    7  A    between atoms: C_18  and  N_19
REMARK    8  A    between atoms: C_20  and  O_22
REMARK    9  A    between atoms: O_22  and  C_23
REMARK   10  A    between atoms: C_23  and  C_24
REMARK   11  A    between atoms: C_23  and  C_25
REMARK   12  A    between atoms: C_23  and  C_26
REMARK                            x       y       z     vdW  Elec       q    Type
REMARK                         _______ _______ _______ _____ _____    ______ ____
ROOT
ATOM      1  C   UNL     1      -2.042  12.567  19.573  0.00  0.00    +0.000 A 
ATOM      2  C   UNL     1      -0.819  12.392  18.901  0.00  0.00    +0.000 A 
ATOM      3  N   UNL     1      -0.792  11.027  18.787  0.00  0.00    +0.000 N 
ATOM      4  C   UNL     1      -1.692  10.908  17.808  0.00  0.00    +0.000 A 
ATOM      5  C   UNL     1      -1.884   9.906  16.857  0.00  0.00    +0.000 A 
ATOM      6  C   UNL     1      -2.962  10.136  16.050  0.00  0.00    +0.000 A 
ATOM      7  C   UNL     1      -4.067  10.501  16.792  0.00  0.00    +0.000 A 
ATOM      8  C   UNL     1      -3.962  11.454  17.866  0.00  0.00    +0.000 A 
ATOM      9  C   UNL     1      -2.680  11.804  18.394  0.00  0.00    +0.000 A 
ENDROOT
BRANCH   1  11
ATOM     10  C   UNL     1      -0.421  14.324  20.932  0.00  0.00    +0.000 C 
ATOM     11  C   UNL     1      -1.361  13.305  20.728  0.00  0.00    +0.000 C 
ATOM     12  C   UNL     1      -1.461  12.712  22.137  0.00  0.00    +0.000 C 
ATOM     13  O   UNL     1      -2.214  11.822  22.485  0.00  0.00    +0.000 OA
ATOM     14  N   UNL     1      -0.602  13.325  22.974  0.00  0.00    +0.000 N 
ATOM     15  C   UNL     1      -0.180  14.455  22.400  0.00  0.00    +0.000 C 
ATOM     16  O   UNL     1       0.284  15.408  23.004  0.00  0.00    +0.000 OA
ATOM     17  H   UNL     1      -0.563  13.195  23.966  0.00  0.00    +0.000 HD
BRANCH  10  27
ATOM     18  C   UNL     1      -1.454  17.311  19.843  0.00  0.00    +0.000 C 
ATOM     19  C   UNL     1      -0.204  16.509  19.634  0.00  0.00    +0.000 A 
ATOM     20  N   UNL     1       0.635  16.949  18.641  0.00  0.00    +0.000 N 
ATOM     21  C   UNL     1       1.747  16.165  18.552  0.00  0.00    +0.000 A 
ATOM     22  C   UNL     1       2.817  16.269  17.656  0.00  0.00    +0.000 A 
ATOM     23  C   UNL     1       3.861  15.360  17.799  0.00  0.00    +0.000 A 
ATOM     24  C   UNL     1       3.807  14.372  18.775  0.00  0.00    +0.000 A 
ATOM     25  C   UNL     1       2.684  14.235  19.603  0.00  0.00    +0.000 A 
ATOM     26  C   UNL     1       1.625  15.161  19.517  0.00  0.00    +0.000 A 
ATOM     27  C   UNL     1       0.331  15.307  20.142  0.00  0.00    +0.000 A 
ATOM     28  H   UNL     1       0.442  17.729  18.024  0.00  0.00    +0.000 HD
ENDBRANCH  10  27
ENDBRANCH   1  11
BRANCH   3  29
ATOM     29  C   UNL     1      -0.713  10.007  19.818  0.00  0.00    +0.000 C 
BRANCH  29  30
ATOM     30  C   UNL     1       0.677  10.081  20.359  0.00  0.00    +0.000 C 
BRANCH  30  31
ATOM     31  C   UNL     1       1.127   8.668  20.697  0.00  0.00    +0.000 C 
BRANCH  31  32
ATOM     32  N   UNL     1       1.974   8.166  19.668  0.00  0.00    +0.000 N 
ATOM     33  C   UNL     1       2.309   6.853  19.709  0.00  0.00    +0.000 C 
ATOM     34  O   UNL     1       1.917   6.094  20.583  0.00  0.00    +0.000 OA
ATOM     35  H   UNL     1       2.278   8.742  18.898  0.00  0.00    +0.000 HD
BRANCH  33  36
ATOM     36  O   UNL     1       3.143   6.550  18.692  0.00  0.00    +0.000 OA
BRANCH  36  37
ATOM     37  C   UNL     1       3.207   5.157  18.318  0.00  0.00    +0.000 C 
ATOM     38  C   UNL     1       1.838   4.646  17.846  0.00  0.00    +0.000 C 
ATOM     39  C   UNL     1       4.182   5.077  17.136  0.00  0.00    +0.000 C 
ATOM     40  C   UNL     1       3.801   4.333  19.473  0.00  0.00    +0.000 C 
ENDBRANCH  36  37
ENDBRANCH  33  36
ENDBRANCH  31  32
ENDBRANCH  30  31
ENDBRANCH  29  30
ENDBRANCH   3  29
TORSDOF 8
ENDMDL
MODEL 2
REMARK VINA RESULT:      -7.5      2.766      8.004
REMARK  Name = 
REMARK  12 active torsions:
REMARK  status: ('A' for Active; 'I' for Inactive)
REMARK    1  A    between atoms: C_1  and  C_2
REMARK    2  A    between atoms: C_10  and  C_11
REMARK    3  A    between atoms: C_12  and  C_13
REMARK    4  A    between atoms: N_15  and  C_16
REMARK    5  A    between atoms: C_16  and  C_17
REMARK    6  A    between atoms: C_17  and  C_18
REMARK    7  A    between atoms: C_18  and  N_19
REMARK    8  A    between atoms: C_20  and  O_22
REMARK    9  A    between atoms: O_22  and  C_23
REMARK   10  A    between atoms: C_23  and  C_24
REMARK   11  A    between atoms: C_23  and  C_25
REMARK   12  A    between atoms: C_23  and  C_26
REMARK                            x       y       z     vdW  Elec       q    Type
REMARK                         _______ _______ _______ _____ _____    ______ ____
ROOT
ATOM      1  C   UNL     1       0.447  14.631  19.665  0.00  0.00    +0.000 A 
ATOM      2  C   UNL     1      -0.825  14.708  19.070  0.00  0.00    +0.000 A 
ATOM      3  N   UNL     1      -1.162  16.000  19.373  0.00  0.00    +0.000 N 
ATOM      4  C   UNL     1      -0.376  16.608  18.480  0.00  0.00    +0.000 A 
ATOM      5  C   UNL     1      -0.474  17.861  17.877  0.00  0.00    +0.000 A 
ATOM      6  C   UNL     1       0.574  18.135  17.044  0.00  0.00    +0.000 A 
ATOM      7  C   UNL     1       1.778  17.835  17.648  0.00  0.00    +0.000 A 
ATOM      8  C   UNL     1       1.958  16.611  18.385  0.00  0.00    +0.000 A 
ATOM      9  C   UNL     1       0.822  15.834  18.775  0.00  0.00    +0.000 A 
ENDROOT
BRANCH   1  11
ATOM     10  C   UNL     1      -0.551  12.178  20.405  0.00  0.00    +0.000 C 
ATOM     11  C   UNL     1       0.024  13.449  20.540  0.00  0.00    +0.000 C 
ATOM     12  C   UNL     1      -0.078  13.657  22.055  0.00  0.00    +0.000 C 
ATOM     13  O   UNL     1       0.355  14.611  22.675  0.00  0.00    +0.000 OA
ATOM     14  N   UNL     1      -0.707  12.619  22.637  0.00  0.00    +0.000 N 
ATOM     15  C   UNL     1      -0.748  11.604  21.769  0.00  0.00    +0.000 C 
ATOM     16  O   UNL     1      -0.894  10.433  22.079  0.00  0.00    +0.000 OA
ATOM     17  H   UNL     1      -0.792  12.469  23.624  0.00  0.00    +0.000 HD
BRANCH  10  27
ATOM     18  C   UNL     1       1.318   9.857  18.888  0.00  0.00    +0.000 C 
ATOM     19  C   UNL     1      -0.077  10.365  18.674  0.00  0.00    +0.000 A 
ATOM     20  N   UNL     1      -0.686   9.981  17.506  0.00  0.00    +0.000 N 
ATOM     21  C   UNL     1      -1.954  10.476  17.423  0.00  0.00    +0.000 A 
ATOM     22  C   UNL     1      -2.880  10.331  16.386  0.00  0.00    +0.000 A 
ATOM     23  C   UNL     1      -4.135  10.907  16.563  0.00  0.00    +0.000 A 
ATOM     24  C   UNL     1      -4.423  11.627  17.717  0.00  0.00    +0.000 A 
ATOM     25  C   UNL     1      -3.448  11.831  18.704  0.00  0.00    +0.000 A 
ATOM     26  C   UNL     1      -2.180  11.229  18.580  0.00  0.00    +0.000 A 
ATOM     27  C   UNL     1      -0.950  11.254  19.336  0.00  0.00    +0.000 A 
ATOM     28  H   UNL     1      -0.245   9.433  16.777  0.00  0.00    +0.000 HD
ENDBRANCH  10  27
ENDBRANCH   1  11
BRANCH   3  29
ATOM     29  C   UNL     1      -1.400  16.625  20.663  0.00  0.00    +0.000 C 
BRANCH  29  30
ATOM     30  C   UNL     1      -2.620  17.468  20.488  0.00  0.00    +0.000 C 
BRANCH  30  31
ATOM     31  C   UNL     1      -3.837  16.563  20.600  0.00  0.00    +0.000 C 
BRANCH  31  32
ATOM     32  N   UNL     1      -3.764  15.793  21.796  0.00  0.00    +0.000 N 
ATOM     33  C   UNL     1      -4.928  15.355  22.338  0.00  0.00    +0.000 C 
ATOM     34  O   UNL     1      -6.022  15.592  21.845  0.00  0.00    +0.000 OA
ATOM     35  H   UNL     1      -2.883  15.529  22.209  0.00  0.00    +0.000 HD
BRANCH  33  36
ATOM     36  O   UNL     1      -4.688  14.680  23.481  0.00  0.00    +0.000 OA
BRANCH  36  37
ATOM     37  C   UNL     1      -4.891  13.251  23.428  0.00  0.00    +0.000 C 
ATOM     38  C   UNL     1      -4.332  12.659  22.126  0.00  0.00    +0.000 C 
ATOM     39  C   UNL     1      -4.096  12.663  24.602  0.00  0.00    +0.000 C 
ATOM     40  C   UNL     1      -6.377  12.926  23.658  0.00  0.00    +0.000 C 
ENDBRANCH  36  37
ENDBRANCH  33  36
ENDBRANCH  31  32
ENDBRANCH  30  31
ENDBRANCH  29  30
ENDBRANCH   3  29
TORSDOF 8
ENDMDL
MODEL 3
REMARK VINA RESULT:      -7.4      2.809      8.115
REMARK  Name = 
REMARK  12 active torsions:
REMARK  status: ('A' for Active; 'I' for Inactive)
REMARK    1  A    between atoms: C_1  and  C_2
REMARK    2  A    between atoms: C_10  and  C_11
REMARK    3  A    between atoms: C_12  and  C_13
REMARK    4  A    between atoms: N_15  and  C_16
REMARK    5  A    between atoms: C_16  and  C_17
REMARK    6  A    between atoms: C_17  and  C_18
REMARK    7  A    between atoms: C_18  and  N_19
REMARK    8  A    between atoms: C_20  and  O_22
REMARK    9  A    between atoms: O_22  and  C_23
REMARK   10  A    between atoms: C_23  and  C_24
REMARK   11  A    between atoms: C_23  and  C_25
REMARK   12  A    between atoms: C_23  and  C_26
REMARK                            x       y       z     vdW  Elec       q    Type
REMARK                         _______ _______ _______ _____ _____    ______ ____
ROOT
ATOM      1  C   UNL     1       0.701  14.575  19.456  0.00  0.00    +0.000 A 
ATOM      2  C   UNL     1      -0.582  14.742  18.903  0.00  0.00    +0.000 A 
ATOM      3  N   UNL     1      -0.811  16.058  19.202  0.00  0.00    +0.000 N 
ATOM      4  C   UNL     1      -0.013  16.597  18.276  0.00  0.00    +0.000 A 
ATOM      5  C   UNL     1      -0.038  17.849  17.662  0.00  0.00    +0.000 A 
ATOM      6  C   UNL     1       0.998  18.035  16.791  0.00  0.00    +0.000 A 
ATOM      7  C   UNL     1       2.196  17.652  17.358  0.00  0.00    +0.000 A 
ATOM      8  C   UNL     1       2.309  16.424  18.102  0.00  0.00    +0.000 A 
ATOM      9  C   UNL     1       1.133  15.738  18.539  0.00  0.00    +0.000 A 
ENDROOT
BRANCH   1  11
ATOM     10  C   UNL     1      -0.478  12.224  20.262  0.00  0.00    +0.000 C 
ATOM     11  C   UNL     1       0.221  13.436  20.358  0.00  0.00    +0.000 C 
ATOM     12  C   UNL     1       0.228  13.649  21.875  0.00  0.00    +0.000 C 
ATOM     13  O   UNL     1       0.784  14.557  22.466  0.00  0.00    +0.000 OA
ATOM     14  N   UNL     1      -0.461  12.674  22.497  0.00  0.00    +0.000 N 
ATOM     15  C   UNL     1      -0.648  11.669  21.637  0.00  0.00    +0.000 C 
ATOM     16  O   UNL     1      -0.884  10.516  21.959  0.00  0.00    +0.000 OA
ATOM     17  H   UNL     1      -0.501  12.530  23.488  0.00  0.00    +0.000 HD
BRANCH  10  27
ATOM     18  C   UNL     1       1.145   9.935  18.443  0.00  0.00    +0.000 C 
ATOM     19  C   UNL     1      -0.256  10.468  18.425  0.00  0.00    +0.000 A 
ATOM     20  N   UNL     1      -1.014  10.133  17.331  0.00  0.00    +0.000 N 
ATOM     21  C   UNL     1      -2.273  10.647  17.425  0.00  0.00    +0.000 A 
ATOM     22  C   UNL     1      -3.326  10.551  16.509  0.00  0.00    +0.000 A 
ATOM     23  C   UNL     1      -4.538  11.136  16.862  0.00  0.00    +0.000 A 
ATOM     24  C   UNL     1      -4.666  11.818  18.067  0.00  0.00    +0.000 A 
ATOM     25  C   UNL     1      -3.572  11.975  18.929  0.00  0.00    +0.000 A 
ATOM     26  C   UNL     1      -2.339  11.362  18.626  0.00  0.00    +0.000 A 
ATOM     27  C   UNL     1      -1.024  11.345  19.221  0.00  0.00    +0.000 A 
ATOM     28  H   UNL     1      -0.677   9.606  16.533  0.00  0.00    +0.000 HD
ENDBRANCH  10  27
ENDBRANCH   1  11
BRANCH   3  29
ATOM     29  C   UNL     1      -0.957  16.711  20.492  0.00  0.00    +0.000 C 
BRANCH  29  30
ATOM     30  C   UNL     1      -2.287  16.281  21.017  0.00  0.00    +0.000 C 
BRANCH  30  31
ATOM     31  C   UNL     1      -2.286  16.484  22.525  0.00  0.00    +0.000 C 
BRANCH  31  32
ATOM     32  N   UNL     1      -3.565  16.162  23.061  0.00  0.00    +0.000 N 
ATOM     33  C   UNL     1      -3.707  14.965  23.683  0.00  0.00    +0.000 C 
ATOM     34  O   UNL     1      -2.792  14.163  23.798  0.00  0.00    +0.000 OA
ATOM     35  H   UNL     1      -4.335  16.813  23.036  0.00  0.00    +0.000 HD
BRANCH  33  36
ATOM     36  O   UNL     1      -4.981  14.800  24.095  0.00  0.00    +0.000 OA
BRANCH  36  37
ATOM     37  C   UNL     1      -5.808  13.948  23.273  0.00  0.00    +0.000 C 
ATOM     38  C   UNL     1      -5.091  13.571  21.969  0.00  0.00    +0.000 C 
ATOM     39  C   UNL     1      -6.037  12.665  24.083  0.00  0.00    +0.000 C 
ATOM     40  C   UNL     1      -7.178  14.611  23.047  0.00  0.00    +0.000 C 
ENDBRANCH  36  37
ENDBRANCH  33  36
ENDBRANCH  31  32
ENDBRANCH  30  31
ENDBRANCH  29  30
ENDBRANCH   3  29
TORSDOF 8
ENDMDL
MODEL 4
REMARK VINA RESULT:      -7.4      4.026      7.792
REMARK  Name = 
REMARK  12 active torsions:
REMARK  status: ('A' for Active; 'I' for Inactive)
REMARK    1  A    between atoms: C_1  and  C_2
REMARK    2  A    between atoms: C_10  and  C_11
REMARK    3  A    between atoms: C_12  and  C_13
REMARK    4  A    between atoms: N_15  and  C_16
REMARK    5  A    between atoms: C_16  and  C_17
REMARK    6  A    between atoms: C_17  and  C_18
REMARK    7  A    between atoms: C_18  and  N_19
REMARK    8  A    between atoms: C_20  and  O_22
REMARK    9  A    between atoms: O_22  and  C_23
REMARK   10  A    between atoms: C_23  and  C_24
REMARK   11  A    between atoms: C_23  and  C_25
REMARK   12  A    between atoms: C_23  and  C_26
REMARK                            x       y       z     vdW  Elec       q    Type
REMARK                         _______ _______ _______ _____ _____    ______ ____
ROOT
ATOM      1  C   UNL     1       1.651  14.325  20.863  0.00  0.00    +0.000 A 
ATOM      2  C   UNL     1       2.597  13.330  20.555  0.00  0.00    +0.000 A 
ATOM      3  N   UNL     1       3.620  14.102  20.071  0.00  0.00    +0.000 N 
ATOM      4  C   UNL     1       4.056  14.581  21.239  0.00  0.00    +0.000 A 
ATOM      5  C   UNL     1       5.305  15.070  21.620  0.00  0.00    +0.000 A 
ATOM      6  C   UNL     1       5.332  15.517  22.910  0.00  0.00    +0.000 A 
ATOM      7  C   UNL     1       4.248  16.328  23.176  0.00  0.00    +0.000 A 
ATOM      8  C   UNL     1       2.924  15.968  22.739  0.00  0.00    +0.000 A 
ATOM      9  C   UNL     1       2.744  14.940  21.760  0.00  0.00    +0.000 A 
ENDROOT
BRANCH   1  11
ATOM     10  C   UNL     1       0.109  12.415  19.622  0.00  0.00    +0.000 C 
ATOM     11  C   UNL     1       0.605  13.686  19.947  0.00  0.00    +0.000 C 
ATOM     12  C   UNL     1      -0.003  14.533  18.824  0.00  0.00    +0.000 C 
ATOM     13  O   UNL     1       0.093  15.741  18.710  0.00  0.00    +0.000 OA
ATOM     14  N   UNL     1      -0.692  13.760  17.963  0.00  0.00    +0.000 N 
ATOM     15  C   UNL     1      -0.899  12.569  18.531  0.00  0.00    +0.000 C 
ATOM     16  O   UNL     1      -1.781  11.790  18.207  0.00  0.00    +0.000 OA
ATOM     17  H   UNL     1      -1.271  14.093  17.217  0.00  0.00    +0.000 HD
BRANCH  10  27
ATOM     18  C   UNL     1      -0.717  11.118  22.591  0.00  0.00    +0.000 C 
ATOM     19  C   UNL     1      -0.028  10.570  21.378  0.00  0.00    +0.000 A 
ATOM     20  N   UNL     1       0.594   9.356  21.535  0.00  0.00    +0.000 N 
ATOM     21  C   UNL     1       1.167   8.940  20.369  0.00  0.00    +0.000 A 
ATOM     22  C   UNL     1       1.907   7.777  20.129  0.00  0.00    +0.000 A 
ATOM     23  C   UNL     1       2.355   7.562  18.829  0.00  0.00    +0.000 A 
ATOM     24  C   UNL     1       2.097   8.495  17.831  0.00  0.00    +0.000 A 
ATOM     25  C   UNL     1       1.427   9.693  18.117  0.00  0.00    +0.000 A 
ATOM     26  C   UNL     1       0.923   9.929  19.412  0.00  0.00    +0.000 A 
ATOM     27  C   UNL     1       0.254  11.025  20.072  0.00  0.00    +0.000 A 
ATOM     28  H   UNL     1       0.657   8.848  22.409  0.00  0.00    +0.000 HD
ENDBRANCH  10  27
ENDBRANCH   1  11
BRANCH   3  29
ATOM     29  C   UNL     1       3.675  14.941  18.886  0.00  0.00    +0.000 C 
BRANCH  29  30
ATOM     30  C   UNL     1       4.639  14.275  17.961  0.00  0.00    +0.000 C 
BRANCH  30  31
ATOM     31  C   UNL     1       5.925  15.087  17.956  0.00  0.00    +0.000 C 
BRANCH  31  32
ATOM     32  N   UNL     1       7.019  14.266  17.559  0.00  0.00    +0.000 N 
ATOM     33  C   UNL     1       8.219  14.480  18.155  0.00  0.00    +0.000 C 
ATOM     34  O   UNL     1       8.394  15.338  19.007  0.00  0.00    +0.000 OA
ATOM     35  H   UNL     1       6.909  13.511  16.899  0.00  0.00    +0.000 HD
BRANCH  33  36
ATOM     36  O   UNL     1       9.151  13.651  17.640  0.00  0.00    +0.000 OA
BRANCH  36  37
ATOM     37  C   UNL     1       9.955  12.929  18.599  0.00  0.00    +0.000 C 
ATOM     38  C   UNL     1       9.124  12.522  19.824  0.00  0.00    +0.000 C 
ATOM     39  C   UNL     1      10.419  11.651  17.888  0.00  0.00    +0.000 C 
ATOM     40  C   UNL     1      11.206  13.750  18.954  0.00  0.00    +0.000 C 
ENDBRANCH  36  37
ENDBRANCH  33  36
ENDBRANCH  31  32
ENDBRANCH  30  31
ENDBRANCH  29  30
ENDBRANCH   3  29
TORSDOF 8
ENDMDL
MODEL 5
REMARK VINA RESULT:      -7.4      2.830      7.916
REMARK  Name = 
REMARK  12 active torsions:
REMARK  status: ('A' for Active; 'I' for Inactive)
REMARK    1  A    between atoms: C_1  and  C_2
REMARK    2  A    between atoms: C_10  and  C_11
REMARK    3  A    between atoms: C_12  and  C_13
REMARK    4  A    between atoms: N_15  and  C_16
REMARK    5  A    between atoms: C_16  and  C_17
REMARK    6  A    between atoms: C_17  and  C_18
REMARK    7  A    between atoms: C_18  and  N_19
REMARK    8  A    between atoms: C_20  and  O_22
REMARK    9  A    between atoms: O_22  and  C_23
REMARK   10  A    between atoms: C_23  and  C_24
REMARK   11  A    between atoms: C_23  and  C_25
REMARK   12  A    between atoms: C_23  and  C_26
REMARK                            x       y       z     vdW  Elec       q    Type
REMARK                         _______ _______ _______ _____ _____    ______ ____
ROOT
ATOM      1  C   UNL     1       0.859  14.520  19.484  0.00  0.00    +0.000 A 
ATOM      2  C   UNL     1      -0.409  14.806  18.947  0.00  0.00    +0.000 A 
ATOM      3  N   UNL     1      -0.505  16.141  19.235  0.00  0.00    +0.000 N 
ATOM      4  C   UNL     1       0.329  16.591  18.293  0.00  0.00    +0.000 A 
ATOM      5  C   UNL     1       0.417  17.833  17.665  0.00  0.00    +0.000 A 
ATOM      6  C   UNL     1       1.453  17.910  16.779  0.00  0.00    +0.000 A 
ATOM      7  C   UNL     1       2.616  17.416  17.332  0.00  0.00    +0.000 A 
ATOM      8  C   UNL     1       2.621  16.190  18.088  0.00  0.00    +0.000 A 
ATOM      9  C   UNL     1       1.389  15.626  18.549  0.00  0.00    +0.000 A 
ENDROOT
BRANCH   1  11
ATOM     10  C   UNL     1      -0.493  12.278  20.325  0.00  0.00    +0.000 C 
ATOM     11  C   UNL     1       0.284  13.442  20.405  0.00  0.00    +0.000 C 
ATOM     12  C   UNL     1       0.273  13.697  21.916  0.00  0.00    +0.000 C 
ATOM     13  O   UNL     1       0.876  14.582  22.494  0.00  0.00    +0.000 OA
ATOM     14  N   UNL     1      -0.493  12.788  22.547  0.00  0.00    +0.000 N 
ATOM     15  C   UNL     1      -0.730  11.774  21.710  0.00  0.00    +0.000 C 
ATOM     16  O   UNL     1      -1.051  10.649  22.057  0.00  0.00    +0.000 OA
ATOM     17  H   UNL     1      -0.565  12.675  23.540  0.00  0.00    +0.000 HD
BRANCH  10  27
ATOM     18  C   UNL     1       1.066  10.010  18.426  0.00  0.00    +0.000 C 
ATOM     19  C   UNL     1      -0.335  10.540  18.463  0.00  0.00    +0.000 A 
ATOM     20  N   UNL     1      -1.131  10.215  17.394  0.00  0.00    +0.000 N 
ATOM     21  C   UNL     1      -2.387  10.726  17.539  0.00  0.00    +0.000 A 
ATOM     22  C   UNL     1      -3.472  10.637  16.660  0.00  0.00    +0.000 A 
ATOM     23  C   UNL     1      -4.671  11.216  17.063  0.00  0.00    +0.000 A 
ATOM     24  C   UNL     1      -4.757  11.886  18.278  0.00  0.00    +0.000 A 
ATOM     25  C   UNL     1      -3.633  12.036  19.102  0.00  0.00    +0.000 A 
ATOM     26  C   UNL     1      -2.411  11.428  18.748  0.00  0.00    +0.000 A 
ATOM     27  C   UNL     1      -1.075  11.407  19.295  0.00  0.00    +0.000 A 
ATOM     28  H   UNL     1      -0.823   9.697  16.579  0.00  0.00    +0.000 HD
ENDBRANCH  10  27
ENDBRANCH   1  11
BRANCH   3  29
ATOM     29  C   UNL     1      -0.566  16.817  20.520  0.00  0.00    +0.000 C 
BRANCH  29  30
ATOM     30  C   UNL     1      -1.839  17.598  20.508  0.00  0.00    +0.000 C 
BRANCH  30  31
ATOM     31  C   UNL     1      -2.630  17.228  21.753  0.00  0.00    +0.000 C 
BRANCH  31  32
ATOM     32  N   UNL     1      -3.187  15.926  21.608  0.00  0.00    +0.000 N 
ATOM     33  C   UNL     1      -2.962  15.028  22.600  0.00  0.00    +0.000 C 
ATOM     34  O   UNL     1      -2.309  15.292  23.599  0.00  0.00    +0.000 OA
ATOM     35  H   UNL     1      -3.776  15.680  20.828  0.00  0.00    +0.000 HD
BRANCH  33  36
ATOM     36  O   UNL     1      -3.521  13.840  22.292  0.00  0.00    +0.000 OA
BRANCH  36  37
ATOM     37  C   UNL     1      -4.665  13.453  23.083  0.00  0.00    +0.000 C 
ATOM     38  C   UNL     1      -4.246  12.577  24.272  0.00  0.00    +0.000 C 
ATOM     39  C   UNL     1      -5.262  14.754  23.634  0.00  0.00    +0.000 C 
ATOM     40  C   UNL     1      -5.724  12.794  22.183  0.00  0.00    +0.000 C 
ENDBRANCH  36  37
ENDBRANCH  33  36
ENDBRANCH  31  32
ENDBRANCH  30  31
ENDBRANCH  29  30
ENDBRANCH   3  29
TORSDOF 8
ENDMDL
MODEL 6
REMARK VINA RESULT:      -7.4      0.829      1.286
REMARK  Name = 
REMARK  12 active torsions:
REMARK  status: ('A' for Active; 'I' for Inactive)
REMARK    1  A    between atoms: C_1  and  C_2
REMARK    2  A    between atoms: C_10  and  C_11
REMARK    3  A    between atoms: C_12  and  C_13
REMARK    4  A    between atoms: N_15  and  C_16
REMARK    5  A    between atoms: C_16  and  C_17
REMARK    6  A    between atoms: C_17  and  C_18
REMARK    7  A    between atoms: C_18  and  N_19
REMARK    8  A    between atoms: C_20  and  O_22
REMARK    9  A    between atoms: O_22  and  C_23
REMARK   10  A    between atoms: C_23  and  C_24
REMARK   11  A    between atoms: C_23  and  C_25
REMARK   12  A    between atoms: C_23  and  C_26
REMARK                            x       y       z     vdW  Elec       q    Type
REMARK                         _______ _______ _______ _____ _____    ______ ____
ROOT
ATOM      1  C   UNL     1      -1.924  12.504  19.720  0.00  0.00    +0.000 A 
ATOM      2  C   UNL     1      -0.656  12.316  19.140  0.00  0.00    +0.000 A 
ATOM      3  N   UNL     1      -0.610  10.948  19.082  0.00  0.00    +0.000 N 
ATOM      4  C   UNL     1      -1.440  10.782  18.049  0.00  0.00    +0.000 A 
ATOM      5  C   UNL     1      -1.558   9.742  17.127  0.00  0.00    +0.000 A 
ATOM      6  C   UNL     1      -2.579   9.929  16.240  0.00  0.00    +0.000 A 
ATOM      7  C   UNL     1      -3.736  10.309  16.890  0.00  0.00    +0.000 A 
ATOM      8  C   UNL     1      -3.714  11.304  17.930  0.00  0.00    +0.000 A 
ATOM      9  C   UNL     1      -2.473  11.689  18.531  0.00  0.00    +0.000 A 
ENDROOT
BRANCH   1  11
ATOM     10  C   UNL     1      -0.437  14.349  21.115  0.00  0.00    +0.000 C 
ATOM     11  C   UNL     1      -1.331  13.292  20.889  0.00  0.00    +0.000 C 
ATOM     12  C   UNL     1      -1.486  12.732  22.306  0.00  0.00    +0.000 C 
ATOM     13  O   UNL     1      -2.226  11.824  22.638  0.00  0.00    +0.000 OA
ATOM     14  N   UNL     1      -0.693  13.394  23.170  0.00  0.00    +0.000 N 
ATOM     15  C   UNL     1      -0.280  14.524  22.589  0.00  0.00    +0.000 C 
ATOM     16  O   UNL     1       0.119  15.507  23.192  0.00  0.00    +0.000 OA
ATOM     17  H   UNL     1      -0.703  13.290  24.166  0.00  0.00    +0.000 HD
BRANCH  10  27
ATOM     18  C   UNL     1      -1.373  17.438  20.244  0.00  0.00    +0.000 C 
ATOM     19  C   UNL     1      -0.178  16.591  19.926  0.00  0.00    +0.000 A 
ATOM     20  N   UNL     1       0.631  17.045  18.915  0.00  0.00    +0.000 N 
ATOM     21  C   UNL     1       1.696  16.216  18.724  0.00  0.00    +0.000 A 
ATOM     22  C   UNL     1       2.723  16.319  17.779  0.00  0.00    +0.000 A 
ATOM     23  C   UNL     1       3.726  15.355  17.817  0.00  0.00    +0.000 A 
ATOM     24  C   UNL     1       3.671  14.317  18.740  0.00  0.00    +0.000 A 
ATOM     25  C   UNL     1       2.587  14.187  19.618  0.00  0.00    +0.000 A 
ATOM     26  C   UNL     1       1.573  15.166  19.639  0.00  0.00    +0.000 A 
ATOM     27  C   UNL     1       0.322  15.338  20.340  0.00  0.00    +0.000 A 
ATOM     28  H   UNL     1       0.447  17.867  18.352  0.00  0.00    +0.000 HD
ENDBRANCH  10  27
ENDBRANCH   1  11
BRANCH   3  29
ATOM     29  C   UNL     1      -0.594   9.969  20.155  0.00  0.00    +0.000 C 
BRANCH  29  30
ATOM     30  C   UNL     1       0.837   9.828  20.556  0.00  0.00    +0.000 C 
BRANCH  30  31
ATOM     31  C   UNL     1       1.434   8.670  19.770  0.00  0.00    +0.000 C 
BRANCH  31  32
ATOM     32  N   UNL     1       1.672   7.565  20.635  0.00  0.00    +0.000 N 
ATOM     33  C   UNL     1       2.183   6.433  20.089  0.00  0.00    +0.000 C 
ATOM     34  O   UNL     1       2.444   6.328  18.899  0.00  0.00    +0.000 OA
ATOM     35  H   UNL     1       1.522   7.623  21.631  0.00  0.00    +0.000 HD
BRANCH  33  36
ATOM     36  O   UNL     1       2.310   5.475  21.031  0.00  0.00    +0.000 OA
BRANCH  36  37
ATOM     37  C   UNL     1       2.188   4.112  20.568  0.00  0.00    +0.000 C 
ATOM     38  C   UNL     1       2.249   3.122  21.741  0.00  0.00    +0.000 C 
ATOM     39  C   UNL     1       0.801   4.004  19.921  0.00  0.00    +0.000 C 
ATOM     40  C   UNL     1       3.238   3.834  19.479  0.00  0.00    +0.000 C 
ENDBRANCH  36  37
ENDBRANCH  33  36
ENDBRANCH  31  32
ENDBRANCH  30  31
ENDBRANCH  29  30
ENDBRANCH   3  29
TORSDOF 8
ENDMDL
MODEL 7
REMARK VINA RESULT:      -7.4      1.327      1.719
REMARK  Name = 
REMARK  12 active torsions:
REMARK  status: ('A' for Active; 'I' for Inactive)
REMARK    1  A    between atoms: C_1  and  C_2
REMARK    2  A    between atoms: C_10  and  C_11
REMARK    3  A    between atoms: C_12  and  C_13
REMARK    4  A    between atoms: N_15  and  C_16
REMARK    5  A    between atoms: C_16  and  C_17
REMARK    6  A    between atoms: C_17  and  C_18
REMARK    7  A    between atoms: C_18  and  N_19
REMARK    8  A    between atoms: C_20  and  O_22
REMARK    9  A    between atoms: O_22  and  C_23
REMARK   10  A    between atoms: C_23  and  C_24
REMARK   11  A    between atoms: C_23  and  C_25
REMARK   12  A    between atoms: C_23  and  C_26
REMARK                            x       y       z     vdW  Elec       q    Type
REMARK                         _______ _______ _______ _____ _____    ______ ____
ROOT
ATOM      1  C   UNL     1      -1.887  13.060  19.702  0.00  0.00    +0.000 A 
ATOM      2  C   UNL     1      -0.817  13.082  18.790  0.00  0.00    +0.000 A 
ATOM      3  N   UNL     1      -0.463  11.759  18.791  0.00  0.00    +0.000 N 
ATOM      4  C   UNL     1      -1.477  11.299  18.053  0.00  0.00    +0.000 A 
ATOM      5  C   UNL     1      -1.588  10.157  17.260  0.00  0.00    +0.000 A 
ATOM      6  C   UNL     1      -2.826  10.016  16.700  0.00  0.00    +0.000 A 
ATOM      7  C   UNL     1      -3.819  10.213  17.637  0.00  0.00    +0.000 A 
ATOM      8  C   UNL     1      -3.754  11.304  18.574  0.00  0.00    +0.000 A 
ATOM      9  C   UNL     1      -2.526  12.013  18.767  0.00  0.00    +0.000 A 
ENDROOT
BRANCH   1  11
ATOM     10  C   UNL     1      -0.775  15.422  20.565  0.00  0.00    +0.000 C 
ATOM     11  C   UNL     1      -1.205  14.089  20.607  0.00  0.00    +0.000 C 
ATOM     12  C   UNL     1      -0.523  13.601  21.889  0.00  0.00    +0.000 C 
ATOM     13  O   UNL     1      -0.649  12.499  22.389  0.00  0.00    +0.000 OA
ATOM     14  N   UNL     1       0.242  14.573  22.421  0.00  0.00    +0.000 N 
ATOM     15  C   UNL     1      -0.091  15.736  21.855  0.00  0.00    +0.000 C 
ATOM     16  O   UNL     1       0.119  16.832  22.348  0.00  0.00    +0.000 OA
ATOM     17  H   UNL     1       0.693  14.536  23.315  0.00  0.00    +0.000 HD
BRANCH  10  27
ATOM     18  C   UNL     1      -3.385  17.441  20.026  0.00  0.00    +0.000 C 
ATOM     19  C   UNL     1      -2.021  17.329  19.415  0.00  0.00    +0.000 A 
ATOM     20  N   UNL     1      -1.818  18.038  18.258  0.00  0.00    +0.000 N 
ATOM     21  C   UNL     1      -0.542  17.885  17.801  0.00  0.00    +0.000 A 
ATOM     22  C   UNL     1       0.041  18.421  16.648  0.00  0.00    +0.000 A 
ATOM     23  C   UNL     1       1.386  18.144  16.424  0.00  0.00    +0.000 A 
ATOM     24  C   UNL     1       2.095  17.334  17.304  0.00  0.00    +0.000 A 
ATOM     25  C   UNL     1       1.465  16.739  18.405  0.00  0.00    +0.000 A 
ATOM     26  C   UNL     1       0.115  17.027  18.689  0.00  0.00    +0.000 A 
ATOM     27  C   UNL     1      -0.851  16.580  19.665  0.00  0.00    +0.000 A 
ATOM     28  H   UNL     1      -2.529  18.576  17.777  0.00  0.00    +0.000 HD
ENDBRANCH  10  27
ENDBRANCH   1  11
BRANCH   3  29
ATOM     29  C   UNL     1       0.076  10.938  19.861  0.00  0.00    +0.000 C 
BRANCH  29  30
ATOM     30  C   UNL     1       1.261  10.239  19.280  0.00  0.00    +0.000 C 
BRANCH  30  31
ATOM     31  C   UNL     1       1.127   8.754  19.584  0.00  0.00    +0.000 C 
BRANCH  31  32
ATOM     32  N   UNL     1       2.149   8.025  18.912  0.00  0.00    +0.000 N 
ATOM     33  C   UNL     1       2.511   6.823  19.428  0.00  0.00    +0.000 C 
ATOM     34  O   UNL     1       2.001   6.350  20.433  0.00  0.00    +0.000 OA
ATOM     35  H   UNL     1       2.561   8.351  18.051  0.00  0.00    +0.000 HD
BRANCH  33  36
ATOM     36  O   UNL     1       3.512   6.285  18.701  0.00  0.00    +0.000 OA
BRANCH  36  37
ATOM     37  C   UNL     1       3.323   4.916  18.280  0.00  0.00    +0.000 C 
ATOM     38  C   UNL     1       1.873   4.665  17.843  0.00  0.00    +0.000 C 
ATOM     39  C   UNL     1       4.233   4.716  17.060  0.00  0.00    +0.000 C 
ATOM     40  C   UNL     1       3.803   3.959  19.385  0.00  0.00    +0.000 C 
ENDBRANCH  36  37
ENDBRANCH  33  36
ENDBRANCH  31  32
ENDBRANCH  30  31
ENDBRANCH  29  30
ENDBRANCH   3  29
TORSDOF 8
ENDMDL
MODEL 8
REMARK VINA RESULT:      -7.2      0.532      1.004
REMARK  Name = 
REMARK  12 active torsions:
REMARK  status: ('A' for Active; 'I' for Inactive)
REMARK    1  A    between atoms: C_1  and  C_2
REMARK    2  A    between atoms: C_10  and  C_11
REMARK    3  A    between atoms: C_12  and  C_13
REMARK    4  A    between atoms: N_15  and  C_16
REMARK    5  A    between atoms: C_16  and  C_17
REMARK    6  A    between atoms: C_17  and  C_18
REMARK    7  A    between atoms: C_18  and  N_19
REMARK    8  A    between atoms: C_20  and  O_22
REMARK    9  A    between atoms: O_22  and  C_23
REMARK   10  A    between atoms: C_23  and  C_24
REMARK   11  A    between atoms: C_23  and  C_25
REMARK   12  A    between atoms: C_23  and  C_26
REMARK                            x       y       z     vdW  Elec       q    Type
REMARK                         _______ _______ _______ _____ _____    ______ ____
ROOT
ATOM      1  C   UNL     1      -1.990  12.582  19.629  0.00  0.00    +0.000 A 
ATOM      2  C   UNL     1      -0.748  12.367  19.004  0.00  0.00    +0.000 A 
ATOM      3  N   UNL     1      -0.740  10.999  18.935  0.00  0.00    +0.000 N 
ATOM      4  C   UNL     1      -1.609  10.862  17.930  0.00  0.00    +0.000 A 
ATOM      5  C   UNL     1      -1.786   9.832  17.006  0.00  0.00    +0.000 A 
ATOM      6  C   UNL     1      -2.833  10.053  16.157  0.00  0.00    +0.000 A 
ATOM      7  C   UNL     1      -3.955  10.457  16.849  0.00  0.00    +0.000 A 
ATOM      8  C   UNL     1      -3.871  11.443  17.895  0.00  0.00    +0.000 A 
ATOM      9  C   UNL     1      -2.601  11.791  18.454  0.00  0.00    +0.000 A 
ENDROOT
BRANCH   1  11
ATOM     10  C   UNL     1      -0.407  14.377  20.983  0.00  0.00    +0.000 C 
ATOM     11  C   UNL     1      -1.336  13.347  20.782  0.00  0.00    +0.000 C 
ATOM     12  C   UNL     1      -1.457  12.780  22.200  0.00  0.00    +0.000 C 
ATOM     13  O   UNL     1      -2.210  11.890  22.551  0.00  0.00    +0.000 OA
ATOM     14  N   UNL     1      -0.618  13.415  23.040  0.00  0.00    +0.000 N 
ATOM     15  C   UNL     1      -0.194  14.538  22.452  0.00  0.00    +0.000 C 
ATOM     16  O   UNL     1       0.252  15.505  23.047  0.00  0.00    +0.000 OA
ATOM     17  H   UNL     1      -0.596  13.304  24.035  0.00  0.00    +0.000 HD
BRANCH  10  27
ATOM     18  C   UNL     1      -1.394  17.396  19.940  0.00  0.00    +0.000 C 
ATOM     19  C   UNL     1      -0.167  16.569  19.701  0.00  0.00    +0.000 A 
ATOM     20  N   UNL     1       0.664  17.000  18.697  0.00  0.00    +0.000 N 
ATOM     21  C   UNL     1       1.757  16.193  18.580  0.00  0.00    +0.000 A 
ATOM     22  C   UNL     1       2.812  16.282  17.666  0.00  0.00    +0.000 A 
ATOM     23  C   UNL     1       3.839  15.350  17.781  0.00  0.00    +0.000 A 
ATOM     24  C   UNL     1       3.780  14.353  18.749  0.00  0.00    +0.000 A 
ATOM     25  C   UNL     1       2.671  14.233  19.597  0.00  0.00    +0.000 A 
ATOM     26  C   UNL     1       1.630  15.183  19.539  0.00  0.00    +0.000 A 
ATOM     27  C   UNL     1       0.352  15.351  20.189  0.00  0.00    +0.000 A 
ATOM     28  H   UNL     1       0.477  17.790  18.091  0.00  0.00    +0.000 HD
ENDBRANCH  10  27
ENDBRANCH   1  11
BRANCH   3  29
ATOM     29  C   UNL     1      -0.712  10.011  20.000  0.00  0.00    +0.000 C 
BRANCH  29  30
ATOM     30  C   UNL     1       0.700   9.979  20.487  0.00  0.00    +0.000 C 
BRANCH  30  31
ATOM     31  C   UNL     1       1.555   9.330  19.409  0.00  0.00    +0.000 C 
BRANCH  31  32
ATOM     32  N   UNL     1       1.910   8.007  19.799  0.00  0.00    +0.000 N 
ATOM     33  C   UNL     1       2.282   7.139  18.824  0.00  0.00    +0.000 C 
ATOM     34  O   UNL     1       2.323   7.446  17.642  0.00  0.00    +0.000 OA
ATOM     35  H   UNL     1       1.941   7.724  20.766  0.00  0.00    +0.000 HD
BRANCH  33  36
ATOM     36  O   UNL     1       2.545   5.927  19.353  0.00  0.00    +0.000 OA
BRANCH  36  37
ATOM     37  C   UNL     1       3.483   5.107  18.622  0.00  0.00    +0.000 C 
ATOM     38  C   UNL     1       4.648   5.947  18.080  0.00  0.00    +0.000 C 
ATOM     39  C   UNL     1       4.049   4.101  19.634  0.00  0.00    +0.000 C 
ATOM     40  C   UNL     1       2.744   4.311  17.533  0.00  0.00    +0.000 C 
ENDBRANCH  36  37
ENDBRANCH  33  36
ENDBRANCH  31  32
ENDBRANCH  30  31
ENDBRANCH  29  30
ENDBRANCH   3  29
TORSDOF 8
ENDMDL
MODEL 9
REMARK VINA RESULT:      -7.1      1.008      1.272
REMARK  Name = 
REMARK  12 active torsions:
REMARK  status: ('A' for Active; 'I' for Inactive)
REMARK    1  A    between atoms: C_1  and  C_2
REMARK    2  A    between atoms: C_10  and  C_11
REMARK    3  A    between atoms: C_12  and  C_13
REMARK    4  A    between atoms: N_15  and  C_16
REMARK    5  A    between atoms: C_16  and  C_17
REMARK    6  A    between atoms: C_17  and  C_18
REMARK    7  A    between atoms: C_18  and  N_19
REMARK    8  A    between atoms: C_20  and  O_22
REMARK    9  A    between atoms: O_22  and  C_23
REMARK   10  A    between atoms: C_23  and  C_24
REMARK   11  A    between atoms: C_23  and  C_25
REMARK   12  A    between atoms: C_23  and  C_26
REMARK                            x       y       z     vdW  Elec       q    Type
REMARK                         _______ _______ _______ _____ _____    ______ ____
ROOT
ATOM      1  C   UNL     1      -1.882  12.652  20.042  0.00  0.00    +0.000 A 
ATOM      2  C   UNL     1      -0.579  12.478  19.542  0.00  0.00    +0.000 A 
ATOM      3  N   UNL     1      -0.499  11.110  19.531  0.00  0.00    +0.000 N 
ATOM      4  C   UNL     1      -1.264  10.892  18.458  0.00  0.00    +0.000 A 
ATOM      5  C   UNL     1      -1.305   9.822  17.565  0.00  0.00    +0.000 A 
ATOM      6  C   UNL     1      -2.277   9.957  16.615  0.00  0.00    +0.000 A 
ATOM      7  C   UNL     1      -3.478  10.329  17.185  0.00  0.00    +0.000 A 
ATOM      8  C   UNL     1      -3.538  11.355  18.193  0.00  0.00    +0.000 A 
ATOM      9  C   UNL     1      -2.343  11.788  18.850  0.00  0.00    +0.000 A 
ENDROOT
BRANCH   1  11
ATOM     10  C   UNL     1      -0.412  14.473  21.486  0.00  0.00    +0.000 C 
ATOM     11  C   UNL     1      -1.376  13.490  21.218  0.00  0.00    +0.000 C 
ATOM     12  C   UNL     1      -1.785  13.087  22.638  0.00  0.00    +0.000 C 
ATOM     13  O   UNL     1      -2.659  12.291  22.929  0.00  0.00    +0.000 OA
ATOM     14  N   UNL     1      -1.054  13.752  23.552  0.00  0.00    +0.000 N 
ATOM     15  C   UNL     1      -0.444  14.775  22.948  0.00  0.00    +0.000 C 
ATOM     16  O   UNL     1      -0.028  15.769  23.520  0.00  0.00    +0.000 OA
ATOM     17  H   UNL     1      -1.213  13.746  24.541  0.00  0.00    +0.000 HD
BRANCH  10  27
ATOM     18  C   UNL     1      -1.050  16.824  19.196  0.00  0.00    +0.000 C 
ATOM     19  C   UNL     1       0.211  16.212  19.727  0.00  0.00    +0.000 A 
ATOM     20  N   UNL     1       1.357  16.487  19.024  0.00  0.00    +0.000 N 
ATOM     21  C   UNL     1       2.445  15.904  19.603  0.00  0.00    +0.000 A 
ATOM     22  C   UNL     1       3.777  15.927  19.177  0.00  0.00    +0.000 A 
ATOM     23  C   UNL     1       4.715  15.279  19.975  0.00  0.00    +0.000 A 
ATOM     24  C   UNL     1       4.318  14.608  21.126  0.00  0.00    +0.000 A 
ATOM     25  C   UNL     1       2.966  14.527  21.485  0.00  0.00    +0.000 A 
ATOM     26  C   UNL     1       1.990  15.204  20.726  0.00  0.00    +0.000 A 
ATOM     27  C   UNL     1       0.550  15.305  20.753  0.00  0.00    +0.000 A 
ATOM     28  H   UNL     1       1.394  17.021  18.163  0.00  0.00    +0.000 HD
ENDBRANCH  10  27
ENDBRANCH   1  11
BRANCH   3  29
ATOM     29  C   UNL     1      -0.523  10.165  20.634  0.00  0.00    +0.000 C 
BRANCH  29  30
ATOM     30  C   UNL     1       0.879   9.673  20.778  0.00  0.00    +0.000 C 
BRANCH  30  31
ATOM     31  C   UNL     1       0.846   8.152  20.789  0.00  0.00    +0.000 C 
BRANCH  31  32
ATOM     32  N   UNL     1       2.062   7.633  20.262  0.00  0.00    +0.000 N 
ATOM     33  C   UNL     1       2.224   6.286  20.252  0.00  0.00    +0.000 C 
ATOM     34  O   UNL     1       1.376   5.512  20.672  0.00  0.00    +0.000 OA
ATOM     35  H   UNL     1       2.767   8.230  19.856  0.00  0.00    +0.000 HD
BRANCH  33  36
ATOM     36  O   UNL     1       3.438   5.964  19.761  0.00  0.00    +0.000 OA
BRANCH  36  37
ATOM     37  C   UNL     1       3.490   5.655  18.351  0.00  0.00    +0.000 C 
ATOM     38  C   UNL     1       4.442   4.481  18.076  0.00  0.00    +0.000 C 
ATOM     39  C   UNL     1       2.071   5.223  17.957  0.00  0.00    +0.000 C 
ATOM     40  C   UNL     1       3.835   6.922  17.550  0.00  0.00    +0.000 C 
ENDBRANCH  36  37
ENDBRANCH  33  36
ENDBRANCH  31  32
ENDBRANCH  30  31
ENDBRANCH  29  30
ENDBRANCH   3  29
TORSDOF 8
ENDMDL
