MODEL 1
REMARK VINA RESULT:      -9.5      0.000      0.000
REMARK  Name = 
REMARK  4 active torsions:
REMARK  status: ('A' for Active; 'I' for Inactive)
REMARK    1  A    between atoms: C_5  and  C_6
REMARK    2  A    between atoms: C_8  and  C_9
REMARK    3  A    between atoms: C_10  and  C_11
REMARK    4  A    between atoms: C_18  and  C_19
REMARK                            x       y       z     vdW  Elec       q    Type
REMARK                         _______ _______ _______ _____ _____    ______ ____
ROOT
ATOM      1  C   UNL     1       5.658   5.619  17.147  0.00  0.00    +0.000 A 
ATOM      2  N   UNL     1       6.253   6.469  18.065  0.00  0.00    +0.000 N 
ATOM      3  C   UNL     1       7.404   6.990  17.527  0.00  0.00    +0.000 A 
ATOM      4  N   UNL     1       7.586   6.523  16.312  0.00  0.00    +0.000 NA
ATOM      5  C   UNL     1       6.511   5.702  16.048  0.00  0.00    +0.000 A 
ATOM      6  H   UNL     1       5.908   6.655  18.995  0.00  0.00    +0.000 HD
ENDROOT
BRANCH   1  11
ATOM      7  F   UNL     1       1.040   2.817  18.639  0.00  0.00    +0.000 F 
ATOM      8  C   UNL     1       2.125   3.476  18.212  0.00  0.00    +0.000 A 
ATOM      9  C   UNL     1       3.298   2.778  17.960  0.00  0.00    +0.000 A 
ATOM     10  C   UNL     1       4.450   3.473  17.574  0.00  0.00    +0.000 A 
ATOM     11  C   UNL     1       4.426   4.869  17.423  0.00  0.00    +0.000 A 
ATOM     12  C   UNL     1       3.202   5.536  17.605  0.00  0.00    +0.000 A 
ATOM     13  C   UNL     1       2.064   4.850  18.033  0.00  0.00    +0.000 A 
ENDBRANCH   1  11
BRANCH   5  14
ATOM     14  C   UNL     1       6.388   5.027  14.764  0.00  0.00    +0.000 A 
ATOM     15  C   UNL     1       7.452   5.083  13.860  0.00  0.00    +0.000 A 
ATOM     16  C   UNL     1       7.346   4.381  12.672  0.00  0.00    +0.000 A 
ATOM     17  N   UNL     1       6.274   3.633  12.334  0.00  0.00    +0.000 NA
ATOM     18  C   UNL     1       5.245   3.623  13.206  0.00  0.00    +0.000 A 
ATOM     19  C   UNL     1       5.243   4.316  14.403  0.00  0.00    +0.000 A 
ENDBRANCH   5  14
BRANCH   3  20
ATOM     20  C   UNL     1       8.190   7.875  18.307  0.00  0.00    +0.000 C 
ATOM     21  C   UNL     1       8.299   9.164  17.944  0.00  0.00    +0.000 C 
BRANCH  21  22
ATOM     22  C   UNL     1       9.121  10.168  18.641  0.00  0.00    +0.000 A 
ATOM     23  C   UNL     1       9.949  11.004  17.879  0.00  0.00    +0.000 A 
ATOM     24  C   UNL     1      10.742  11.979  18.492  0.00  0.00    +0.000 A 
ATOM     25  C   UNL     1      10.706  12.136  19.875  0.00  0.00    +0.000 A 
ATOM     26  C   UNL     1       9.867  11.333  20.642  0.00  0.00    +0.000 A 
ATOM     27  C   UNL     1       9.072  10.360  20.027  0.00  0.00    +0.000 A 
ENDBRANCH  21  22
ENDBRANCH   3  20
TORSDOF 4
ENDMDL
MODEL 2
REMARK VINA RESULT:      -9.5      2.074      4.314
REMARK  Name = 
REMARK  4 active torsions:
REMARK  status: ('A' for Active; 'I' for Inactive)
REMARK    1  A    between atoms: C_5  and  C_6
REMARK    2  A    between atoms: C_8  and  C_9
REMARK    3  A    between atoms: C_10  and  C_11
REMARK    4  A    between atoms: C_18  and  C_19
REMARK                            x       y       z     vdW  Elec       q    Type
REMARK                         _______ _______ _______ _____ _____    ______ ____
ROOT
ATOM      1  C   UNL     1       6.552   5.674  16.190  0.00  0.00    +0.000 A 
ATOM      2  N   UNL     1       7.579   6.536  16.536  0.00  0.00    +0.000 N 
ATOM      3  C   UNL     1       7.390   6.982  17.822  0.00  0.00    +0.000 A 
ATOM      4  N   UNL     1       6.296   6.455  18.324  0.00  0.00    +0.000 NA
ATOM      5  C   UNL     1       5.781   5.627  17.350  0.00  0.00    +0.000 A 
ATOM      6  H   UNL     1       8.335   6.815  15.929  0.00  0.00    +0.000 HD
ENDROOT
BRANCH   1  11
ATOM      7  F   UNL     1       6.283   2.910  11.322  0.00  0.00    +0.000 F 
ATOM      8  C   UNL     1       6.317   3.629  12.451  0.00  0.00    +0.000 A 
ATOM      9  C   UNL     1       7.426   4.415  12.733  0.00  0.00    +0.000 A 
ATOM     10  C   UNL     1       7.491   5.118  13.942  0.00  0.00    +0.000 A 
ATOM     11  C   UNL     1       6.437   5.048  14.867  0.00  0.00    +0.000 A 
ATOM     12  C   UNL     1       5.293   4.311  14.516  0.00  0.00    +0.000 A 
ATOM     13  C   UNL     1       5.246   3.574  13.331  0.00  0.00    +0.000 A 
ENDBRANCH   1  11
BRANCH   5  14
ATOM     14  C   UNL     1       4.563   4.866  17.587  0.00  0.00    +0.000 A 
ATOM     15  C   UNL     1       3.345   5.543  17.683  0.00  0.00    +0.000 A 
ATOM     16  C   UNL     1       2.188   4.799  17.843  0.00  0.00    +0.000 A 
ATOM     17  N   UNL     1       2.163   3.450  17.905  0.00  0.00    +0.000 NA
ATOM     18  C   UNL     1       3.355   2.822  17.846  0.00  0.00    +0.000 A 
ATOM     19  C   UNL     1       4.567   3.477  17.719  0.00  0.00    +0.000 A 
ENDBRANCH   5  14
BRANCH   3  20
ATOM     20  C   UNL     1       8.318   7.897  18.377  0.00  0.00    +0.000 C 
ATOM     21  C   UNL     1       8.225   9.204  18.079  0.00  0.00    +0.000 C 
BRANCH  21  22
ATOM     22  C   UNL     1       9.154  10.243  18.552  0.00  0.00    +0.000 A 
ATOM     23  C   UNL     1       9.302  10.434  19.933  0.00  0.00    +0.000 A 
ATOM     24  C   UNL     1      10.179  11.401  20.433  0.00  0.00    +0.000 A 
ATOM     25  C   UNL     1      10.927  12.182  19.557  0.00  0.00    +0.000 A 
ATOM     26  C   UNL     1      10.813  11.985  18.183  0.00  0.00    +0.000 A 
ATOM     27  C   UNL     1       9.937  11.014  17.684  0.00  0.00    +0.000 A 
ENDBRANCH  21  22
ENDBRANCH   3  20
TORSDOF 4
ENDMDL
MODEL 3
REMARK VINA RESULT:      -9.4      2.076      4.213
REMARK  Name = 
REMARK  4 active torsions:
REMARK  status: ('A' for Active; 'I' for Inactive)
REMARK    1  A    between atoms: C_5  and  C_6
REMARK    2  A    between atoms: C_8  and  C_9
REMARK    3  A    between atoms: C_10  and  C_11
REMARK    4  A    between atoms: C_18  and  C_19
REMARK                            x       y       z     vdW  Elec       q    Type
REMARK                         _______ _______ _______ _____ _____    ______ ____
ROOT
ATOM      1  C   UNL     1       6.563   5.676  16.226  0.00  0.00    +0.000 A 
ATOM      2  N   UNL     1       7.602   6.522  16.576  0.00  0.00    +0.000 N 
ATOM      3  C   UNL     1       7.415   6.968  17.862  0.00  0.00    +0.000 A 
ATOM      4  N   UNL     1       6.312   6.457  18.360  0.00  0.00    +0.000 NA
ATOM      5  C   UNL     1       5.787   5.639  17.384  0.00  0.00    +0.000 A 
ATOM      6  H   UNL     1       8.363   6.790  15.971  0.00  0.00    +0.000 HD
ENDROOT
BRANCH   1  11
ATOM      7  F   UNL     1       6.276   2.926  11.351  0.00  0.00    +0.000 F 
ATOM      8  C   UNL     1       6.313   3.642  12.482  0.00  0.00    +0.000 A 
ATOM      9  C   UNL     1       7.419   4.435  12.758  0.00  0.00    +0.000 A 
ATOM     10  C   UNL     1       7.488   5.134  13.968  0.00  0.00    +0.000 A 
ATOM     11  C   UNL     1       6.442   5.053  14.901  0.00  0.00    +0.000 A 
ATOM     12  C   UNL     1       5.301   4.308  14.557  0.00  0.00    +0.000 A 
ATOM     13  C   UNL     1       5.249   3.575  13.370  0.00  0.00    +0.000 A 
ENDBRANCH   1  11
BRANCH   5  14
ATOM     14  C   UNL     1       4.558   4.895  17.617  0.00  0.00    +0.000 A 
ATOM     15  C   UNL     1       4.631   3.528  17.896  0.00  0.00    +0.000 A 
ATOM     16  C   UNL     1       3.459   2.849  18.180  0.00  0.00    +0.000 A 
ATOM     17  N   UNL     1       2.241   3.432  18.212  0.00  0.00    +0.000 NA
ATOM     18  C   UNL     1       2.191   4.744  17.904  0.00  0.00    +0.000 A 
ATOM     19  C   UNL     1       3.302   5.501  17.576  0.00  0.00    +0.000 A 
ENDBRANCH   5  14
BRANCH   3  20
ATOM     20  C   UNL     1       8.356   7.869  18.421  0.00  0.00    +0.000 C 
ATOM     21  C   UNL     1       8.251   9.184  18.168  0.00  0.00    +0.000 C 
BRANCH  21  22
ATOM     22  C   UNL     1       9.189  10.211  18.649  0.00  0.00    +0.000 A 
ATOM     23  C   UNL     1       9.924  10.943  17.706  0.00  0.00    +0.000 A 
ATOM     24  C   UNL     1      10.822  11.936  18.110  0.00  0.00    +0.000 A 
ATOM     25  C   UNL     1      10.986  12.216  19.464  0.00  0.00    +0.000 A 
ATOM     26  C   UNL     1      10.241  11.517  20.412  0.00  0.00    +0.000 A 
ATOM     27  C   UNL     1       9.341  10.526  20.005  0.00  0.00    +0.000 A 
ENDBRANCH  21  22
ENDBRANCH   3  20
TORSDOF 4
ENDMDL
MODEL 4
REMARK VINA RESULT:      -9.4      0.351      1.006
REMARK  Name = 
REMARK  4 active torsions:
REMARK  status: ('A' for Active; 'I' for Inactive)
REMARK    1  A    between atoms: C_5  and  C_6
REMARK    2  A    between atoms: C_8  and  C_9
REMARK    3  A    between atoms: C_10  and  C_11
REMARK    4  A    between atoms: C_18  and  C_19
REMARK                            x       y       z     vdW  Elec       q    Type
REMARK                         _______ _______ _______ _____ _____    ______ ____
ROOT
ATOM      1  C   UNL     1       5.687   5.584  17.245  0.00  0.00    +0.000 A 
ATOM      2  N   UNL     1       6.273   6.477  18.126  0.00  0.00    +0.000 N 
ATOM      3  C   UNL     1       7.372   7.051  17.534  0.00  0.00    +0.000 A 
ATOM      4  N   UNL     1       7.528   6.575  16.319  0.00  0.00    +0.000 NA
ATOM      5  C   UNL     1       6.488   5.695  16.110  0.00  0.00    +0.000 A 
ATOM      6  H   UNL     1       5.957   6.659  19.067  0.00  0.00    +0.000 HD
ENDROOT
BRANCH   1  11
ATOM      7  F   UNL     1       1.146   2.410  18.092  0.00  0.00    +0.000 F 
ATOM      8  C   UNL     1       2.235   3.178  17.963  0.00  0.00    +0.000 A 
ATOM      9  C   UNL     1       2.095   4.553  17.826  0.00  0.00    +0.000 A 
ATOM     10  C   UNL     1       3.228   5.351  17.628  0.00  0.00    +0.000 A 
ATOM     11  C   UNL     1       4.508   4.775  17.582  0.00  0.00    +0.000 A 
ATOM     12  C   UNL     1       4.623   3.393  17.806  0.00  0.00    +0.000 A 
ATOM     13  C   UNL     1       3.492   2.590  17.960  0.00  0.00    +0.000 A 
ENDBRANCH   1  11
BRANCH   5  14
ATOM     14  C   UNL     1       6.349   4.995  14.842  0.00  0.00    +0.000 A 
ATOM     15  C   UNL     1       7.403   5.029  13.926  0.00  0.00    +0.000 A 
ATOM     16  C   UNL     1       7.282   4.304  12.753  0.00  0.00    +0.000 A 
ATOM     17  N   UNL     1       6.204   3.554  12.441  0.00  0.00    +0.000 NA
ATOM     18  C   UNL     1       5.184   3.564  13.324  0.00  0.00    +0.000 A 
ATOM     19  C   UNL     1       5.198   4.281  14.507  0.00  0.00    +0.000 A 
ENDBRANCH   5  14
BRANCH   3  20
ATOM     20  C   UNL     1       8.140   7.987  18.270  0.00  0.00    +0.000 C 
ATOM     21  C   UNL     1       8.185   9.270  17.872  0.00  0.00    +0.000 C 
BRANCH  21  22
ATOM     22  C   UNL     1       8.983  10.324  18.520  0.00  0.00    +0.000 A 
ATOM     23  C   UNL     1       9.282  11.484  17.791  0.00  0.00    +0.000 A 
ATOM     24  C   UNL     1      10.029  12.518  18.363  0.00  0.00    +0.000 A 
ATOM     25  C   UNL     1      10.474  12.409  19.678  0.00  0.00    +0.000 A 
ATOM     26  C   UNL     1      10.159  11.276  20.425  0.00  0.00    +0.000 A 
ATOM     27  C   UNL     1       9.410  10.243  19.851  0.00  0.00    +0.000 A 
ENDBRANCH  21  22
ENDBRANCH   3  20
TORSDOF 4
ENDMDL
MODEL 5
REMARK VINA RESULT:      -9.3      0.095      1.322
REMARK  Name = 
REMARK  4 active torsions:
REMARK  status: ('A' for Active; 'I' for Inactive)
REMARK    1  A    between atoms: C_5  and  C_6
REMARK    2  A    between atoms: C_8  and  C_9
REMARK    3  A    between atoms: C_10  and  C_11
REMARK    4  A    between atoms: C_18  and  C_19
REMARK                            x       y       z     vdW  Elec       q    Type
REMARK                         _______ _______ _______ _____ _____    ______ ____
ROOT
ATOM      1  C   UNL     1       5.667   5.634  17.106  0.00  0.00    +0.000 A 
ATOM      2  N   UNL     1       6.246   6.508  18.011  0.00  0.00    +0.000 N 
ATOM      3  C   UNL     1       7.413   7.005  17.485  0.00  0.00    +0.000 A 
ATOM      4  N   UNL     1       7.620   6.498  16.290  0.00  0.00    +0.000 NA
ATOM      5  C   UNL     1       6.546   5.676  16.026  0.00  0.00    +0.000 A 
ATOM      6  H   UNL     1       5.880   6.725  18.926  0.00  0.00    +0.000 HD
ENDROOT
BRANCH   1  11
ATOM      7  F   UNL     1       1.006   2.891  18.575  0.00  0.00    +0.000 F 
ATOM      8  C   UNL     1       2.100   3.537  18.153  0.00  0.00    +0.000 A 
ATOM      9  C   UNL     1       3.262   2.823  17.894  0.00  0.00    +0.000 A 
ATOM     10  C   UNL     1       4.425   3.503  17.513  0.00  0.00    +0.000 A 
ATOM     11  C   UNL     1       4.423   4.901  17.376  0.00  0.00    +0.000 A 
ATOM     12  C   UNL     1       3.210   5.585  17.566  0.00  0.00    +0.000 A 
ATOM     13  C   UNL     1       2.061   4.913  17.988  0.00  0.00    +0.000 A 
ENDBRANCH   1  11
BRANCH   5  14
ATOM     14  C   UNL     1       6.449   4.961  14.762  0.00  0.00    +0.000 A 
ATOM     15  C   UNL     1       5.286   4.243  14.473  0.00  0.00    +0.000 A 
ATOM     16  C   UNL     1       5.183   3.623  13.239  0.00  0.00    +0.000 A 
ATOM     17  N   UNL     1       6.140   3.675  12.289  0.00  0.00    +0.000 NA
ATOM     18  C   UNL     1       7.269   4.343  12.604  0.00  0.00    +0.000 A 
ATOM     19  C   UNL     1       7.479   4.968  13.820  0.00  0.00    +0.000 A 
ENDBRANCH   5  14
BRANCH   3  20
ATOM     20  C   UNL     1       8.186   7.909  18.255  0.00  0.00    +0.000 C 
ATOM     21  C   UNL     1       8.272   9.197  17.882  0.00  0.00    +0.000 C 
BRANCH  21  22
ATOM     22  C   UNL     1       9.079  10.219  18.568  0.00  0.00    +0.000 A 
ATOM     23  C   UNL     1       9.053  10.266  19.969  0.00  0.00    +0.000 A 
ATOM     24  C   UNL     1       9.808  11.213  20.668  0.00  0.00    +0.000 A 
ATOM     25  C   UNL     1      10.608  12.116  19.973  0.00  0.00    +0.000 A 
ATOM     26  C   UNL     1      10.667  12.062  18.583  0.00  0.00    +0.000 A 
ATOM     27  C   UNL     1       9.913  11.113  17.884  0.00  0.00    +0.000 A 
ENDBRANCH  21  22
ENDBRANCH   3  20
TORSDOF 4
ENDMDL
MODEL 6
REMARK VINA RESULT:      -9.1      2.094      4.338
REMARK  Name = 
REMARK  4 active torsions:
REMARK  status: ('A' for Active; 'I' for Inactive)
REMARK    1  A    between atoms: C_5  and  C_6
REMARK    2  A    between atoms: C_8  and  C_9
REMARK    3  A    between atoms: C_10  and  C_11
REMARK    4  A    between atoms: C_18  and  C_19
REMARK                            x       y       z     vdW  Elec       q    Type
REMARK                         _______ _______ _______ _____ _____    ______ ____
ROOT
ATOM      1  C   UNL     1       6.676   5.662  16.392  0.00  0.00    +0.000 A 
ATOM      2  N   UNL     1       7.713   6.529  16.693  0.00  0.00    +0.000 N 
ATOM      3  C   UNL     1       7.521   7.055  17.947  0.00  0.00    +0.000 A 
ATOM      4  N   UNL     1       6.416   6.576  18.472  0.00  0.00    +0.000 NA
ATOM      5  C   UNL     1       5.896   5.697  17.547  0.00  0.00    +0.000 A 
ATOM      6  H   UNL     1       8.476   6.759  16.075  0.00  0.00    +0.000 HD
ENDROOT
BRANCH   1  11
ATOM      7  F   UNL     1       6.015   3.333  11.338  0.00  0.00    +0.000 F 
ATOM      8  C   UNL     1       6.210   3.829  12.566  0.00  0.00    +0.000 A 
ATOM      9  C   UNL     1       5.290   3.560  13.570  0.00  0.00    +0.000 A 
ATOM     10  C   UNL     1       5.459   4.129  14.838  0.00  0.00    +0.000 A 
ATOM     11  C   UNL     1       6.560   4.957  15.109  0.00  0.00    +0.000 A 
ATOM     12  C   UNL     1       7.516   5.143  14.096  0.00  0.00    +0.000 A 
ATOM     13  C   UNL     1       7.327   4.612  12.819  0.00  0.00    +0.000 A 
ENDBRANCH   1  11
BRANCH   5  14
ATOM     14  C   UNL     1       4.666   4.969  17.822  0.00  0.00    +0.000 A 
ATOM     15  C   UNL     1       4.742   3.677  18.349  0.00  0.00    +0.000 A 
ATOM     16  C   UNL     1       3.564   3.024  18.666  0.00  0.00    +0.000 A 
ATOM     17  N   UNL     1       2.337   3.563  18.503  0.00  0.00    +0.000 NA
ATOM     18  C   UNL     1       2.287   4.796  17.959  0.00  0.00    +0.000 A 
ATOM     19  C   UNL     1       3.406   5.517  17.580  0.00  0.00    +0.000 A 
ENDBRANCH   5  14
BRANCH   3  20
ATOM     20  C   UNL     1       8.459   7.989  18.453  0.00  0.00    +0.000 C 
ATOM     21  C   UNL     1       8.293   9.300  18.205  0.00  0.00    +0.000 C 
BRANCH  21  22
ATOM     22  C   UNL     1       9.221  10.361  18.632  0.00  0.00    +0.000 A 
ATOM     23  C   UNL     1       9.373  10.607  20.003  0.00  0.00    +0.000 A 
ATOM     24  C   UNL     1      10.248  11.597  20.461  0.00  0.00    +0.000 A 
ATOM     25  C   UNL     1      10.990  12.345  19.550  0.00  0.00    +0.000 A 
ATOM     26  C   UNL     1      10.871  12.092  18.186  0.00  0.00    +0.000 A 
ATOM     27  C   UNL     1       9.997  11.099  17.730  0.00  0.00    +0.000 A 
ENDBRANCH  21  22
ENDBRANCH   3  20
TORSDOF 4
ENDMDL
MODEL 7
REMARK VINA RESULT:      -8.8      4.188      6.063
REMARK  Name = 
REMARK  4 active torsions:
REMARK  status: ('A' for Active; 'I' for Inactive)
REMARK    1  A    between atoms: C_5  and  C_6
REMARK    2  A    between atoms: C_8  and  C_9
REMARK    3  A    between atoms: C_10  and  C_11
REMARK    4  A    between atoms: C_18  and  C_19
REMARK                            x       y       z     vdW  Elec       q    Type
REMARK                         _______ _______ _______ _____ _____    ______ ____
ROOT
ATOM      1  C   UNL     1       2.982   6.005  18.065  0.00  0.00    +0.000 A 
ATOM      2  N   UNL     1       2.143   7.096  18.216  0.00  0.00    +0.000 N 
ATOM      3  C   UNL     1       2.791   8.233  17.799  0.00  0.00    +0.000 A 
ATOM      4  N   UNL     1       4.003   7.935  17.388  0.00  0.00    +0.000 NA
ATOM      5  C   UNL     1       4.132   6.569  17.516  0.00  0.00    +0.000 A 
ATOM      6  H   UNL     1       1.210   7.064  18.598  0.00  0.00    +0.000 HD
ENDROOT
BRANCH   1  11
ATOM      7  F   UNL     1       1.145   0.869  19.355  0.00  0.00    +0.000 F 
ATOM      8  C   UNL     1       1.650   2.078  19.077  0.00  0.00    +0.000 A 
ATOM      9  C   UNL     1       1.534   3.101  20.009  0.00  0.00    +0.000 A 
ATOM     10  C   UNL     1       2.004   4.382  19.696  0.00  0.00    +0.000 A 
ATOM     11  C   UNL     1       2.606   4.639  18.453  0.00  0.00    +0.000 A 
ATOM     12  C   UNL     1       2.781   3.564  17.566  0.00  0.00    +0.000 A 
ATOM     13  C   UNL     1       2.274   2.296  17.858  0.00  0.00    +0.000 A 
ENDBRANCH   1  11
BRANCH   5  14
ATOM     14  C   UNL     1       5.364   5.898  17.128  0.00  0.00    +0.000 A 
ATOM     15  C   UNL     1       6.308   5.588  18.110  0.00  0.00    +0.000 A 
ATOM     16  C   UNL     1       7.444   4.891  17.735  0.00  0.00    +0.000 A 
ATOM     17  N   UNL     1       7.694   4.482  16.473  0.00  0.00    +0.000 NA
ATOM     18  C   UNL     1       6.785   4.824  15.537  0.00  0.00    +0.000 A 
ATOM     19  C   UNL     1       5.636   5.545  15.806  0.00  0.00    +0.000 A 
ENDBRANCH   5  14
BRANCH   3  20
ATOM     20  C   UNL     1       2.121   9.479  17.885  0.00  0.00    +0.000 C 
ATOM     21  C   UNL     1       1.078   9.617  18.722  0.00  0.00    +0.000 C 
BRANCH  21  22
ATOM     22  C   UNL     1       0.272  10.841  18.866  0.00  0.00    +0.000 A 
ATOM     23  C   UNL     1       0.925  12.081  18.841  0.00  0.00    +0.000 A 
ATOM     24  C   UNL     1       0.204  13.273  18.965  0.00  0.00    +0.000 A 
ATOM     25  C   UNL     1      -1.181  13.237  19.104  0.00  0.00    +0.000 A 
ATOM     26  C   UNL     1      -1.846  12.013  19.101  0.00  0.00    +0.000 A 
ATOM     27  C   UNL     1      -1.124  10.822  18.974  0.00  0.00    +0.000 A 
ENDBRANCH  21  22
ENDBRANCH   3  20
TORSDOF 4
ENDMDL
MODEL 8
REMARK VINA RESULT:      -8.8      4.182      6.076
REMARK  Name = 
REMARK  4 active torsions:
REMARK  status: ('A' for Active; 'I' for Inactive)
REMARK    1  A    between atoms: C_5  and  C_6
REMARK    2  A    between atoms: C_8  and  C_9
REMARK    3  A    between atoms: C_10  and  C_11
REMARK    4  A    between atoms: C_18  and  C_19
REMARK                            x       y       z     vdW  Elec       q    Type
REMARK                         _______ _______ _______ _____ _____    ______ ____
ROOT
ATOM      1  C   UNL     1       2.939   5.985  18.048  0.00  0.00    +0.000 A 
ATOM      2  N   UNL     1       2.133   7.102  18.184  0.00  0.00    +0.000 N 
ATOM      3  C   UNL     1       2.822   8.218  17.773  0.00  0.00    +0.000 A 
ATOM      4  N   UNL     1       4.030   7.881  17.380  0.00  0.00    +0.000 NA
ATOM      5  C   UNL     1       4.114   6.512  17.513  0.00  0.00    +0.000 A 
ATOM      6  H   UNL     1       1.194   7.101  18.553  0.00  0.00    +0.000 HD
ENDROOT
BRANCH   1  11
ATOM      7  F   UNL     1       0.945   0.896  19.286  0.00  0.00    +0.000 F 
ATOM      8  C   UNL     1       1.483   2.095  19.029  0.00  0.00    +0.000 A 
ATOM      9  C   UNL     1       1.270   3.147  19.909  0.00  0.00    +0.000 A 
ATOM     10  C   UNL     1       1.778   4.417  19.610  0.00  0.00    +0.000 A 
ATOM     11  C   UNL     1       2.515   4.633  18.434  0.00  0.00    +0.000 A 
ATOM     12  C   UNL     1       2.783   3.530  17.606  0.00  0.00    +0.000 A 
ATOM     13  C   UNL     1       2.240   2.273  17.880  0.00  0.00    +0.000 A 
ENDBRANCH   1  11
BRANCH   5  14
ATOM     14  C   UNL     1       5.330   5.801  17.145  0.00  0.00    +0.000 A 
ATOM     15  C   UNL     1       5.570   5.515  15.799  0.00  0.00    +0.000 A 
ATOM     16  C   UNL     1       6.761   4.897  15.458  0.00  0.00    +0.000 A 
ATOM     17  N   UNL     1       7.715   4.559  16.352  0.00  0.00    +0.000 NA
ATOM     18  C   UNL     1       7.445   4.813  17.649  0.00  0.00    +0.000 A 
ATOM     19  C   UNL     1       6.272   5.397  18.091  0.00  0.00    +0.000 A 
ENDBRANCH   5  14
BRANCH   3  20
ATOM     20  C   UNL     1       2.190   9.484  17.846  0.00  0.00    +0.000 C 
ATOM     21  C   UNL     1       1.142   9.658  18.670  0.00  0.00    +0.000 C 
BRANCH  21  22
ATOM     22  C   UNL     1       0.373  10.907  18.800  0.00  0.00    +0.000 A 
ATOM     23  C   UNL     1      -1.023  10.828  18.894  0.00  0.00    +0.000 A 
ATOM     24  C   UNL     1      -1.799  11.984  19.027  0.00  0.00    +0.000 A 
ATOM     25  C   UNL     1      -1.184  13.232  19.080  0.00  0.00    +0.000 A 
ATOM     26  C   UNL     1       0.204  13.324  19.018  0.00  0.00    +0.000 A 
ATOM     27  C   UNL     1       0.979  12.167  18.887  0.00  0.00    +0.000 A 
ENDBRANCH  21  22
ENDBRANCH   3  20
TORSDOF 4
ENDMDL
MODEL 9
REMARK VINA RESULT:      -8.7      4.241      5.961
REMARK  Name = 
REMARK  4 active torsions:
REMARK  status: ('A' for Active; 'I' for Inactive)
REMARK    1  A    between atoms: C_5  and  C_6
REMARK    2  A    between atoms: C_8  and  C_9
REMARK    3  A    between atoms: C_10  and  C_11
REMARK    4  A    between atoms: C_18  and  C_19
REMARK                            x       y       z     vdW  Elec       q    Type
REMARK                         _______ _______ _______ _____ _____    ______ ____
ROOT
ATOM      1  C   UNL     1       2.856   6.044  18.023  0.00  0.00    +0.000 A 
ATOM      2  N   UNL     1       2.073   7.180  18.148  0.00  0.00    +0.000 N 
ATOM      3  C   UNL     1       2.807   8.283  17.786  0.00  0.00    +0.000 A 
ATOM      4  N   UNL     1       4.021   7.921  17.435  0.00  0.00    +0.000 NA
ATOM      5  C   UNL     1       4.064   6.548  17.546  0.00  0.00    +0.000 A 
ATOM      6  H   UNL     1       1.121   7.197  18.479  0.00  0.00    +0.000 HD
ENDROOT
BRANCH   1  11
ATOM      7  F   UNL     1       1.445   0.833  19.528  0.00  0.00    +0.000 F 
ATOM      8  C   UNL     1       1.714   2.086  19.140  0.00  0.00    +0.000 A 
ATOM      9  C   UNL     1       2.242   2.315  17.876  0.00  0.00    +0.000 A 
ATOM     10  C   UNL     1       2.583   3.617  17.491  0.00  0.00    +0.000 A 
ATOM     11  C   UNL     1       2.381   4.697  18.366  0.00  0.00    +0.000 A 
ATOM     12  C   UNL     1       1.769   4.442  19.605  0.00  0.00    +0.000 A 
ATOM     13  C   UNL     1       1.470   3.139  20.008  0.00  0.00    +0.000 A 
ENDBRANCH   1  11
BRANCH   5  14
ATOM     14  C   UNL     1       5.275   5.812  17.213  0.00  0.00    +0.000 A 
ATOM     15  C   UNL     1       5.545   5.516  15.875  0.00  0.00    +0.000 A 
ATOM     16  C   UNL     1       6.733   4.873  15.568  0.00  0.00    +0.000 A 
ATOM     17  N   UNL     1       7.655   4.519  16.488  0.00  0.00    +0.000 NA
ATOM     18  C   UNL     1       7.356   4.784  17.776  0.00  0.00    +0.000 A 
ATOM     19  C   UNL     1       6.183   5.393  18.186  0.00  0.00    +0.000 A 
ENDBRANCH   5  14
BRANCH   3  20
ATOM     20  C   UNL     1       2.206   9.564  17.858  0.00  0.00    +0.000 C 
ATOM     21  C   UNL     1       1.168   9.767  18.688  0.00  0.00    +0.000 C 
BRANCH  21  22
ATOM     22  C   UNL     1       0.430  11.034  18.817  0.00  0.00    +0.000 A 
ATOM     23  C   UNL     1       1.151  12.236  18.800  0.00  0.00    +0.000 A 
ATOM     24  C   UNL     1       0.496  13.466  18.910  0.00  0.00    +0.000 A 
ATOM     25  C   UNL     1      -0.891  13.508  19.027  0.00  0.00    +0.000 A 
ATOM     26  C   UNL     1      -1.624  12.323  19.016  0.00  0.00    +0.000 A 
ATOM     27  C   UNL     1      -0.967  11.093  18.903  0.00  0.00    +0.000 A 
ENDBRANCH  21  22
ENDBRANCH   3  20
TORSDOF 4
ENDMDL
