MODEL 1
REMARK VINA RESULT:      -8.2      0.000      0.000
REMARK  Name = 
REMARK  6 active torsions:
REMARK  status: ('A' for Active; 'I' for Inactive)
REMARK    1  A    between atoms: C_1  and  O_2
REMARK    2  A    between atoms: O_2  and  C_3
REMARK    3  A    between atoms: C_3  and  C_5
REMARK    4  A    between atoms: C_8  and  C_10
REMARK    5  A    between atoms: C_14  and  O_15
REMARK    6  A    between atoms: O_15  and  C_16
REMARK                            x       y       z     vdW  Elec       q    Type
REMARK                         _______ _______ _______ _____ _____    ______ ____
ROOT
ATOM      1  C   UNL     1       7.212   6.045  16.781  0.00  0.00    +0.000 C 
ATOM      2  C   UNL     1       5.709   6.262  16.764  0.00  0.00    +0.000 C 
ATOM      3  N   UNL     1       5.004   5.123  16.149  0.00  0.00    +0.000 N 
ATOM      4  C   UNL     1       3.928   4.412  16.721  0.00  0.00    +0.000 C 
ATOM      5  O   UNL     1       3.400   3.418  16.219  0.00  0.00    +0.000 OA
ATOM      6  C   UNL     1       5.630   4.715  14.911  0.00  0.00    +0.000 A 
ATOM      7  C   UNL     1       4.997   3.906  13.959  0.00  0.00    +0.000 A 
ATOM      8  C   UNL     1       5.636   3.555  12.763  0.00  0.00    +0.000 A 
ATOM      9  C   UNL     1       6.920   4.015  12.489  0.00  0.00    +0.000 A 
ATOM     10  C   UNL     1       7.569   4.821  13.416  0.00  0.00    +0.000 A 
ATOM     11  C   UNL     1       6.940   5.157  14.620  0.00  0.00    +0.000 A 
ATOM     12  O   UNL     1       7.720   5.915  15.461  0.00  0.00    +0.000 OA
ENDROOT
BRANCH   4  13
ATOM     13  C   UNL     1       3.413   4.752  18.083  0.00  0.00    +0.000 A 
ATOM     14  C   UNL     1       2.862   6.033  18.263  0.00  0.00    +0.000 A 
ATOM     15  C   UNL     1       2.331   6.410  19.496  0.00  0.00    +0.000 A 
ATOM     16  C   UNL     1       2.295   5.488  20.540  0.00  0.00    +0.000 A 
ATOM     17  C   UNL     1       2.829   4.209  20.369  0.00  0.00    +0.000 A 
ATOM     18  C   UNL     1       3.477   3.884  19.176  0.00  0.00    +0.000 A 
BRANCH  17  19
ATOM     19  O   UNL     1       2.676   3.358  21.428  0.00  0.00    +0.000 OA
BRANCH  19  20
ATOM     20  C   UNL     1       1.355   2.874  21.667  0.00  0.00    +0.000 C 
ATOM     21  F   UNL     1       0.725   2.588  20.499  0.00  0.00    +0.000 F 
ATOM     22  F   UNL     1       1.419   1.731  22.390  0.00  0.00    +0.000 F 
ENDBRANCH  19  20
ENDBRANCH  17  19
ENDBRANCH   4  13
BRANCH   1  23
ATOM     23  C   UNL     1       7.559   4.913  17.752  0.00  0.00    +0.000 C 
ATOM     24  O   UNL     1       8.335   3.989  17.529  0.00  0.00    +0.000 OA
BRANCH  23  26
ATOM     25  C   UNL     1       7.674   5.705  19.965  0.00  0.00    +0.000 C 
ATOM     26  O   UNL     1       6.897   5.094  18.936  0.00  0.00    +0.000 OA
ENDBRANCH  23  26
ENDBRANCH   1  23
TORSDOF 5
ENDMDL
MODEL 2
REMARK VINA RESULT:      -7.6      1.979      2.444
REMARK  Name = 
REMARK  6 active torsions:
REMARK  status: ('A' for Active; 'I' for Inactive)
REMARK    1  A    between atoms: C_1  and  O_2
REMARK    2  A    between atoms: O_2  and  C_3
REMARK    3  A    between atoms: C_3  and  C_5
REMARK    4  A    between atoms: C_8  and  C_10
REMARK    5  A    between atoms: C_14  and  O_15
REMARK    6  A    between atoms: O_15  and  C_16
REMARK                            x       y       z     vdW  Elec       q    Type
REMARK                         _______ _______ _______ _____ _____    ______ ____
ROOT
ATOM      1  C   UNL     1       7.176   6.178  16.864  0.00  0.00    +0.000 C 
ATOM      2  C   UNL     1       5.674   6.392  16.802  0.00  0.00    +0.000 C 
ATOM      3  N   UNL     1       4.984   5.230  16.212  0.00  0.00    +0.000 N 
ATOM      4  C   UNL     1       3.895   4.540  16.783  0.00  0.00    +0.000 C 
ATOM      5  O   UNL     1       3.380   3.527  16.305  0.00  0.00    +0.000 OA
ATOM      6  C   UNL     1       5.640   4.778  15.005  0.00  0.00    +0.000 A 
ATOM      7  C   UNL     1       5.031   3.934  14.068  0.00  0.00    +0.000 A 
ATOM      8  C   UNL     1       5.700   3.540  12.901  0.00  0.00    +0.000 A 
ATOM      9  C   UNL     1       6.990   3.992  12.643  0.00  0.00    +0.000 A 
ATOM     10  C   UNL     1       7.616   4.832  13.556  0.00  0.00    +0.000 A 
ATOM     11  C   UNL     1       6.958   5.210  14.731  0.00  0.00    +0.000 A 
ATOM     12  O   UNL     1       7.716   6.001  15.562  0.00  0.00    +0.000 OA
ENDROOT
BRANCH   4  13
ATOM     13  C   UNL     1       3.346   4.929  18.118  0.00  0.00    +0.000 A 
ATOM     14  C   UNL     1       3.455   3.990  19.158  0.00  0.00    +0.000 A 
ATOM     15  C   UNL     1       2.996   4.295  20.440  0.00  0.00    +0.000 A 
ATOM     16  C   UNL     1       2.476   5.561  20.701  0.00  0.00    +0.000 A 
ATOM     17  C   UNL     1       2.373   6.505  19.678  0.00  0.00    +0.000 A 
ATOM     18  C   UNL     1       2.713   6.148  18.371  0.00  0.00    +0.000 A 
BRANCH  17  19
ATOM     19  O   UNL     1       1.922   7.739  20.054  0.00  0.00    +0.000 OA
BRANCH  19  20
ATOM     20  C   UNL     1       1.345   7.832  21.357  0.00  0.00    +0.000 C 
ATOM     21  F   UNL     1       1.737   8.971  21.980  0.00  0.00    +0.000 F 
ATOM     22  F   UNL     1      -0.005   7.866  21.249  0.00  0.00    +0.000 F 
ENDBRANCH  19  20
ENDBRANCH  17  19
ENDBRANCH   4  13
BRANCH   1  23
ATOM     23  C   UNL     1       7.499   5.082  17.883  0.00  0.00    +0.000 C 
ATOM     24  O   UNL     1       8.183   4.086  17.674  0.00  0.00    +0.000 OA
BRANCH  23  26
ATOM     25  C   UNL     1       7.867   5.529  20.165  0.00  0.00    +0.000 C 
ATOM     26  O   UNL     1       6.935   5.389  19.093  0.00  0.00    +0.000 OA
ENDBRANCH  23  26
ENDBRANCH   1  23
TORSDOF 5
ENDMDL
MODEL 3
REMARK VINA RESULT:      -7.5      3.806      5.514
REMARK  Name = 
REMARK  6 active torsions:
REMARK  status: ('A' for Active; 'I' for Inactive)
REMARK    1  A    between atoms: C_1  and  O_2
REMARK    2  A    between atoms: O_2  and  C_3
REMARK    3  A    between atoms: C_3  and  C_5
REMARK    4  A    between atoms: C_8  and  C_10
REMARK    5  A    between atoms: C_14  and  O_15
REMARK    6  A    between atoms: O_15  and  C_16
REMARK                            x       y       z     vdW  Elec       q    Type
REMARK                         _______ _______ _______ _____ _____    ______ ____
ROOT
ATOM      1  C   UNL     1       3.215   4.102  19.141  0.00  0.00    +0.000 C 
ATOM      2  C   UNL     1       3.577   5.548  19.432  0.00  0.00    +0.000 C 
ATOM      3  N   UNL     1       3.675   6.342  18.192  0.00  0.00    +0.000 N 
ATOM      4  C   UNL     1       3.015   7.562  17.940  0.00  0.00    +0.000 C 
ATOM      5  O   UNL     1       3.057   8.172  16.870  0.00  0.00    +0.000 OA
ATOM      6  C   UNL     1       4.446   5.655  17.181  0.00  0.00    +0.000 A 
ATOM      7  C   UNL     1       4.983   6.295  16.055  0.00  0.00    +0.000 A 
ATOM      8  C   UNL     1       5.742   5.591  15.112  0.00  0.00    +0.000 A 
ATOM      9  C   UNL     1       5.992   4.233  15.281  0.00  0.00    +0.000 A 
ATOM     10  C   UNL     1       5.473   3.574  16.389  0.00  0.00    +0.000 A 
ATOM     11  C   UNL     1       4.697   4.271  17.322  0.00  0.00    +0.000 A 
ATOM     12  O   UNL     1       4.209   3.483  18.338  0.00  0.00    +0.000 OA
ENDROOT
BRANCH   4  13
ATOM     13  C   UNL     1       2.087   8.163  18.947  0.00  0.00    +0.000 A 
ATOM     14  C   UNL     1       1.958   7.503  20.180  0.00  0.00    +0.000 A 
ATOM     15  C   UNL     1       1.137   8.022  21.181  0.00  0.00    +0.000 A 
ATOM     16  C   UNL     1       0.484   9.236  20.973  0.00  0.00    +0.000 A 
ATOM     17  C   UNL     1       0.614   9.906  19.755  0.00  0.00    +0.000 A 
ATOM     18  C   UNL     1       1.330   9.315  18.714  0.00  0.00    +0.000 A 
BRANCH  17  19
ATOM     19  O   UNL     1      -0.005  11.122  19.682  0.00  0.00    +0.000 OA
BRANCH  19  20
ATOM     20  C   UNL     1      -1.290  11.144  19.062  0.00  0.00    +0.000 C 
ATOM     21  F   UNL     1      -1.707   9.887  18.767  0.00  0.00    +0.000 F 
ATOM     22  F   UNL     1      -2.192  11.687  19.914  0.00  0.00    +0.000 F 
ENDBRANCH  19  20
ENDBRANCH  17  19
ENDBRANCH   4  13
BRANCH   1  23
ATOM     23  C   UNL     1       1.779   4.025  18.616  0.00  0.00    +0.000 C 
ATOM     24  O   UNL     1       1.450   3.935  17.437  0.00  0.00    +0.000 OA
BRANCH  23  26
ATOM     25  C   UNL     1       1.177   3.087  20.688  0.00  0.00    +0.000 C 
ATOM     26  O   UNL     1       0.897   4.039  19.663  0.00  0.00    +0.000 OA
ENDBRANCH  23  26
ENDBRANCH   1  23
TORSDOF 5
ENDMDL
MODEL 4
REMARK VINA RESULT:      -7.4      2.326      2.769
REMARK  Name = 
REMARK  6 active torsions:
REMARK  status: ('A' for Active; 'I' for Inactive)
REMARK    1  A    between atoms: C_1  and  O_2
REMARK    2  A    between atoms: O_2  and  C_3
REMARK    3  A    between atoms: C_3  and  C_5
REMARK    4  A    between atoms: C_8  and  C_10
REMARK    5  A    between atoms: C_14  and  O_15
REMARK    6  A    between atoms: O_15  and  C_16
REMARK                            x       y       z     vdW  Elec       q    Type
REMARK                         _______ _______ _______ _____ _____    ______ ____
ROOT
ATOM      1  C   UNL     1       7.181   6.078  16.755  0.00  0.00    +0.000 C 
ATOM      2  C   UNL     1       5.676   6.274  16.707  0.00  0.00    +0.000 C 
ATOM      3  N   UNL     1       4.997   5.113  16.100  0.00  0.00    +0.000 N 
ATOM      4  C   UNL     1       3.921   4.399  16.666  0.00  0.00    +0.000 C 
ATOM      5  O   UNL     1       3.415   3.389  16.173  0.00  0.00    +0.000 OA
ATOM      6  C   UNL     1       5.651   4.691  14.882  0.00  0.00    +0.000 A 
ATOM      7  C   UNL     1       5.047   3.855  13.934  0.00  0.00    +0.000 A 
ATOM      8  C   UNL     1       5.713   3.490  12.757  0.00  0.00    +0.000 A 
ATOM      9  C   UNL     1       6.995   3.963  12.498  0.00  0.00    +0.000 A 
ATOM     10  C   UNL     1       7.617   4.795  13.422  0.00  0.00    +0.000 A 
ATOM     11  C   UNL     1       6.961   5.145  14.607  0.00  0.00    +0.000 A 
ATOM     12  O   UNL     1       7.715   5.930  15.448  0.00  0.00    +0.000 OA
ENDROOT
BRANCH   4  13
ATOM     13  C   UNL     1       3.375   4.758  18.011  0.00  0.00    +0.000 A 
ATOM     14  C   UNL     1       3.393   3.761  19.001  0.00  0.00    +0.000 A 
ATOM     15  C   UNL     1       2.931   4.031  20.289  0.00  0.00    +0.000 A 
ATOM     16  C   UNL     1       2.503   5.318  20.610  0.00  0.00    +0.000 A 
ATOM     17  C   UNL     1       2.492   6.320  19.638  0.00  0.00    +0.000 A 
ATOM     18  C   UNL     1       2.830   6.007  18.319  0.00  0.00    +0.000 A 
BRANCH  17  19
ATOM     19  O   UNL     1       2.126   7.562  20.073  0.00  0.00    +0.000 OA
BRANCH  19  20
ATOM     20  C   UNL     1       1.599   8.450  19.088  0.00  0.00    +0.000 C 
ATOM     21  F   UNL     1       0.873   9.439  19.666  0.00  0.00    +0.000 F 
ATOM     22  F   UNL     1       2.619   9.029  18.412  0.00  0.00    +0.000 F 
ENDBRANCH  19  20
ENDBRANCH  17  19
ENDBRANCH   4  13
BRANCH   1  23
ATOM     23  C   UNL     1       7.524   4.968  17.754  0.00  0.00    +0.000 C 
ATOM     24  O   UNL     1       8.299   4.039  17.555  0.00  0.00    +0.000 OA
BRANCH  23  26
ATOM     25  C   UNL     1       7.682   5.645  20.003  0.00  0.00    +0.000 C 
ATOM     26  O   UNL     1       6.860   5.179  18.932  0.00  0.00    +0.000 OA
ENDBRANCH  23  26
ENDBRANCH   1  23
TORSDOF 5
ENDMDL
MODEL 5
REMARK VINA RESULT:      -7.3      4.050      5.759
REMARK  Name = 
REMARK  6 active torsions:
REMARK  status: ('A' for Active; 'I' for Inactive)
REMARK    1  A    between atoms: C_1  and  O_2
REMARK    2  A    between atoms: O_2  and  C_3
REMARK    3  A    between atoms: C_3  and  C_5
REMARK    4  A    between atoms: C_8  and  C_10
REMARK    5  A    between atoms: C_14  and  O_15
REMARK    6  A    between atoms: O_15  and  C_16
REMARK                            x       y       z     vdW  Elec       q    Type
REMARK                         _______ _______ _______ _____ _____    ______ ____
ROOT
ATOM      1  C   UNL     1       3.134   4.163  19.179  0.00  0.00    +0.000 C 
ATOM      2  C   UNL     1       3.487   5.608  19.486  0.00  0.00    +0.000 C 
ATOM      3  N   UNL     1       3.577   6.416  18.255  0.00  0.00    +0.000 N 
ATOM      4  C   UNL     1       2.909   7.635  18.018  0.00  0.00    +0.000 C 
ATOM      5  O   UNL     1       2.945   8.258  16.956  0.00  0.00    +0.000 OA
ATOM      6  C   UNL     1       4.351   5.746  17.234  0.00  0.00    +0.000 A 
ATOM      7  C   UNL     1       4.880   6.402  16.115  0.00  0.00    +0.000 A 
ATOM      8  C   UNL     1       5.643   5.715  15.162  0.00  0.00    +0.000 A 
ATOM      9  C   UNL     1       5.901   4.356  15.315  0.00  0.00    +0.000 A 
ATOM     10  C   UNL     1       5.389   3.682  16.417  0.00  0.00    +0.000 A 
ATOM     11  C   UNL     1       4.611   4.363  17.359  0.00  0.00    +0.000 A 
ATOM     12  O   UNL     1       4.130   3.559  18.366  0.00  0.00    +0.000 OA
ENDROOT
BRANCH   4  13
ATOM     13  C   UNL     1       1.979   8.218  19.034  0.00  0.00    +0.000 A 
ATOM     14  C   UNL     1       1.909   7.583  20.285  0.00  0.00    +0.000 A 
ATOM     15  C   UNL     1       1.089   8.089  21.293  0.00  0.00    +0.000 A 
ATOM     16  C   UNL     1       0.378   9.267  21.075  0.00  0.00    +0.000 A 
ATOM     17  C   UNL     1       0.448   9.913  19.839  0.00  0.00    +0.000 A 
ATOM     18  C   UNL     1       1.166   9.329  18.794  0.00  0.00    +0.000 A 
BRANCH  17  19
ATOM     19  O   UNL     1      -0.226  11.099  19.753  0.00  0.00    +0.000 OA
BRANCH  19  20
ATOM     20  C   UNL     1       0.572  12.282  19.737  0.00  0.00    +0.000 C 
ATOM     21  F   UNL     1       1.713  12.107  20.449  0.00  0.00    +0.000 F 
ATOM     22  F   UNL     1       0.923  12.570  18.461  0.00  0.00    +0.000 F 
ENDBRANCH  19  20
ENDBRANCH  17  19
ENDBRANCH   4  13
BRANCH   1  23
ATOM     23  C   UNL     1       1.697   4.083  18.655  0.00  0.00    +0.000 C 
ATOM     24  O   UNL     1       1.365   4.042  17.476  0.00  0.00    +0.000 OA
BRANCH  23  26
ATOM     25  C   UNL     1       1.134   3.047  20.693  0.00  0.00    +0.000 C 
ATOM     26  O   UNL     1       0.820   4.028  19.705  0.00  0.00    +0.000 OA
ENDBRANCH  23  26
ENDBRANCH   1  23
TORSDOF 5
ENDMDL
MODEL 6
REMARK VINA RESULT:      -7.3      3.597      5.254
REMARK  Name = 
REMARK  6 active torsions:
REMARK  status: ('A' for Active; 'I' for Inactive)
REMARK    1  A    between atoms: C_1  and  O_2
REMARK    2  A    between atoms: O_2  and  C_3
REMARK    3  A    between atoms: C_3  and  C_5
REMARK    4  A    between atoms: C_8  and  C_10
REMARK    5  A    between atoms: C_14  and  O_15
REMARK    6  A    between atoms: O_15  and  C_16
REMARK                            x       y       z     vdW  Elec       q    Type
REMARK                         _______ _______ _______ _____ _____    ______ ____
ROOT
ATOM      1  C   UNL     1       3.035   4.625  19.590  0.00  0.00    +0.000 C 
ATOM      2  C   UNL     1       3.328   6.111  19.696  0.00  0.00    +0.000 C 
ATOM      3  N   UNL     1       3.467   6.733  18.366  0.00  0.00    +0.000 N 
ATOM      4  C   UNL     1       2.779   7.879  17.916  0.00  0.00    +0.000 C 
ATOM      5  O   UNL     1       2.858   8.340  16.776  0.00  0.00    +0.000 OA
ATOM      6  C   UNL     1       4.317   5.949  17.498  0.00  0.00    +0.000 A 
ATOM      7  C   UNL     1       4.891   6.453  16.324  0.00  0.00    +0.000 A 
ATOM      8  C   UNL     1       5.726   5.662  15.525  0.00  0.00    +0.000 A 
ATOM      9  C   UNL     1       6.014   4.351  15.891  0.00  0.00    +0.000 A 
ATOM     10  C   UNL     1       5.459   3.827  17.052  0.00  0.00    +0.000 A 
ATOM     11  C   UNL     1       4.608   4.610  17.841  0.00  0.00    +0.000 A 
ATOM     12  O   UNL     1       4.093   3.946  18.930  0.00  0.00    +0.000 OA
ENDROOT
BRANCH   4  13
ATOM     13  C   UNL     1       1.775   8.570  18.783  0.00  0.00    +0.000 A 
ATOM     14  C   UNL     1       0.975   9.557  18.182  0.00  0.00    +0.000 A 
ATOM     15  C   UNL     1      -0.005  10.221  18.919  0.00  0.00    +0.000 A 
ATOM     16  C   UNL     1      -0.229   9.862  20.247  0.00  0.00    +0.000 A 
ATOM     17  C   UNL     1       0.552   8.874  20.851  0.00  0.00    +0.000 A 
ATOM     18  C   UNL     1       1.616   8.309  20.146  0.00  0.00    +0.000 A 
BRANCH  17  19
ATOM     19  O   UNL     1       0.202   8.544  22.129  0.00  0.00    +0.000 OA
BRANCH  19  20
ATOM     20  C   UNL     1       0.013   9.630  23.036  0.00  0.00    +0.000 C 
ATOM     21  F   UNL     1      -1.307   9.867  23.240  0.00  0.00    +0.000 F 
ATOM     22  F   UNL     1       0.565   9.318  24.233  0.00  0.00    +0.000 F 
ENDBRANCH  19  20
ENDBRANCH  17  19
ENDBRANCH   4  13
BRANCH   1  23
ATOM     23  C   UNL     1       1.633   4.416  19.009  0.00  0.00    +0.000 C 
ATOM     24  O   UNL     1       1.338   4.449  17.819  0.00  0.00    +0.000 OA
BRANCH  23  26
ATOM     25  C   UNL     1       1.158   3.127  20.919  0.00  0.00    +0.000 C 
ATOM     26  O   UNL     1       0.745   4.151  20.016  0.00  0.00    +0.000 OA
ENDBRANCH  23  26
ENDBRANCH   1  23
TORSDOF 5
ENDMDL
MODEL 7
REMARK VINA RESULT:      -6.9      3.629      7.032
REMARK  Name = 
REMARK  6 active torsions:
REMARK  status: ('A' for Active; 'I' for Inactive)
REMARK    1  A    between atoms: C_1  and  O_2
REMARK    2  A    between atoms: O_2  and  C_3
REMARK    3  A    between atoms: C_3  and  C_5
REMARK    4  A    between atoms: C_8  and  C_10
REMARK    5  A    between atoms: C_14  and  O_15
REMARK    6  A    between atoms: O_15  and  C_16
REMARK                            x       y       z     vdW  Elec       q    Type
REMARK                         _______ _______ _______ _____ _____    ______ ____
ROOT
ATOM      1  C   UNL     1       3.230   3.369  18.954  0.00  0.00    +0.000 C 
ATOM      2  C   UNL     1       3.204   4.110  17.628  0.00  0.00    +0.000 C 
ATOM      3  N   UNL     1       3.484   5.547  17.805  0.00  0.00    +0.000 N 
ATOM      4  C   UNL     1       4.456   6.289  17.104  0.00  0.00    +0.000 C 
ATOM      5  O   UNL     1       4.721   7.474  17.318  0.00  0.00    +0.000 OA
ATOM      6  C   UNL     1       2.718   6.109  18.895  0.00  0.00    +0.000 A 
ATOM      7  C   UNL     1       2.524   7.485  19.070  0.00  0.00    +0.000 A 
ATOM      8  C   UNL     1       1.755   7.982  20.131  0.00  0.00    +0.000 A 
ATOM      9  C   UNL     1       1.153   7.110  21.032  0.00  0.00    +0.000 A 
ATOM     10  C   UNL     1       1.328   5.740  20.880  0.00  0.00    +0.000 A 
ATOM     11  C   UNL     1       2.112   5.243  19.833  0.00  0.00    +0.000 A 
ATOM     12  O   UNL     1       2.238   3.873  19.836  0.00  0.00    +0.000 OA
ENDROOT
BRANCH   4  13
ATOM     13  C   UNL     1       5.352   5.639  16.099  0.00  0.00    +0.000 A 
ATOM     14  C   UNL     1       6.719   5.551  16.414  0.00  0.00    +0.000 A 
ATOM     15  C   UNL     1       7.610   4.928  15.541  0.00  0.00    +0.000 A 
ATOM     16  C   UNL     1       7.130   4.338  14.374  0.00  0.00    +0.000 A 
ATOM     17  C   UNL     1       5.772   4.408  14.056  0.00  0.00    +0.000 A 
ATOM     18  C   UNL     1       4.909   5.147  14.868  0.00  0.00    +0.000 A 
BRANCH  17  19
ATOM     19  O   UNL     1       5.392   3.734  12.930  0.00  0.00    +0.000 OA
BRANCH  19  20
ATOM     20  C   UNL     1       6.434   3.091  12.195  0.00  0.00    +0.000 C 
ATOM     21  F   UNL     1       5.935   2.098  11.417  0.00  0.00    +0.000 F 
ATOM     22  F   UNL     1       7.031   3.992  11.379  0.00  0.00    +0.000 F 
ENDBRANCH  19  20
ENDBRANCH  17  19
ENDBRANCH   4  13
BRANCH   1  23
ATOM     23  C   UNL     1       4.662   3.336  19.497  0.00  0.00    +0.000 C 
ATOM     24  O   UNL     1       5.472   4.255  19.441  0.00  0.00    +0.000 OA
BRANCH  23  26
ATOM     25  C   UNL     1       4.409   0.999  19.377  0.00  0.00    +0.000 C 
ATOM     26  O   UNL     1       4.907   2.128  20.094  0.00  0.00    +0.000 OA
ENDBRANCH  23  26
ENDBRANCH   1  23
TORSDOF 5
ENDMDL
MODEL 8
REMARK VINA RESULT:      -6.9      3.644      6.927
REMARK  Name = 
REMARK  6 active torsions:
REMARK  status: ('A' for Active; 'I' for Inactive)
REMARK    1  A    between atoms: C_1  and  O_2
REMARK    2  A    between atoms: O_2  and  C_3
REMARK    3  A    between atoms: C_3  and  C_5
REMARK    4  A    between atoms: C_8  and  C_10
REMARK    5  A    between atoms: C_14  and  O_15
REMARK    6  A    between atoms: O_15  and  C_16
REMARK                            x       y       z     vdW  Elec       q    Type
REMARK                         _______ _______ _______ _____ _____    ______ ____
ROOT
ATOM      1  C   UNL     1       4.120   6.391  19.199  0.00  0.00    +0.000 C 
ATOM      2  C   UNL     1       5.024   5.263  18.735  0.00  0.00    +0.000 C 
ATOM      3  N   UNL     1       4.244   4.096  18.280  0.00  0.00    +0.000 N 
ATOM      4  C   UNL     1       4.393   3.437  17.042  0.00  0.00    +0.000 C 
ATOM      5  O   UNL     1       3.682   2.508  16.654  0.00  0.00    +0.000 OA
ATOM      6  C   UNL     1       3.192   3.762  19.213  0.00  0.00    +0.000 A 
ATOM      7  C   UNL     1       2.529   2.528  19.217  0.00  0.00    +0.000 A 
ATOM      8  C   UNL     1       1.530   2.243  20.156  0.00  0.00    +0.000 A 
ATOM      9  C   UNL     1       1.180   3.183  21.120  0.00  0.00    +0.000 A 
ATOM     10  C   UNL     1       1.823   4.414  21.140  0.00  0.00    +0.000 A 
ATOM     11  C   UNL     1       2.808   4.709  20.190  0.00  0.00    +0.000 A 
ATOM     12  O   UNL     1       3.321   5.980  20.299  0.00  0.00    +0.000 OA
ENDROOT
BRANCH   4  13
ATOM     13  C   UNL     1       5.379   3.914  16.024  0.00  0.00    +0.000 A 
ATOM     14  C   UNL     1       6.509   4.603  16.494  0.00  0.00    +0.000 A 
ATOM     15  C   UNL     1       7.489   5.049  15.607  0.00  0.00    +0.000 A 
ATOM     16  C   UNL     1       7.371   4.757  14.250  0.00  0.00    +0.000 A 
ATOM     17  C   UNL     1       6.258   4.062  13.772  0.00  0.00    +0.000 A 
ATOM     18  C   UNL     1       5.220   3.736  14.647  0.00  0.00    +0.000 A 
BRANCH  17  19
ATOM     19  O   UNL     1       6.276   3.762  12.440  0.00  0.00    +0.000 OA
BRANCH  19  20
ATOM     20  C   UNL     1       5.213   2.938  11.961  0.00  0.00    +0.000 C 
ATOM     21  F   UNL     1       4.373   3.645  11.164  0.00  0.00    +0.000 F 
ATOM     22  F   UNL     1       5.726   1.925  11.223  0.00  0.00    +0.000 F 
ENDBRANCH  19  20
ENDBRANCH  17  19
ENDBRANCH   4  13
BRANCH   1  23
ATOM     23  C   UNL     1       3.368   6.976  18.000  0.00  0.00    +0.000 C 
ATOM     24  O   UNL     1       3.750   6.956  16.835  0.00  0.00    +0.000 OA
BRANCH  23  26
ATOM     25  C   UNL     1       1.854   8.770  17.831  0.00  0.00    +0.000 C 
ATOM     26  O   UNL     1       2.175   7.506  18.411  0.00  0.00    +0.000 OA
ENDBRANCH  23  26
ENDBRANCH   1  23
TORSDOF 5
ENDMDL
MODEL 9
REMARK VINA RESULT:      -6.8      3.298      6.615
REMARK  Name = 
REMARK  6 active torsions:
REMARK  status: ('A' for Active; 'I' for Inactive)
REMARK    1  A    between atoms: C_1  and  O_2
REMARK    2  A    between atoms: O_2  and  C_3
REMARK    3  A    between atoms: C_3  and  C_5
REMARK    4  A    between atoms: C_8  and  C_10
REMARK    5  A    between atoms: C_14  and  O_15
REMARK    6  A    between atoms: O_15  and  C_16
REMARK                            x       y       z     vdW  Elec       q    Type
REMARK                         _______ _______ _______ _____ _____    ______ ____
ROOT
ATOM      1  C   UNL     1       3.666   6.189  19.528  0.00  0.00    +0.000 C 
ATOM      2  C   UNL     1       4.576   5.103  18.984  0.00  0.00    +0.000 C 
ATOM      3  N   UNL     1       3.832   4.139  18.152  0.00  0.00    +0.000 N 
ATOM      4  C   UNL     1       4.173   3.744  16.842  0.00  0.00    +0.000 C 
ATOM      5  O   UNL     1       3.498   2.990  16.139  0.00  0.00    +0.000 OA
ATOM      6  C   UNL     1       2.605   3.719  18.792  0.00  0.00    +0.000 A 
ATOM      7  C   UNL     1       1.885   2.581  18.404  0.00  0.00    +0.000 A 
ATOM      8  C   UNL     1       0.712   2.201  19.069  0.00  0.00    +0.000 A 
ATOM      9  C   UNL     1       0.241   2.946  20.145  0.00  0.00    +0.000 A 
ATOM     10  C   UNL     1       0.937   4.078  20.551  0.00  0.00    +0.000 A 
ATOM     11  C   UNL     1       2.098   4.471  19.875  0.00  0.00    +0.000 A 
ATOM     12  O   UNL     1       2.652   5.635  20.354  0.00  0.00    +0.000 OA
ENDROOT
BRANCH   4  13
ATOM     13  C   UNL     1       5.359   4.328  16.141  0.00  0.00    +0.000 A 
ATOM     14  C   UNL     1       5.604   3.902  14.825  0.00  0.00    +0.000 A 
ATOM     15  C   UNL     1       6.671   4.427  14.096  0.00  0.00    +0.000 A 
ATOM     16  C   UNL     1       7.465   5.423  14.661  0.00  0.00    +0.000 A 
ATOM     17  C   UNL     1       7.224   5.862  15.965  0.00  0.00    +0.000 A 
ATOM     18  C   UNL     1       6.238   5.239  16.732  0.00  0.00    +0.000 A 
BRANCH  17  19
ATOM     19  O   UNL     1       8.010   6.893  16.396  0.00  0.00    +0.000 OA
BRANCH  19  20
ATOM     20  C   UNL     1       7.604   7.538  17.603  0.00  0.00    +0.000 C 
ATOM     21  F   UNL     1       8.491   7.302  18.601  0.00  0.00    +0.000 F 
ATOM     22  F   UNL     1       7.556   8.877  17.402  0.00  0.00    +0.000 F 
ENDBRANCH  19  20
ENDBRANCH  17  19
ENDBRANCH   4  13
BRANCH   1  23
ATOM     23  C   UNL     1       3.187   7.084  18.380  0.00  0.00    +0.000 C 
ATOM     24  O   UNL     1       3.757   7.238  17.305  0.00  0.00    +0.000 OA
BRANCH  23  26
ATOM     25  C   UNL     1       1.819   8.990  18.193  0.00  0.00    +0.000 C 
ATOM     26  O   UNL     1       1.997   7.673  18.713  0.00  0.00    +0.000 OA
ENDBRANCH  23  26
ENDBRANCH   1  23
TORSDOF 5
ENDMDL
