MODEL 1
REMARK VINA RESULT:      -7.3      0.000      0.000
REMARK  Name = 
REMARK  6 active torsions:
REMARK  status: ('A' for Active; 'I' for Inactive)
REMARK    1  A    between atoms: C_1  and  N_2
REMARK    2  A    between atoms: N_5  and  C_6
REMARK    3  A    between atoms: C_6  and  C_7
REMARK    4  A    between atoms: C_7  and  C_8
REMARK    5  A    between atoms: C_7  and  C_14
REMARK    6  A    between atoms: C_14  and  O_15
REMARK                            x       y       z     vdW  Elec       q    Type
REMARK                         _______ _______ _______ _____ _____    ______ ____
ROOT
ATOM      1  C   UNL     1       3.196   5.212  19.106  0.00  0.00    +0.000 C 
ENDROOT
BRANCH   1   2
ATOM      2  C   UNL     1       2.581   6.640  19.143  0.00  0.00    +0.000 A 
ATOM      3  C   UNL     1       2.465   7.495  18.056  0.00  0.00    +0.000 A 
ATOM      4  S   UNL     1       1.692   8.975  18.437  0.00  0.00    +0.000 S 
ATOM      5  C   UNL     1       1.507   8.505  20.047  0.00  0.00    +0.000 A 
ATOM      6 CL   UNL     1       0.743   9.561  21.164  0.00  0.00    +0.000 Cl
ATOM      7  C   UNL     1       2.013   7.256  20.310  0.00  0.00    +0.000 A 
ENDBRANCH   1   2
BRANCH   1   8
ATOM      8  C   UNL     1       2.512   4.268  20.177  0.00  0.00    +0.000 C 
ATOM      9  C   UNL     1       1.012   3.982  19.889  0.00  0.00    +0.000 C 
ATOM     10  C   UNL     1       0.769   3.071  18.686  0.00  0.00    +0.000 C 
ATOM     11  C   UNL     1       1.564   1.768  18.744  0.00  0.00    +0.000 C 
ATOM     12  C   UNL     1       3.014   1.958  19.161  0.00  0.00    +0.000 C 
ATOM     13  C   UNL     1       3.185   2.892  20.355  0.00  0.00    +0.000 C 
BRANCH   8  14
ATOM     14  O   UNL     1       2.583   4.905  21.468  0.00  0.00    +0.000 OA
ATOM     15  H   UNL     1       1.753   4.713  21.938  0.00  0.00    +0.000 HD
ENDBRANCH   8  14
ENDBRANCH   1   8
BRANCH   1  16
ATOM     16  C   UNL     1       4.757   5.368  19.214  0.00  0.00    +0.000 C 
BRANCH  16  21
ATOM     17  C   UNL     1       8.061   8.610  17.593  0.00  0.00    +0.000 C 
ATOM     18  N   UNL     1       7.528   7.264  17.418  0.00  0.00    +0.000 NA
ATOM     19  C   UNL     1       6.106   7.327  17.069  0.00  0.00    +0.000 C 
ATOM     20  C   UNL     1       5.503   5.924  16.906  0.00  0.00    +0.000 C 
ATOM     21  N   UNL     1       5.624   5.029  18.071  0.00  0.00    +0.000 NA
ATOM     22  C   UNL     1       7.055   5.027  18.486  0.00  0.00    +0.000 C 
ATOM     23  C   UNL     1       7.712   6.431  18.621  0.00  0.00    +0.000 C 
ENDBRANCH  16  21
ENDBRANCH   1  16
TORSDOF 5
ENDMDL
MODEL 2
REMARK VINA RESULT:      -7.2      0.909      1.143
REMARK  Name = 
REMARK  6 active torsions:
REMARK  status: ('A' for Active; 'I' for Inactive)
REMARK    1  A    between atoms: C_1  and  N_2
REMARK    2  A    between atoms: N_5  and  C_6
REMARK    3  A    between atoms: C_6  and  C_7
REMARK    4  A    between atoms: C_7  and  C_8
REMARK    5  A    between atoms: C_7  and  C_14
REMARK    6  A    between atoms: C_14  and  O_15
REMARK                            x       y       z     vdW  Elec       q    Type
REMARK                         _______ _______ _______ _____ _____    ______ ____
ROOT
ATOM      1  C   UNL     1       3.094   5.152  19.213  0.00  0.00    +0.000 C 
ENDROOT
BRANCH   1   2
ATOM      2  C   UNL     1       2.457   6.559  19.394  0.00  0.00    +0.000 A 
ATOM      3  C   UNL     1       1.872   7.034  20.559  0.00  0.00    +0.000 A 
ATOM      4  S   UNL     1       1.314   8.648  20.429  0.00  0.00    +0.000 S 
ATOM      5  C   UNL     1       1.835   8.736  18.826  0.00  0.00    +0.000 A 
ATOM      6 CL   UNL     1       1.606  10.182  17.931  0.00  0.00    +0.000 Cl
ATOM      7  C   UNL     1       2.423   7.578  18.381  0.00  0.00    +0.000 A 
ENDBRANCH   1   2
BRANCH   1   8
ATOM      8  C   UNL     1       2.488   4.114  20.243  0.00  0.00    +0.000 C 
ATOM      9  C   UNL     1       0.988   3.795  19.998  0.00  0.00    +0.000 C 
ATOM     10  C   UNL     1       0.723   2.959  18.747  0.00  0.00    +0.000 C 
ATOM     11  C   UNL     1       1.561   1.684  18.682  0.00  0.00    +0.000 C 
ATOM     12  C   UNL     1       3.021   1.897  19.051  0.00  0.00    +0.000 C 
ATOM     13  C   UNL     1       3.213   2.754  20.298  0.00  0.00    +0.000 C 
BRANCH   8  14
ATOM     14  O   UNL     1       2.595   4.664  21.572  0.00  0.00    +0.000 OA
ATOM     15  H   UNL     1       1.734   5.058  21.797  0.00  0.00    +0.000 HD
ENDBRANCH   8  14
ENDBRANCH   1   8
BRANCH   1  16
ATOM     16  C   UNL     1       4.656   5.334  19.247  0.00  0.00    +0.000 C 
BRANCH  16  21
ATOM     17  C   UNL     1       7.997   8.507  17.569  0.00  0.00    +0.000 C 
ATOM     18  N   UNL     1       7.421   7.180  17.391  0.00  0.00    +0.000 NA
ATOM     19  C   UNL     1       5.990   7.288  17.089  0.00  0.00    +0.000 C 
ATOM     20  C   UNL     1       5.342   5.906  16.925  0.00  0.00    +0.000 C 
ATOM     21  N   UNL     1       5.476   4.989  18.071  0.00  0.00    +0.000 NA
ATOM     22  C   UNL     1       6.919   4.939  18.439  0.00  0.00    +0.000 C 
ATOM     23  C   UNL     1       7.619   6.322  18.574  0.00  0.00    +0.000 C 
ENDBRANCH  16  21
ENDBRANCH   1  16
TORSDOF 5
ENDMDL
MODEL 3
REMARK VINA RESULT:      -7.1      2.213      5.122
REMARK  Name = 
REMARK  6 active torsions:
REMARK  status: ('A' for Active; 'I' for Inactive)
REMARK    1  A    between atoms: C_1  and  N_2
REMARK    2  A    between atoms: N_5  and  C_6
REMARK    3  A    between atoms: C_6  and  C_7
REMARK    4  A    between atoms: C_7  and  C_8
REMARK    5  A    between atoms: C_7  and  C_14
REMARK    6  A    between atoms: C_14  and  O_15
REMARK                            x       y       z     vdW  Elec       q    Type
REMARK                         _______ _______ _______ _____ _____    ______ ____
ROOT
ATOM      1  C   UNL     1       4.055   5.619  17.862  0.00  0.00    +0.000 C 
ENDROOT
BRANCH   1   2
ATOM      2  C   UNL     1       3.158   6.775  18.390  0.00  0.00    +0.000 A 
ATOM      3  C   UNL     1       2.781   7.896  17.664  0.00  0.00    +0.000 A 
ATOM      4  S   UNL     1       1.746   8.948  18.533  0.00  0.00    +0.000 S 
ATOM      5  C   UNL     1       1.789   7.936  19.882  0.00  0.00    +0.000 A 
ATOM      6 CL   UNL     1       0.910   8.355  21.295  0.00  0.00    +0.000 Cl
ATOM      7  C   UNL     1       2.566   6.819  19.698  0.00  0.00    +0.000 A 
ENDBRANCH   1   2
BRANCH   1   8
ATOM      8  C   UNL     1       5.116   6.152  16.814  0.00  0.00    +0.000 C 
ATOM      9  C   UNL     1       6.365   6.803  17.467  0.00  0.00    +0.000 C 
ATOM     10  C   UNL     1       7.300   5.809  18.155  0.00  0.00    +0.000 C 
ATOM     11  C   UNL     1       7.707   4.641  17.260  0.00  0.00    +0.000 C 
ATOM     12  C   UNL     1       6.549   4.043  16.476  0.00  0.00    +0.000 C 
ATOM     13  C   UNL     1       5.648   5.090  15.831  0.00  0.00    +0.000 C 
BRANCH   8  14
ATOM     14  O   UNL     1       4.490   7.160  15.994  0.00  0.00    +0.000 OA
ATOM     15  H   UNL     1       3.730   6.747  15.548  0.00  0.00    +0.000 HD
ENDBRANCH   8  14
ENDBRANCH   1   8
BRANCH   1  16
ATOM     16  C   UNL     1       3.102   4.472  17.365  0.00  0.00    +0.000 C 
BRANCH  16  21
ATOM     17  C   UNL     1       1.358   2.739  21.608  0.00  0.00    +0.000 C 
ATOM     18  N   UNL     1       2.087   2.398  20.392  0.00  0.00    +0.000 NA
ATOM     19  C   UNL     1       3.310   3.201  20.297  0.00  0.00    +0.000 C 
ATOM     20  C   UNL     1       4.090   2.890  19.011  0.00  0.00    +0.000 C 
ATOM     21  N   UNL     1       3.352   3.071  17.748  0.00  0.00    +0.000 NA
ATOM     22  C   UNL     1       2.067   2.326  17.869  0.00  0.00    +0.000 C 
ATOM     23  C   UNL     1       1.269   2.586  19.180  0.00  0.00    +0.000 C 
ENDBRANCH  16  21
ENDBRANCH   1  16
TORSDOF 5
ENDMDL
MODEL 4
REMARK VINA RESULT:      -7.1      3.444      5.287
REMARK  Name = 
REMARK  6 active torsions:
REMARK  status: ('A' for Active; 'I' for Inactive)
REMARK    1  A    between atoms: C_1  and  N_2
REMARK    2  A    between atoms: N_5  and  C_6
REMARK    3  A    between atoms: C_6  and  C_7
REMARK    4  A    between atoms: C_7  and  C_8
REMARK    5  A    between atoms: C_7  and  C_14
REMARK    6  A    between atoms: C_14  and  O_15
REMARK                            x       y       z     vdW  Elec       q    Type
REMARK                         _______ _______ _______ _____ _____    ______ ____
ROOT
ATOM      1  C   UNL     1       2.893   5.298  18.892  0.00  0.00    +0.000 C 
ENDROOT
BRANCH   1   2
ATOM      2  C   UNL     1       4.237   5.161  18.120  0.00  0.00    +0.000 A 
ATOM      3  C   UNL     1       5.496   5.110  18.700  0.00  0.00    +0.000 A 
ATOM      4  S   UNL     1       6.758   4.903  17.561  0.00  0.00    +0.000 S 
ATOM      5  C   UNL     1       5.653   4.885  16.285  0.00  0.00    +0.000 A 
ATOM      6 CL   UNL     1       6.210   4.695  14.674  0.00  0.00    +0.000 Cl
ATOM      7  C   UNL     1       4.350   5.030  16.694  0.00  0.00    +0.000 A 
ENDBRANCH   1   2
BRANCH   1   8
ATOM      8  C   UNL     1       2.054   3.958  18.822  0.00  0.00    +0.000 C 
ATOM      9  C   UNL     1       2.918   2.674  18.951  0.00  0.00    +0.000 C 
ATOM     10  C   UNL     1       3.484   2.440  20.352  0.00  0.00    +0.000 C 
ATOM     11  C   UNL     1       2.423   2.488  21.449  0.00  0.00    +0.000 C 
ATOM     12  C   UNL     1       1.449   3.647  21.302  0.00  0.00    +0.000 C 
ATOM     13  C   UNL     1       0.938   3.833  19.878  0.00  0.00    +0.000 C 
BRANCH   8  14
ATOM     14  O   UNL     1       1.388   3.895  17.544  0.00  0.00    +0.000 OA
ATOM     15  H   UNL     1       1.170   2.963  17.371  0.00  0.00    +0.000 HD
ENDBRANCH   8  14
ENDBRANCH   1   8
BRANCH   1  16
ATOM     16  C   UNL     1       2.177   6.595  18.364  0.00  0.00    +0.000 C 
BRANCH  16  21
ATOM     17  C   UNL     1      -1.056  10.202  19.131  0.00  0.00    +0.000 C 
ATOM     18  N   UNL     1       0.355   9.838  19.178  0.00  0.00    +0.000 NA
ATOM     19  C   UNL     1       0.819   9.448  17.843  0.00  0.00    +0.000 C 
ATOM     20  C   UNL     1       2.296   9.029  17.859  0.00  0.00    +0.000 C 
ATOM     21  N   UNL     1       2.646   7.930  18.778  0.00  0.00    +0.000 NA
ATOM     22  C   UNL     1       2.102   8.280  20.120  0.00  0.00    +0.000 C 
ATOM     23  C   UNL     1       0.618   8.749  20.137  0.00  0.00    +0.000 C 
ENDBRANCH  16  21
ENDBRANCH   1  16
TORSDOF 5
ENDMDL
MODEL 5
REMARK VINA RESULT:      -7.1      2.358      5.224
REMARK  Name = 
REMARK  6 active torsions:
REMARK  status: ('A' for Active; 'I' for Inactive)
REMARK    1  A    between atoms: C_1  and  N_2
REMARK    2  A    between atoms: N_5  and  C_6
REMARK    3  A    between atoms: C_6  and  C_7
REMARK    4  A    between atoms: C_7  and  C_8
REMARK    5  A    between atoms: C_7  and  C_14
REMARK    6  A    between atoms: C_14  and  O_15
REMARK                            x       y       z     vdW  Elec       q    Type
REMARK                         _______ _______ _______ _____ _____    ______ ____
ROOT
ATOM      1  C   UNL     1       4.022   5.520  17.895  0.00  0.00    +0.000 C 
ENDROOT
BRANCH   1   2
ATOM      2  C   UNL     1       3.113   6.630  18.496  0.00  0.00    +0.000 A 
ATOM      3  C   UNL     1       2.571   6.622  19.774  0.00  0.00    +0.000 A 
ATOM      4  S   UNL     1       1.658   8.025  20.132  0.00  0.00    +0.000 S 
ATOM      5  C   UNL     1       1.963   8.659  18.597  0.00  0.00    +0.000 A 
ATOM      6 CL   UNL     1       1.320  10.188  18.160  0.00  0.00    +0.000 Cl
ATOM      7  C   UNL     1       2.739   7.839  17.816  0.00  0.00    +0.000 A 
ENDBRANCH   1   2
BRANCH   1   8
ATOM      8  C   UNL     1       5.052   6.126  16.856  0.00  0.00    +0.000 C 
ATOM      9  C   UNL     1       6.308   6.755  17.519  0.00  0.00    +0.000 C 
ATOM     10  C   UNL     1       7.270   5.736  18.128  0.00  0.00    +0.000 C 
ATOM     11  C   UNL     1       7.671   4.627  17.158  0.00  0.00    +0.000 C 
ATOM     12  C   UNL     1       6.503   4.059  16.366  0.00  0.00    +0.000 C 
ATOM     13  C   UNL     1       5.575   5.130  15.802  0.00  0.00    +0.000 C 
BRANCH   8  14
ATOM     14  O   UNL     1       4.396   7.171  16.110  0.00  0.00    +0.000 OA
ATOM     15  H   UNL     1       4.845   8.009  16.319  0.00  0.00    +0.000 HD
ENDBRANCH   8  14
ENDBRANCH   1   8
BRANCH   1  16
ATOM     16  C   UNL     1       3.081   4.381  17.356  0.00  0.00    +0.000 C 
BRANCH  16  21
ATOM     17  C   UNL     1       1.398   2.712  21.649  0.00  0.00    +0.000 C 
ATOM     18  N   UNL     1       2.091   2.348  20.419  0.00  0.00    +0.000 NA
ATOM     19  C   UNL     1       3.329   3.122  20.290  0.00  0.00    +0.000 C 
ATOM     20  C   UNL     1       4.072   2.786  18.989  0.00  0.00    +0.000 C 
ATOM     21  N   UNL     1       3.309   2.976  17.742  0.00  0.00    +0.000 NA
ATOM     22  C   UNL     1       2.011   2.262  17.898  0.00  0.00    +0.000 C 
ATOM     23  C   UNL     1       1.249   2.547  19.225  0.00  0.00    +0.000 C 
ENDBRANCH  16  21
ENDBRANCH   1  16
TORSDOF 5
ENDMDL
MODEL 6
REMARK VINA RESULT:      -7.1      3.294      5.160
REMARK  Name = 
REMARK  6 active torsions:
REMARK  status: ('A' for Active; 'I' for Inactive)
REMARK    1  A    between atoms: C_1  and  N_2
REMARK    2  A    between atoms: N_5  and  C_6
REMARK    3  A    between atoms: C_6  and  C_7
REMARK    4  A    between atoms: C_7  and  C_8
REMARK    5  A    between atoms: C_7  and  C_14
REMARK    6  A    between atoms: C_14  and  O_15
REMARK                            x       y       z     vdW  Elec       q    Type
REMARK                         _______ _______ _______ _____ _____    ______ ____
ROOT
ATOM      1  C   UNL     1       2.703   5.472  19.086  0.00  0.00    +0.000 C 
ENDROOT
BRANCH   1   2
ATOM      2  C   UNL     1       4.127   5.505  18.461  0.00  0.00    +0.000 A 
ATOM      3  C   UNL     1       4.410   5.603  17.106  0.00  0.00    +0.000 A 
ATOM      4  S   UNL     1       6.087   5.665  16.767  0.00  0.00    +0.000 S 
ATOM      5  C   UNL     1       6.460   5.557  18.409  0.00  0.00    +0.000 A 
ATOM      6 CL   UNL     1       8.100   5.560  18.915  0.00  0.00    +0.000 Cl
ATOM      7  C   UNL     1       5.351   5.476  19.214  0.00  0.00    +0.000 A 
ENDBRANCH   1   2
BRANCH   1   8
ATOM      8  C   UNL     1       2.001   4.076  18.832  0.00  0.00    +0.000 C 
ATOM      9  C   UNL     1       2.979   2.870  18.871  0.00  0.00    +0.000 C 
ATOM     10  C   UNL     1       3.506   2.538  20.267  0.00  0.00    +0.000 C 
ATOM     11  C   UNL     1       2.401   2.369  21.307  0.00  0.00    +0.000 C 
ATOM     12  C   UNL     1       1.327   3.442  21.233  0.00  0.00    +0.000 C 
ATOM     13  C   UNL     1       0.859   3.735  19.811  0.00  0.00    +0.000 C 
BRANCH   8  14
ATOM     14  O   UNL     1       1.397   4.092  17.523  0.00  0.00    +0.000 OA
ATOM     15  H   UNL     1       1.844   4.781  17.002  0.00  0.00    +0.000 HD
ENDBRANCH   8  14
ENDBRANCH   1   8
BRANCH   1  16
ATOM     16  C   UNL     1       1.932   6.741  18.568  0.00  0.00    +0.000 C 
BRANCH  16  21
ATOM     17  C   UNL     1      -1.289  10.413  19.013  0.00  0.00    +0.000 C 
ATOM     18  N   UNL     1       0.116  10.041  19.128  0.00  0.00    +0.000 NA
ATOM     19  C   UNL     1       0.620   9.569  17.834  0.00  0.00    +0.000 C 
ATOM     20  C   UNL     1       2.091   9.139  17.924  0.00  0.00    +0.000 C 
ATOM     21  N   UNL     1       2.400   8.095  18.917  0.00  0.00    +0.000 NA
ATOM     22  C   UNL     1       1.817   8.529  20.219  0.00  0.00    +0.000 C 
ATOM     23  C   UNL     1       0.338   9.010  20.158  0.00  0.00    +0.000 C 
ENDBRANCH  16  21
ENDBRANCH   1  16
TORSDOF 5
ENDMDL
MODEL 7
REMARK VINA RESULT:      -6.9      1.758      2.569
REMARK  Name = 
REMARK  6 active torsions:
REMARK  status: ('A' for Active; 'I' for Inactive)
REMARK    1  A    between atoms: C_1  and  N_2
REMARK    2  A    between atoms: N_5  and  C_6
REMARK    3  A    between atoms: C_6  and  C_7
REMARK    4  A    between atoms: C_7  and  C_8
REMARK    5  A    between atoms: C_7  and  C_14
REMARK    6  A    between atoms: C_14  and  O_15
REMARK                            x       y       z     vdW  Elec       q    Type
REMARK                         _______ _______ _______ _____ _____    ______ ____
ROOT
ATOM      1  C   UNL     1       3.121   5.598  17.845  0.00  0.00    +0.000 C 
ENDROOT
BRANCH   1   2
ATOM      2  C   UNL     1       2.508   6.850  18.535  0.00  0.00    +0.000 A 
ATOM      3  C   UNL     1       2.083   8.000  17.885  0.00  0.00    +0.000 A 
ATOM      4  S   UNL     1       1.411   9.167  18.943  0.00  0.00    +0.000 S 
ATOM      5  C   UNL     1       1.679   8.167  20.276  0.00  0.00    +0.000 A 
ATOM      6 CL   UNL     1       1.225   8.692  21.844  0.00  0.00    +0.000 Cl
ATOM      7  C   UNL     1       2.265   6.969  19.946  0.00  0.00    +0.000 A 
ENDBRANCH   1   2
BRANCH   1   8
ATOM      8  C   UNL     1       2.146   4.354  17.949  0.00  0.00    +0.000 C 
ATOM      9  C   UNL     1       2.718   3.059  17.310  0.00  0.00    +0.000 C 
ATOM     10  C   UNL     1       3.870   2.432  18.094  0.00  0.00    +0.000 C 
ATOM     11  C   UNL     1       3.548   2.207  19.569  0.00  0.00    +0.000 C 
ATOM     12  C   UNL     1       2.853   3.389  20.227  0.00  0.00    +0.000 C 
ATOM     13  C   UNL     1       1.726   3.976  19.384  0.00  0.00    +0.000 C 
BRANCH   8  14
ATOM     14  O   UNL     1       0.922   4.667  17.255  0.00  0.00    +0.000 OA
ATOM     15  H   UNL     1       0.430   5.305  17.800  0.00  0.00    +0.000 HD
ENDBRANCH   8  14
ENDBRANCH   1   8
BRANCH   1  16
ATOM     16  C   UNL     1       4.567   5.399  18.429  0.00  0.00    +0.000 C 
BRANCH  16  21
ATOM     17  C   UNL     1       6.706   4.281  14.160  0.00  0.00    +0.000 C 
ATOM     18  N   UNL     1       6.692   5.221  15.275  0.00  0.00    +0.000 NA
ATOM     19  C   UNL     1       6.990   4.520  16.527  0.00  0.00    +0.000 C 
ATOM     20  C   UNL     1       6.954   5.474  17.730  0.00  0.00    +0.000 C 
ATOM     21  N   UNL     1       5.693   6.211  17.933  0.00  0.00    +0.000 NA
ATOM     22  C   UNL     1       5.339   6.857  16.638  0.00  0.00    +0.000 C 
ATOM     23  C   UNL     1       5.404   5.929  15.391  0.00  0.00    +0.000 C 
ENDBRANCH  16  21
ENDBRANCH   1  16
TORSDOF 5
ENDMDL
MODEL 8
REMARK VINA RESULT:      -6.9      1.323      1.733
REMARK  Name = 
REMARK  6 active torsions:
REMARK  status: ('A' for Active; 'I' for Inactive)
REMARK    1  A    between atoms: C_1  and  N_2
REMARK    2  A    between atoms: N_5  and  C_6
REMARK    3  A    between atoms: C_6  and  C_7
REMARK    4  A    between atoms: C_7  and  C_8
REMARK    5  A    between atoms: C_7  and  C_14
REMARK    6  A    between atoms: C_14  and  O_15
REMARK                            x       y       z     vdW  Elec       q    Type
REMARK                         _______ _______ _______ _____ _____    ______ ____
ROOT
ATOM      1  C   UNL     1       3.164   5.119  17.742  0.00  0.00    +0.000 C 
ENDROOT
BRANCH   1   2
ATOM      2  C   UNL     1       2.668   6.459  18.356  0.00  0.00    +0.000 A 
ATOM      3  C   UNL     1       2.444   7.633  17.651  0.00  0.00    +0.000 A 
ATOM      4  S   UNL     1       1.850   8.908  18.628  0.00  0.00    +0.000 S 
ATOM      5  C   UNL     1       1.887   7.923  19.998  0.00  0.00    +0.000 A 
ATOM      6 CL   UNL     1       1.388   8.550  21.515  0.00  0.00    +0.000 Cl
ATOM      7  C   UNL     1       2.337   6.651  19.741  0.00  0.00    +0.000 A 
ENDBRANCH   1   2
BRANCH   1   8
ATOM      8  C   UNL     1       2.100   3.965  17.954  0.00  0.00    +0.000 C 
ATOM      9  C   UNL     1       2.564   2.583  17.416  0.00  0.00    +0.000 C 
ATOM     10  C   UNL     1       3.676   1.934  18.239  0.00  0.00    +0.000 C 
ATOM     11  C   UNL     1       3.358   1.853  19.730  0.00  0.00    +0.000 C 
ATOM     12  C   UNL     1       2.763   3.133  20.296  0.00  0.00    +0.000 C 
ATOM     13  C   UNL     1       1.672   3.736  19.417  0.00  0.00    +0.000 C 
BRANCH   8  14
ATOM     14  O   UNL     1       0.893   4.314  17.246  0.00  0.00    +0.000 OA
ATOM     15  H   UNL     1       0.173   3.766  17.605  0.00  0.00    +0.000 HD
ENDBRANCH   8  14
ENDBRANCH   1   8
BRANCH   1  16
ATOM     16  C   UNL     1       4.606   4.847  18.308  0.00  0.00    +0.000 C 
BRANCH  16  21
ATOM     17  C   UNL     1       7.829   8.488  17.672  0.00  0.00    +0.000 C 
ATOM     18  N   UNL     1       7.501   7.112  17.315  0.00  0.00    +0.000 NA
ATOM     19  C   UNL     1       6.202   7.065  16.638  0.00  0.00    +0.000 C 
ATOM     20  C   UNL     1       5.808   5.626  16.274  0.00  0.00    +0.000 C 
ATOM     21  N   UNL     1       5.748   4.669  17.393  0.00  0.00    +0.000 NA
ATOM     22  C   UNL     1       7.034   4.773  18.139  0.00  0.00    +0.000 C 
ATOM     23  C   UNL     1       7.485   6.221  18.490  0.00  0.00    +0.000 C 
ENDBRANCH  16  21
ENDBRANCH   1  16
TORSDOF 5
ENDMDL
MODEL 9
REMARK VINA RESULT:      -6.9      3.213      5.542
REMARK  Name = 
REMARK  6 active torsions:
REMARK  status: ('A' for Active; 'I' for Inactive)
REMARK    1  A    between atoms: C_1  and  N_2
REMARK    2  A    between atoms: N_5  and  C_6
REMARK    3  A    between atoms: C_6  and  C_7
REMARK    4  A    between atoms: C_7  and  C_8
REMARK    5  A    between atoms: C_7  and  C_14
REMARK    6  A    between atoms: C_14  and  O_15
REMARK                            x       y       z     vdW  Elec       q    Type
REMARK                         _______ _______ _______ _____ _____    ______ ____
ROOT
ATOM      1  C   UNL     1       2.708   5.557  17.852  0.00  0.00    +0.000 C 
ENDROOT
BRANCH   1   2
ATOM      2  C   UNL     1       2.108   4.332  18.600  0.00  0.00    +0.000 A 
ATOM      3  C   UNL     1       1.624   3.179  17.997  0.00  0.00    +0.000 A 
ATOM      4  S   UNL     1       1.081   2.005  19.119  0.00  0.00    +0.000 S 
ATOM      5  C   UNL     1       1.473   3.010  20.416  0.00  0.00    +0.000 A 
ATOM      6 CL   UNL     1       1.194   2.480  22.024  0.00  0.00    +0.000 Cl
ATOM      7  C   UNL     1       2.007   4.215  20.028  0.00  0.00    +0.000 A 
ENDBRANCH   1   2
BRANCH   1   8
ATOM      8  C   UNL     1       4.263   5.686  18.124  0.00  0.00    +0.000 C 
ATOM      9  C   UNL     1       5.052   4.373  17.862  0.00  0.00    +0.000 C 
ATOM     10  C   UNL     1       5.174   4.001  16.385  0.00  0.00    +0.000 C 
ATOM     11  C   UNL     1       5.713   5.136  15.517  0.00  0.00    +0.000 C 
ATOM     12  C   UNL     1       5.081   6.486  15.820  0.00  0.00    +0.000 C 
ATOM     13  C   UNL     1       4.976   6.785  17.312  0.00  0.00    +0.000 C 
BRANCH   8  14
ATOM     14  O   UNL     1       4.464   6.034  19.509  0.00  0.00    +0.000 OA
ATOM     15  H   UNL     1       4.744   6.965  19.540  0.00  0.00    +0.000 HD
ENDBRANCH   8  14
ENDBRANCH   1   8
BRANCH   1  16
ATOM     16  C   UNL     1       1.832   6.810  18.222  0.00  0.00    +0.000 C 
BRANCH  16  21
ATOM     17  C   UNL     1      -0.956  10.642  19.480  0.00  0.00    +0.000 C 
ATOM     18  N   UNL     1       0.396  10.096  19.500  0.00  0.00    +0.000 NA
ATOM     19  C   UNL     1       0.864   9.861  18.131  0.00  0.00    +0.000 C 
ATOM     20  C   UNL     1       2.275   9.255  18.114  0.00  0.00    +0.000 C 
ATOM     21  N   UNL     1       2.446   7.992  18.853  0.00  0.00    +0.000 NA
ATOM     22  C   UNL     1       1.893   8.197  20.222  0.00  0.00    +0.000 C 
ATOM     23  C   UNL     1       0.480   8.847  20.279  0.00  0.00    +0.000 C 
ENDBRANCH  16  21
ENDBRANCH   1  16
TORSDOF 5
ENDMDL
