MODEL 1
REMARK VINA RESULT:      -6.2      0.000      0.000
REMARK  Name = 
REMARK  6 active torsions:
REMARK  status: ('A' for Active; 'I' for Inactive)
REMARK    1  A    between atoms: C_1  and  C_2
REMARK    2  A    between atoms: C_2  and  C_3
REMARK    3  A    between atoms: C_3  and  C_4
REMARK    4  A    between atoms: C_8  and  O_9
REMARK    5  A    between atoms: O_9  and  C_10
REMARK    6  A    between atoms: C_10  and  C_11
REMARK                            x       y       z     vdW  Elec       q    Type
REMARK                         _______ _______ _______ _____ _____    ______ ____
ROOT
ATOM      1  C   UNL     1       6.328   4.260  13.709  0.00  0.00    +0.000 A 
ATOM      2  C   UNL     1       7.416   4.958  14.227  0.00  0.00    +0.000 A 
ATOM      3  N   UNL     1       7.480   5.442  15.486  0.00  0.00    +0.000 NA
ATOM      4  C   UNL     1       6.392   5.232  16.261  0.00  0.00    +0.000 A 
ATOM      5  C   UNL     1       5.245   4.568  15.850  0.00  0.00    +0.000 A 
ATOM      6  C   UNL     1       5.220   4.074  14.548  0.00  0.00    +0.000 A 
ENDROOT
BRANCH   1   7
ATOM      7  C   UNL     1       6.324   3.756  12.290  0.00  0.00    +0.000 C 
BRANCH   7   9
ATOM      8  C   UNL     1       4.161   3.169  11.134  0.00  0.00    +0.000 C 
ATOM      9  C   UNL     1       5.272   2.671  12.045  0.00  0.00    +0.000 C 
ENDBRANCH   7   9
ENDBRANCH   1   7
BRANCH   5  10
ATOM     10  O   UNL     1       4.243   4.479  16.771  0.00  0.00    +0.000 OA
BRANCH  10  11
ATOM     11  C   UNL     1       4.126   3.252  17.497  0.00  0.00    +0.000 C 
BRANCH  11  12
ATOM     12  C   UNL     1       2.654   2.854  17.473  0.00  0.00    +0.000 C 
ATOM     13  C   UNL     1       1.694   3.728  18.313  0.00  0.00    +0.000 C 
ATOM     14  C   UNL     1       1.018   2.393  18.660  0.00  0.00    +0.000 C 
ATOM     15  N   UNL     1       2.321   1.730  18.399  0.00  0.00    +0.000 NA
ATOM     16  H   UNL     1       2.246   0.815  17.957  0.00  0.00    +0.000 HD
ENDBRANCH  11  12
ENDBRANCH  10  11
ENDBRANCH   5  10
TORSDOF 5
ENDMDL
MODEL 2
REMARK VINA RESULT:      -6.2      1.927      2.864
REMARK  Name = 
REMARK  6 active torsions:
REMARK  status: ('A' for Active; 'I' for Inactive)
REMARK    1  A    between atoms: C_1  and  C_2
REMARK    2  A    between atoms: C_2  and  C_3
REMARK    3  A    between atoms: C_3  and  C_4
REMARK    4  A    between atoms: C_8  and  O_9
REMARK    5  A    between atoms: O_9  and  C_10
REMARK    6  A    between atoms: C_10  and  C_11
REMARK                            x       y       z     vdW  Elec       q    Type
REMARK                         _______ _______ _______ _____ _____    ______ ____
ROOT
ATOM      1  C   UNL     1       5.920   4.367  16.803  0.00  0.00    +0.000 A 
ATOM      2  C   UNL     1       6.677   4.648  17.937  0.00  0.00    +0.000 A 
ATOM      3  N   UNL     1       6.154   4.956  19.143  0.00  0.00    +0.000 NA
ATOM      4  C   UNL     1       4.805   5.002  19.215  0.00  0.00    +0.000 A 
ATOM      5  C   UNL     1       3.948   4.759  18.149  0.00  0.00    +0.000 A 
ATOM      6  C   UNL     1       4.524   4.435  16.923  0.00  0.00    +0.000 A 
ENDROOT
BRANCH   1   7
ATOM      7  C   UNL     1       6.572   4.039  15.486  0.00  0.00    +0.000 C 
BRANCH   7   9
ATOM      8  C   UNL     1       6.207   3.709  13.012  0.00  0.00    +0.000 C 
ATOM      9  C   UNL     1       5.684   4.363  14.281  0.00  0.00    +0.000 C 
ENDBRANCH   7   9
ENDBRANCH   1   7
BRANCH   5  10
ATOM     10  O   UNL     1       2.616   4.879  18.414  0.00  0.00    +0.000 OA
BRANCH  10  11
ATOM     11  C   UNL     1       1.763   3.817  17.979  0.00  0.00    +0.000 C 
BRANCH  11  12
ATOM     12  C   UNL     1       1.126   3.212  19.226  0.00  0.00    +0.000 C 
ATOM     13  C   UNL     1       1.046   4.130  20.468  0.00  0.00    +0.000 C 
ATOM     14  C   UNL     1       1.400   2.856  21.250  0.00  0.00    +0.000 C 
ATOM     15  N   UNL     1       2.055   2.349  20.016  0.00  0.00    +0.000 NA
ATOM     16  H   UNL     1       1.946   1.347  19.865  0.00  0.00    +0.000 HD
ENDBRANCH  11  12
ENDBRANCH  10  11
ENDBRANCH   5  10
TORSDOF 5
ENDMDL
MODEL 3
REMARK VINA RESULT:      -6.1      1.387      1.461
REMARK  Name = 
REMARK  6 active torsions:
REMARK  status: ('A' for Active; 'I' for Inactive)
REMARK    1  A    between atoms: C_1  and  C_2
REMARK    2  A    between atoms: C_2  and  C_3
REMARK    3  A    between atoms: C_3  and  C_4
REMARK    4  A    between atoms: C_8  and  O_9
REMARK    5  A    between atoms: O_9  and  C_10
REMARK    6  A    between atoms: C_10  and  C_11
REMARK                            x       y       z     vdW  Elec       q    Type
REMARK                         _______ _______ _______ _____ _____    ______ ____
ROOT
ATOM      1  C   UNL     1       6.456   4.140  13.477  0.00  0.00    +0.000 A 
ATOM      2  C   UNL     1       7.487   4.976  13.897  0.00  0.00    +0.000 A 
ATOM      3  N   UNL     1       7.557   5.540  15.122  0.00  0.00    +0.000 NA
ATOM      4  C   UNL     1       6.535   5.268  15.964  0.00  0.00    +0.000 A 
ATOM      5  C   UNL     1       5.447   4.465  15.652  0.00  0.00    +0.000 A 
ATOM      6  C   UNL     1       5.414   3.892  14.383  0.00  0.00    +0.000 A 
ENDROOT
BRANCH   1   7
ATOM      7  C   UNL     1       6.439   3.551  12.091  0.00  0.00    +0.000 C 
BRANCH   7   9
ATOM      8  C   UNL     1       4.134   3.230  11.118  0.00  0.00    +0.000 C 
ATOM      9  C   UNL     1       5.281   2.574  11.871  0.00  0.00    +0.000 C 
ENDBRANCH   7   9
ENDBRANCH   1   7
BRANCH   5  10
ATOM     10  O   UNL     1       4.504   4.330  16.627  0.00  0.00    +0.000 OA
BRANCH  10  11
ATOM     11  C   UNL     1       4.960   4.307  17.982  0.00  0.00    +0.000 C 
BRANCH  11  12
ATOM     12  C   UNL     1       4.158   3.232  18.709  0.00  0.00    +0.000 C 
ATOM     13  C   UNL     1       3.266   3.715  19.876  0.00  0.00    +0.000 C 
ATOM     14  C   UNL     1       3.729   2.425  20.569  0.00  0.00    +0.000 C 
ATOM     15  N   UNL     1       4.950   2.476  19.725  0.00  0.00    +0.000 NA
ATOM     16  H   UNL     1       5.287   1.564  19.418  0.00  0.00    +0.000 HD
ENDBRANCH  11  12
ENDBRANCH  10  11
ENDBRANCH   5  10
TORSDOF 5
ENDMDL
MODEL 4
REMARK VINA RESULT:      -6.0      2.192      2.898
REMARK  Name = 
REMARK  6 active torsions:
REMARK  status: ('A' for Active; 'I' for Inactive)
REMARK    1  A    between atoms: C_1  and  C_2
REMARK    2  A    between atoms: C_2  and  C_3
REMARK    3  A    between atoms: C_3  and  C_4
REMARK    4  A    between atoms: C_8  and  O_9
REMARK    5  A    between atoms: O_9  and  C_10
REMARK    6  A    between atoms: C_10  and  C_11
REMARK                            x       y       z     vdW  Elec       q    Type
REMARK                         _______ _______ _______ _____ _____    ______ ____
ROOT
ATOM      1  C   UNL     1       5.768   4.970  16.432  0.00  0.00    +0.000 A 
ATOM      2  C   UNL     1       6.986   4.649  17.025  0.00  0.00    +0.000 A 
ATOM      3  N   UNL     1       7.201   4.629  18.358  0.00  0.00    +0.000 NA
ATOM      4  C   UNL     1       6.148   4.963  19.137  0.00  0.00    +0.000 A 
ATOM      5  C   UNL     1       4.893   5.318  18.660  0.00  0.00    +0.000 A 
ATOM      6  C   UNL     1       4.707   5.318  17.281  0.00  0.00    +0.000 A 
ENDROOT
BRANCH   1   7
ATOM      7  C   UNL     1       5.603   4.980  14.935  0.00  0.00    +0.000 C 
BRANCH   7   9
ATOM      8  C   UNL     1       5.802   3.536  12.877  0.00  0.00    +0.000 C 
ATOM      9  C   UNL     1       6.390   3.864  14.241  0.00  0.00    +0.000 C 
ENDBRANCH   7   9
ENDBRANCH   1   7
BRANCH   5  10
ATOM     10  O   UNL     1       3.966   5.648  19.604  0.00  0.00    +0.000 OA
BRANCH  10  11
ATOM     11  C   UNL     1       2.608   5.285  19.345  0.00  0.00    +0.000 C 
BRANCH  11  12
ATOM     12  C   UNL     1       2.380   3.915  19.974  0.00  0.00    +0.000 C 
ATOM     13  C   UNL     1       0.929   3.381  19.946  0.00  0.00    +0.000 C 
ATOM     14  C   UNL     1       1.246   2.868  21.358  0.00  0.00    +0.000 C 
ATOM     15  N   UNL     1       2.258   3.951  21.463  0.00  0.00    +0.000 NA
ATOM     16  H   UNL     1       3.102   3.688  21.971  0.00  0.00    +0.000 HD
ENDBRANCH  11  12
ENDBRANCH  10  11
ENDBRANCH   5  10
TORSDOF 5
ENDMDL
MODEL 5
REMARK VINA RESULT:      -6.0      1.831      2.289
REMARK  Name = 
REMARK  6 active torsions:
REMARK  status: ('A' for Active; 'I' for Inactive)
REMARK    1  A    between atoms: C_1  and  C_2
REMARK    2  A    between atoms: C_2  and  C_3
REMARK    3  A    between atoms: C_3  and  C_4
REMARK    4  A    between atoms: C_8  and  O_9
REMARK    5  A    between atoms: O_9  and  C_10
REMARK    6  A    between atoms: C_10  and  C_11
REMARK                            x       y       z     vdW  Elec       q    Type
REMARK                         _______ _______ _______ _____ _____    ______ ____
ROOT
ATOM      1  C   UNL     1       5.788   4.447  15.656  0.00  0.00    +0.000 A 
ATOM      2  C   UNL     1       7.139   4.594  15.958  0.00  0.00    +0.000 A 
ATOM      3  N   UNL     1       7.629   4.702  17.212  0.00  0.00    +0.000 NA
ATOM      4  C   UNL     1       6.721   4.679  18.213  0.00  0.00    +0.000 A 
ATOM      5  C   UNL     1       5.350   4.556  18.032  0.00  0.00    +0.000 A 
ATOM      6  C   UNL     1       4.882   4.436  16.727  0.00  0.00    +0.000 A 
ENDROOT
BRANCH   1   7
ATOM      7  C   UNL     1       5.311   4.339  14.231  0.00  0.00    +0.000 C 
BRANCH   7   9
ATOM      8  C   UNL     1       5.827   3.128  12.080  0.00  0.00    +0.000 C 
ATOM      9  C   UNL     1       6.408   3.880  13.267  0.00  0.00    +0.000 C 
ENDBRANCH   7   9
ENDBRANCH   1   7
BRANCH   5  10
ATOM     10  O   UNL     1       4.593   4.579  19.167  0.00  0.00    +0.000 OA
BRANCH  10  11
ATOM     11  C   UNL     1       3.200   4.865  19.020  0.00  0.00    +0.000 C 
BRANCH  11  12
ATOM     12  C   UNL     1       2.434   3.728  19.688  0.00  0.00    +0.000 C 
ATOM     13  C   UNL     1       1.666   4.087  20.982  0.00  0.00    +0.000 C 
ATOM     14  C   UNL     1       2.150   2.714  21.474  0.00  0.00    +0.000 C 
ATOM     15  N   UNL     1       3.291   2.841  20.532  0.00  0.00    +0.000 NA
ATOM     16  H   UNL     1       3.570   1.966  20.091  0.00  0.00    +0.000 HD
ENDBRANCH  11  12
ENDBRANCH  10  11
ENDBRANCH   5  10
TORSDOF 5
ENDMDL
MODEL 6
REMARK VINA RESULT:      -6.0      2.165      2.960
REMARK  Name = 
REMARK  6 active torsions:
REMARK  status: ('A' for Active; 'I' for Inactive)
REMARK    1  A    between atoms: C_1  and  C_2
REMARK    2  A    between atoms: C_2  and  C_3
REMARK    3  A    between atoms: C_3  and  C_4
REMARK    4  A    between atoms: C_8  and  O_9
REMARK    5  A    between atoms: O_9  and  C_10
REMARK    6  A    between atoms: C_10  and  C_11
REMARK                            x       y       z     vdW  Elec       q    Type
REMARK                         _______ _______ _______ _____ _____    ______ ____
ROOT
ATOM      1  C   UNL     1       6.185   4.451  16.627  0.00  0.00    +0.000 A 
ATOM      2  C   UNL     1       7.025   4.631  17.723  0.00  0.00    +0.000 A 
ATOM      3  N   UNL     1       6.596   4.927  18.969  0.00  0.00    +0.000 NA
ATOM      4  C   UNL     1       5.260   5.066  19.123  0.00  0.00    +0.000 A 
ATOM      5  C   UNL     1       4.328   4.927  18.103  0.00  0.00    +0.000 A 
ATOM      6  C   UNL     1       4.807   4.612  16.834  0.00  0.00    +0.000 A 
ENDROOT
BRANCH   1   7
ATOM      7  C   UNL     1       6.735   4.129  15.262  0.00  0.00    +0.000 C 
BRANCH   7   9
ATOM      8  C   UNL     1       6.205   3.672  12.839  0.00  0.00    +0.000 C 
ATOM      9  C   UNL     1       5.680   4.222  14.156  0.00  0.00    +0.000 C 
ENDBRANCH   7   9
ENDBRANCH   1   7
BRANCH   5  10
ATOM     10  O   UNL     1       3.026   5.131  18.452  0.00  0.00    +0.000 OA
BRANCH  10  11
ATOM     11  C   UNL     1       2.771   5.684  19.746  0.00  0.00    +0.000 C 
BRANCH  11  12
ATOM     12  C   UNL     1       1.699   4.821  20.402  0.00  0.00    +0.000 C 
ATOM     13  C   UNL     1       2.182   3.846  21.501  0.00  0.00    +0.000 C 
ATOM     14  C   UNL     1       1.168   2.875  20.879  0.00  0.00    +0.000 C 
ATOM     15  N   UNL     1       1.326   3.615  19.601  0.00  0.00    +0.000 NA
ATOM     16  H   UNL     1       0.468   3.706  19.060  0.00  0.00    +0.000 HD
ENDBRANCH  11  12
ENDBRANCH  10  11
ENDBRANCH   5  10
TORSDOF 5
ENDMDL
MODEL 7
REMARK VINA RESULT:      -5.9      2.958      4.437
REMARK  Name = 
REMARK  6 active torsions:
REMARK  status: ('A' for Active; 'I' for Inactive)
REMARK    1  A    between atoms: C_1  and  C_2
REMARK    2  A    between atoms: C_2  and  C_3
REMARK    3  A    between atoms: C_3  and  C_4
REMARK    4  A    between atoms: C_8  and  O_9
REMARK    5  A    between atoms: O_9  and  C_10
REMARK    6  A    between atoms: C_10  and  C_11
REMARK                            x       y       z     vdW  Elec       q    Type
REMARK                         _______ _______ _______ _____ _____    ______ ____
ROOT
ATOM      1  C   UNL     1       6.152   5.561  17.749  0.00  0.00    +0.000 A 
ATOM      2  C   UNL     1       6.298   4.546  16.807  0.00  0.00    +0.000 A 
ATOM      3  N   UNL     1       5.290   3.758  16.377  0.00  0.00    +0.000 NA
ATOM      4  C   UNL     1       4.077   3.985  16.929  0.00  0.00    +0.000 A 
ATOM      5  C   UNL     1       3.815   4.954  17.888  0.00  0.00    +0.000 A 
ATOM      6  C   UNL     1       4.877   5.755  18.300  0.00  0.00    +0.000 A 
ENDROOT
BRANCH   1   7
ATOM      7  C   UNL     1       7.325   6.397  18.188  0.00  0.00    +0.000 C 
BRANCH   7   9
ATOM      8  C   UNL     1       8.227   8.750  18.073  0.00  0.00    +0.000 C 
ATOM      9  C   UNL     1       7.545   7.628  17.304  0.00  0.00    +0.000 C 
ENDBRANCH   7   9
ENDBRANCH   1   7
BRANCH   5  10
ATOM     10  O   UNL     1       2.531   5.013  18.344  0.00  0.00    +0.000 OA
BRANCH  10  11
ATOM     11  C   UNL     1       1.655   3.943  17.978  0.00  0.00    +0.000 C 
BRANCH  11  12
ATOM     12  C   UNL     1       1.045   3.400  19.267  0.00  0.00    +0.000 C 
ATOM     13  C   UNL     1       1.255   4.256  20.537  0.00  0.00    +0.000 C 
ATOM     14  C   UNL     1       1.449   2.904  21.238  0.00  0.00    +0.000 C 
ATOM     15  N   UNL     1       1.876   2.350  19.928  0.00  0.00    +0.000 NA
ATOM     16  H   UNL     1       1.574   1.391  19.759  0.00  0.00    +0.000 HD
ENDBRANCH  11  12
ENDBRANCH  10  11
ENDBRANCH   5  10
TORSDOF 5
ENDMDL
MODEL 8
REMARK VINA RESULT:      -5.9      3.164      4.961
REMARK  Name = 
REMARK  6 active torsions:
REMARK  status: ('A' for Active; 'I' for Inactive)
REMARK    1  A    between atoms: C_1  and  C_2
REMARK    2  A    between atoms: C_2  and  C_3
REMARK    3  A    between atoms: C_3  and  C_4
REMARK    4  A    between atoms: C_8  and  O_9
REMARK    5  A    between atoms: O_9  and  C_10
REMARK    6  A    between atoms: C_10  and  C_11
REMARK                            x       y       z     vdW  Elec       q    Type
REMARK                         _______ _______ _______ _____ _____    ______ ____
ROOT
ATOM      1  C   UNL     1       7.257   7.152  17.786  0.00  0.00    +0.000 A 
ATOM      2  C   UNL     1       7.812   6.279  18.717  0.00  0.00    +0.000 A 
ATOM      3  N   UNL     1       7.291   5.074  19.034  0.00  0.00    +0.000 NA
ATOM      4  C   UNL     1       6.145   4.734  18.401  0.00  0.00    +0.000 A 
ATOM      5  C   UNL     1       5.491   5.529  17.470  0.00  0.00    +0.000 A 
ATOM      6  C   UNL     1       6.064   6.759  17.160  0.00  0.00    +0.000 A 
ENDROOT
BRANCH   1   7
ATOM      7  C   UNL     1       7.890   8.486  17.487  0.00  0.00    +0.000 C 
BRANCH   7   9
ATOM      8  C   UNL     1       9.113  10.486  18.417  0.00  0.00    +0.000 C 
ATOM      9  C   UNL     1       8.680   9.050  18.671  0.00  0.00    +0.000 C 
ENDBRANCH   7   9
ENDBRANCH   1   7
BRANCH   5  10
ATOM     10  O   UNL     1       4.333   5.022  16.959  0.00  0.00    +0.000 OA
BRANCH  10  11
ATOM     11  C   UNL     1       4.156   3.604  17.016  0.00  0.00    +0.000 C 
BRANCH  11  12
ATOM     12  C   UNL     1       2.732   3.346  17.496  0.00  0.00    +0.000 C 
ATOM     13  C   UNL     1       1.879   4.597  17.813  0.00  0.00    +0.000 C 
ATOM     14  C   UNL     1       1.362   3.764  18.995  0.00  0.00    +0.000 C 
ATOM     15  N   UNL     1       2.641   3.008  18.949  0.00  0.00    +0.000 NA
ATOM     16  H   UNL     1       2.548   2.014  19.155  0.00  0.00    +0.000 HD
ENDBRANCH  11  12
ENDBRANCH  10  11
ENDBRANCH   5  10
TORSDOF 5
ENDMDL
MODEL 9
REMARK VINA RESULT:      -5.9      2.712      4.428
REMARK  Name = 
REMARK  6 active torsions:
REMARK  status: ('A' for Active; 'I' for Inactive)
REMARK    1  A    between atoms: C_1  and  C_2
REMARK    2  A    between atoms: C_2  and  C_3
REMARK    3  A    between atoms: C_3  and  C_4
REMARK    4  A    between atoms: C_8  and  O_9
REMARK    5  A    between atoms: O_9  and  C_10
REMARK    6  A    between atoms: C_10  and  C_11
REMARK                            x       y       z     vdW  Elec       q    Type
REMARK                         _______ _______ _______ _____ _____    ______ ____
ROOT
ATOM      1  C   UNL     1       6.855   6.037  17.529  0.00  0.00    +0.000 A 
ATOM      2  C   UNL     1       7.222   4.932  16.766  0.00  0.00    +0.000 A 
ATOM      3  N   UNL     1       6.348   4.045  16.243  0.00  0.00    +0.000 NA
ATOM      4  C   UNL     1       5.041   4.266  16.511  0.00  0.00    +0.000 A 
ATOM      5  C   UNL     1       4.559   5.321  17.273  0.00  0.00    +0.000 A 
ATOM      6  C   UNL     1       5.488   6.221  17.787  0.00  0.00    +0.000 A 
ENDROOT
BRANCH   1   7
ATOM      7  C   UNL     1       7.887   6.982  18.087  0.00  0.00    +0.000 C 
BRANCH   7   9
ATOM      8  C   UNL     1       8.584   9.390  18.357  0.00  0.00    +0.000 C 
ATOM      9  C   UNL     1       7.733   8.412  17.562  0.00  0.00    +0.000 C 
ENDBRANCH   7   9
ENDBRANCH   1   7
BRANCH   5  10
ATOM     10  O   UNL     1       3.207   5.359  17.453  0.00  0.00    +0.000 OA
BRANCH  10  11
ATOM     11  C   UNL     1       2.711   5.068  18.763  0.00  0.00    +0.000 C 
BRANCH  11  12
ATOM     12  C   UNL     1       1.485   4.177  18.592  0.00  0.00    +0.000 C 
ATOM     13  C   UNL     1       1.091   3.313  19.812  0.00  0.00    +0.000 C 
ATOM     14  C   UNL     1       0.782   2.235  18.763  0.00  0.00    +0.000 C 
ATOM     15  N   UNL     1       1.768   2.899  17.873  0.00  0.00    +0.000 NA
ATOM     16  H   UNL     1       1.512   2.893  16.886  0.00  0.00    +0.000 HD
ENDBRANCH  11  12
ENDBRANCH  10  11
ENDBRANCH   5  10
TORSDOF 5
ENDMDL
