MODEL 1
REMARK VINA RESULT:      -6.8      0.000      0.000
REMARK  Name = 
REMARK  10 active torsions:
REMARK  status: ('A' for Active; 'I' for Inactive)
REMARK    1  A    between atoms: C_1  and  O_2
REMARK    2  A    between atoms: O_2  and  C_3
REMARK    3  A    between atoms: C_3  and  C_5
REMARK    4  A    between atoms: C_8  and  O_9
REMARK    5  A    between atoms: O_9  and  C_10
REMARK    6  A    between atoms: C_12  and  C_13
REMARK    7  A    between atoms: C_13  and  O_14
REMARK    8  A    between atoms: C_15  and  O_16
REMARK    9  A    between atoms: C_17  and  O_18
REMARK   10  A    between atoms: C_19  and  O_20
REMARK                            x       y       z     vdW  Elec       q    Type
REMARK                         _______ _______ _______ _____ _____    ______ ____
ROOT
ATOM      1  C   UNL     1       4.608   4.520  18.720  0.00  0.00    +0.000 C 
ATOM      2  O   UNL     1       4.062   5.785  19.094  0.00  0.00    +0.000 OA
ATOM      3  C   UNL     1       2.655   5.739  19.355  0.00  0.00    +0.000 C 
ATOM      4  C   UNL     1       2.372   4.801  20.540  0.00  0.00    +0.000 C 
ATOM      5  C   UNL     1       3.010   3.423  20.273  0.00  0.00    +0.000 C 
ATOM      6  C   UNL     1       4.489   3.527  19.888  0.00  0.00    +0.000 C 
ENDROOT
BRANCH   4   7
ATOM      7  O   UNL     1       0.964   4.664  20.746  0.00  0.00    +0.000 OA
ATOM      8  H   UNL     1       0.767   4.752  21.696  0.00  0.00    +0.000 HD
ENDBRANCH   4   7
BRANCH   5   9
ATOM      9  O   UNL     1       2.866   2.533  21.389  0.00  0.00    +0.000 OA
ATOM     10  H   UNL     1       3.416   2.866  22.122  0.00  0.00    +0.000 HD
ENDBRANCH   5   9
BRANCH   6  11
ATOM     11  O   UNL     1       4.963   2.230  19.479  0.00  0.00    +0.000 OA
ATOM     12  H   UNL     1       4.788   1.612  20.214  0.00  0.00    +0.000 HD
ENDBRANCH   6  11
BRANCH   1  13
ATOM     13  O   UNL     1       5.969   4.694  18.310  0.00  0.00    +0.000 OA
BRANCH  13  17
ATOM     14  C   UNL     1       6.376   4.144  14.179  0.00  0.00    +0.000 A 
ATOM     15  C   UNL     1       5.264   3.662  14.885  0.00  0.00    +0.000 A 
ATOM     16  C   UNL     1       5.159   3.861  16.267  0.00  0.00    +0.000 A 
ATOM     17  C   UNL     1       6.167   4.532  16.961  0.00  0.00    +0.000 A 
ATOM     18  C   UNL     1       7.278   5.010  16.252  0.00  0.00    +0.000 A 
ATOM     19  C   UNL     1       7.387   4.813  14.872  0.00  0.00    +0.000 A 
BRANCH  14  20
ATOM     20  C   UNL     1       6.407   3.954  12.706  0.00  0.00    +0.000 C 
ATOM     21  O   UNL     1       7.334   4.310  11.998  0.00  0.00    +0.000 OA
BRANCH  20  23
ATOM     22  C   UNL     1       5.562   2.166  11.461  0.00  0.00    +0.000 C 
ATOM     23  O   UNL     1       5.289   3.307  12.277  0.00  0.00    +0.000 OA
ENDBRANCH  20  23
ENDBRANCH  14  20
ENDBRANCH  13  17
ENDBRANCH   1  13
BRANCH   3  24
ATOM     24  C   UNL     1       2.233   7.184  19.623  0.00  0.00    +0.000 C 
BRANCH  24  25
ATOM     25  O   UNL     1       1.970   7.375  21.011  0.00  0.00    +0.000 OA
ATOM     26  H   UNL     1       2.669   6.889  21.483  0.00  0.00    +0.000 HD
ENDBRANCH  24  25
ENDBRANCH   3  24
TORSDOF 9
ENDMDL
MODEL 2
REMARK VINA RESULT:      -6.7      3.661      7.701
REMARK  Name = 
REMARK  10 active torsions:
REMARK  status: ('A' for Active; 'I' for Inactive)
REMARK    1  A    between atoms: C_1  and  O_2
REMARK    2  A    between atoms: O_2  and  C_3
REMARK    3  A    between atoms: C_3  and  C_5
REMARK    4  A    between atoms: C_8  and  O_9
REMARK    5  A    between atoms: O_9  and  C_10
REMARK    6  A    between atoms: C_12  and  C_13
REMARK    7  A    between atoms: C_13  and  O_14
REMARK    8  A    between atoms: C_15  and  O_16
REMARK    9  A    between atoms: C_17  and  O_18
REMARK   10  A    between atoms: C_19  and  O_20
REMARK                            x       y       z     vdW  Elec       q    Type
REMARK                         _______ _______ _______ _____ _____    ______ ____
ROOT
ATOM      1  C   UNL     1       3.130   5.848  18.264  0.00  0.00    +0.000 C 
ATOM      2  O   UNL     1       4.553   5.907  18.346  0.00  0.00    +0.000 OA
ATOM      3  C   UNL     1       5.113   4.895  19.191  0.00  0.00    +0.000 C 
ATOM      4  C   UNL     1       4.790   3.503  18.627  0.00  0.00    +0.000 C 
ATOM      5  C   UNL     1       3.269   3.372  18.409  0.00  0.00    +0.000 C 
ATOM      6  C   UNL     1       2.693   4.534  17.594  0.00  0.00    +0.000 C 
ENDROOT
BRANCH   4   7
ATOM      7  O   UNL     1       5.253   2.482  19.515  0.00  0.00    +0.000 OA
ATOM      8  H   UNL     1       4.506   2.148  20.041  0.00  0.00    +0.000 HD
ENDBRANCH   4   7
BRANCH   5   9
ATOM      9  O   UNL     1       2.914   2.128  17.789  0.00  0.00    +0.000 OA
ATOM     10  H   UNL     1       3.733   1.672  17.520  0.00  0.00    +0.000 HD
ENDBRANCH   5   9
BRANCH   6  11
ATOM     11  O   UNL     1       1.256   4.441  17.589  0.00  0.00    +0.000 OA
ATOM     12  H   UNL     1       1.012   3.766  16.926  0.00  0.00    +0.000 HD
ENDBRANCH   6  11
BRANCH   1  13
ATOM     13  O   UNL     1       2.649   6.991  17.548  0.00  0.00    +0.000 OA
BRANCH  13  17
ATOM     14  C   UNL     1       0.955   9.795  20.157  0.00  0.00    +0.000 A 
ATOM     15  C   UNL     1       1.407   8.544  20.604  0.00  0.00    +0.000 A 
ATOM     16  C   UNL     1       1.967   7.629  19.705  0.00  0.00    +0.000 A 
ATOM     17  C   UNL     1       2.071   7.945  18.350  0.00  0.00    +0.000 A 
ATOM     18  C   UNL     1       1.617   9.195  17.907  0.00  0.00    +0.000 A 
ATOM     19  C   UNL     1       1.056  10.112  18.801  0.00  0.00    +0.000 A 
BRANCH  14  20
ATOM     20  C   UNL     1       0.422  10.748  21.164  0.00  0.00    +0.000 C 
ATOM     21  O   UNL     1       0.958  11.810  21.438  0.00  0.00    +0.000 OA
BRANCH  20  23
ATOM     22  C   UNL     1      -0.712  10.165  23.122  0.00  0.00    +0.000 C 
ATOM     23  O   UNL     1      -0.742  10.289  21.698  0.00  0.00    +0.000 OA
ENDBRANCH  20  23
ENDBRANCH  14  20
ENDBRANCH  13  17
ENDBRANCH   1  13
BRANCH   3  24
ATOM     24  C   UNL     1       6.614   5.184  19.248  0.00  0.00    +0.000 C 
BRANCH  24  25
ATOM     25  O   UNL     1       7.324   4.283  18.402  0.00  0.00    +0.000 OA
ATOM     26  H   UNL     1       8.171   4.720  18.201  0.00  0.00    +0.000 HD
ENDBRANCH  24  25
ENDBRANCH   3  24
TORSDOF 9
ENDMDL
MODEL 3
REMARK VINA RESULT:      -6.7      3.211      8.111
REMARK  Name = 
REMARK  10 active torsions:
REMARK  status: ('A' for Active; 'I' for Inactive)
REMARK    1  A    between atoms: C_1  and  O_2
REMARK    2  A    between atoms: O_2  and  C_3
REMARK    3  A    between atoms: C_3  and  C_5
REMARK    4  A    between atoms: C_8  and  O_9
REMARK    5  A    between atoms: O_9  and  C_10
REMARK    6  A    between atoms: C_12  and  C_13
REMARK    7  A    between atoms: C_13  and  O_14
REMARK    8  A    between atoms: C_15  and  O_16
REMARK    9  A    between atoms: C_17  and  O_18
REMARK   10  A    between atoms: C_19  and  O_20
REMARK                            x       y       z     vdW  Elec       q    Type
REMARK                         _______ _______ _______ _____ _____    ______ ____
ROOT
ATOM      1  C   UNL     1       3.627   6.493  18.042  0.00  0.00    +0.000 C 
ATOM      2  O   UNL     1       4.855   6.985  17.508  0.00  0.00    +0.000 OA
ATOM      3  C   UNL     1       6.005   6.286  17.998  0.00  0.00    +0.000 C 
ATOM      4  C   UNL     1       5.938   4.808  17.581  0.00  0.00    +0.000 C 
ATOM      5  C   UNL     1       4.592   4.204  18.032  0.00  0.00    +0.000 C 
ATOM      6  C   UNL     1       3.393   5.044  17.581  0.00  0.00    +0.000 C 
ENDROOT
BRANCH   4   7
ATOM      7  O   UNL     1       7.025   4.076  18.150  0.00  0.00    +0.000 OA
ATOM      8  H   UNL     1       6.681   3.281  18.594  0.00  0.00    +0.000 HD
ENDBRANCH   4   7
BRANCH   5   9
ATOM      9  O   UNL     1       4.426   2.852  17.582  0.00  0.00    +0.000 OA
ATOM     10  H   UNL     1       4.046   2.870  16.684  0.00  0.00    +0.000 HD
ENDBRANCH   5   9
BRANCH   6  11
ATOM     11  O   UNL     1       2.196   4.524  18.189  0.00  0.00    +0.000 OA
ATOM     12  H   UNL     1       2.276   3.551  18.200  0.00  0.00    +0.000 HD
ENDBRANCH   6  11
BRANCH   1  13
ATOM     13  O   UNL     1       2.556   7.355  17.639  0.00  0.00    +0.000 OA
BRANCH  13  17
ATOM     14  C   UNL     1       0.885   9.323  20.935  0.00  0.00    +0.000 A 
ATOM     15  C   UNL     1       1.479   8.058  21.051  0.00  0.00    +0.000 A 
ATOM     16  C   UNL     1       2.027   7.426  19.928  0.00  0.00    +0.000 A 
ATOM     17  C   UNL     1       1.978   8.043  18.678  0.00  0.00    +0.000 A 
ATOM     18  C   UNL     1       1.382   9.307  18.566  0.00  0.00    +0.000 A 
ATOM     19  C   UNL     1       0.832   9.942  19.685  0.00  0.00    +0.000 A 
BRANCH  14  20
ATOM     20  C   UNL     1       0.370   9.971  22.170  0.00  0.00    +0.000 C 
ATOM     21  O   UNL     1       0.762   9.693  23.292  0.00  0.00    +0.000 OA
BRANCH  20  23
ATOM     22  C   UNL     1      -1.317  11.359  22.998  0.00  0.00    +0.000 C 
ATOM     23  O   UNL     1      -0.556  10.921  21.869  0.00  0.00    +0.000 OA
ENDBRANCH  20  23
ENDBRANCH  14  20
ENDBRANCH  13  17
ENDBRANCH   1  13
BRANCH   3  24
ATOM     24  C   UNL     1       7.216   7.016  17.416  0.00  0.00    +0.000 C 
BRANCH  24  25
ATOM     25  O   UNL     1       7.650   6.379  16.217  0.00  0.00    +0.000 OA
ATOM     26  H   UNL     1       7.194   6.841  15.491  0.00  0.00    +0.000 HD
ENDBRANCH  24  25
ENDBRANCH   3  24
TORSDOF 9
ENDMDL
MODEL 4
REMARK VINA RESULT:      -6.7      3.667      7.829
REMARK  Name = 
REMARK  10 active torsions:
REMARK  status: ('A' for Active; 'I' for Inactive)
REMARK    1  A    between atoms: C_1  and  O_2
REMARK    2  A    between atoms: O_2  and  C_3
REMARK    3  A    between atoms: C_3  and  C_5
REMARK    4  A    between atoms: C_8  and  O_9
REMARK    5  A    between atoms: O_9  and  C_10
REMARK    6  A    between atoms: C_12  and  C_13
REMARK    7  A    between atoms: C_13  and  O_14
REMARK    8  A    between atoms: C_15  and  O_16
REMARK    9  A    between atoms: C_17  and  O_18
REMARK   10  A    between atoms: C_19  and  O_20
REMARK                            x       y       z     vdW  Elec       q    Type
REMARK                         _______ _______ _______ _____ _____    ______ ____
ROOT
ATOM      1  C   UNL     1       3.188   5.914  18.446  0.00  0.00    +0.000 C 
ATOM      2  O   UNL     1       4.614   5.958  18.475  0.00  0.00    +0.000 OA
ATOM      3  C   UNL     1       5.196   4.922  19.275  0.00  0.00    +0.000 C 
ATOM      4  C   UNL     1       4.837   3.546  18.693  0.00  0.00    +0.000 C 
ATOM      5  C   UNL     1       3.308   3.435  18.530  0.00  0.00    +0.000 C 
ATOM      6  C   UNL     1       2.713   4.620  17.764  0.00  0.00    +0.000 C 
ENDROOT
BRANCH   4   7
ATOM      7  O   UNL     1       5.323   2.501  19.538  0.00  0.00    +0.000 OA
ATOM      8  H   UNL     1       5.957   2.871  20.178  0.00  0.00    +0.000 HD
ENDBRANCH   4   7
BRANCH   5   9
ATOM      9  O   UNL     1       2.916   2.209  17.896  0.00  0.00    +0.000 OA
ATOM     10  H   UNL     1       2.321   1.726  18.498  0.00  0.00    +0.000 HD
ENDBRANCH   5   9
BRANCH   6  11
ATOM     11  O   UNL     1       1.276   4.541  17.812  0.00  0.00    +0.000 OA
ATOM     12  H   UNL     1       0.937   5.455  17.859  0.00  0.00    +0.000 HD
ENDBRANCH   6  11
BRANCH   1  13
ATOM     13  O   UNL     1       2.692   7.079  17.774  0.00  0.00    +0.000 OA
BRANCH  13  17
ATOM     14  C   UNL     1       0.739   9.918  20.153  0.00  0.00    +0.000 A 
ATOM     15  C   UNL     1       0.940  10.114  18.778  0.00  0.00    +0.000 A 
ATOM     16  C   UNL     1       1.598   9.146  18.011  0.00  0.00    +0.000 A 
ATOM     17  C   UNL     1       2.074   7.978  18.608  0.00  0.00    +0.000 A 
ATOM     18  C   UNL     1       1.873   7.786  19.982  0.00  0.00    +0.000 A 
ATOM     19  C   UNL     1       1.216   8.751  20.753  0.00  0.00    +0.000 A 
BRANCH  14  20
ATOM     20  C   UNL     1      -0.016  10.953  20.905  0.00  0.00    +0.000 C 
ATOM     21  O   UNL     1      -0.776  11.750  20.380  0.00  0.00    +0.000 OA
BRANCH  20  23
ATOM     22  C   UNL     1      -0.935  10.616  23.027  0.00  0.00    +0.000 C 
ATOM     23  O   UNL     1       0.233  10.860  22.240  0.00  0.00    +0.000 OA
ENDBRANCH  20  23
ENDBRANCH  14  20
ENDBRANCH  13  17
ENDBRANCH   1  13
BRANCH   3  24
ATOM     24  C   UNL     1       6.700   5.195  19.281  0.00  0.00    +0.000 C 
BRANCH  24  25
ATOM     25  O   UNL     1       7.360   4.357  18.335  0.00  0.00    +0.000 OA
ATOM     26  H   UNL     1       6.822   3.548  18.276  0.00  0.00    +0.000 HD
ENDBRANCH  24  25
ENDBRANCH   3  24
TORSDOF 9
ENDMDL
MODEL 5
REMARK VINA RESULT:      -6.6      1.991      7.625
REMARK  Name = 
REMARK  10 active torsions:
REMARK  status: ('A' for Active; 'I' for Inactive)
REMARK    1  A    between atoms: C_1  and  O_2
REMARK    2  A    between atoms: O_2  and  C_3
REMARK    3  A    between atoms: C_3  and  C_5
REMARK    4  A    between atoms: C_8  and  O_9
REMARK    5  A    between atoms: O_9  and  C_10
REMARK    6  A    between atoms: C_12  and  C_13
REMARK    7  A    between atoms: C_13  and  O_14
REMARK    8  A    between atoms: C_15  and  O_16
REMARK    9  A    between atoms: C_17  and  O_18
REMARK   10  A    between atoms: C_19  and  O_20
REMARK                            x       y       z     vdW  Elec       q    Type
REMARK                         _______ _______ _______ _____ _____    ______ ____
ROOT
ATOM      1  C   UNL     1       4.670   4.948  17.563  0.00  0.00    +0.000 C 
ATOM      2  O   UNL     1       4.520   4.454  16.233  0.00  0.00    +0.000 OA
ATOM      3  C   UNL     1       5.578   4.858  15.357  0.00  0.00    +0.000 C 
ATOM      4  C   UNL     1       6.918   4.294  15.857  0.00  0.00    +0.000 C 
ATOM      5  C   UNL     1       7.130   4.695  17.331  0.00  0.00    +0.000 C 
ATOM      6  C   UNL     1       5.927   4.345  18.212  0.00  0.00    +0.000 C 
ENDROOT
BRANCH   4   7
ATOM      7  O   UNL     1       7.997   4.774  15.052  0.00  0.00    +0.000 OA
ATOM      8  H   UNL     1       8.834   4.665  15.536  0.00  0.00    +0.000 HD
ENDBRANCH   4   7
BRANCH   5   9
ATOM      9  O   UNL     1       8.317   4.112  17.887  0.00  0.00    +0.000 OA
ATOM     10  H   UNL     1       8.178   3.979  18.842  0.00  0.00    +0.000 HD
ENDBRANCH   5   9
BRANCH   6  11
ATOM     11  O   UNL     1       6.121   4.909  19.523  0.00  0.00    +0.000 OA
ATOM     12  H   UNL     1       5.281   4.805  20.009  0.00  0.00    +0.000 HD
ENDBRANCH   6  11
BRANCH   1  13
ATOM     13  O   UNL     1       3.489   4.646  18.316  0.00  0.00    +0.000 OA
BRANCH  13  17
ATOM     14  C   UNL     1       1.615   7.927  20.120  0.00  0.00    +0.000 A 
ATOM     15  C   UNL     1       1.711   6.683  20.762  0.00  0.00    +0.000 A 
ATOM     16  C   UNL     1       2.342   5.606  20.130  0.00  0.00    +0.000 A 
ATOM     17  C   UNL     1       2.874   5.753  18.848  0.00  0.00    +0.000 A 
ATOM     18  C   UNL     1       2.775   6.997  18.210  0.00  0.00    +0.000 A 
ATOM     19  C   UNL     1       2.144   8.076  18.837  0.00  0.00    +0.000 A 
BRANCH  14  20
ATOM     20  C   UNL     1       0.984   9.050  20.860  0.00  0.00    +0.000 C 
ATOM     21  O   UNL     1       0.585  10.072  20.326  0.00  0.00    +0.000 OA
BRANCH  20  23
ATOM     22  C   UNL     1      -0.017   9.613  22.895  0.00  0.00    +0.000 C 
ATOM     23  O   UNL     1       0.890   8.765  22.187  0.00  0.00    +0.000 OA
ENDBRANCH  20  23
ENDBRANCH  14  20
ENDBRANCH  13  17
ENDBRANCH   1  13
BRANCH   3  24
ATOM     24  C   UNL     1       5.193   4.340  13.971  0.00  0.00    +0.000 C 
BRANCH  24  25
ATOM     25  O   UNL     1       6.164   3.408  13.501  0.00  0.00    +0.000 OA
ATOM     26  H   UNL     1       7.017   3.711  13.858  0.00  0.00    +0.000 HD
ENDBRANCH  24  25
ENDBRANCH   3  24
TORSDOF 9
ENDMDL
MODEL 6
REMARK VINA RESULT:      -6.6      1.592      3.209
REMARK  Name = 
REMARK  10 active torsions:
REMARK  status: ('A' for Active; 'I' for Inactive)
REMARK    1  A    between atoms: C_1  and  O_2
REMARK    2  A    between atoms: O_2  and  C_3
REMARK    3  A    between atoms: C_3  and  C_5
REMARK    4  A    between atoms: C_8  and  O_9
REMARK    5  A    between atoms: O_9  and  C_10
REMARK    6  A    between atoms: C_12  and  C_13
REMARK    7  A    between atoms: C_13  and  O_14
REMARK    8  A    between atoms: C_15  and  O_16
REMARK    9  A    between atoms: C_17  and  O_18
REMARK   10  A    between atoms: C_19  and  O_20
REMARK                            x       y       z     vdW  Elec       q    Type
REMARK                         _______ _______ _______ _____ _____    ______ ____
ROOT
ATOM      1  C   UNL     1       3.983   4.760  19.671  0.00  0.00    +0.000 C 
ATOM      2  O   UNL     1       4.073   3.680  18.743  0.00  0.00    +0.000 OA
ATOM      3  C   UNL     1       3.387   2.501  19.177  0.00  0.00    +0.000 C 
ATOM      4  C   UNL     1       1.886   2.791  19.326  0.00  0.00    +0.000 C 
ATOM      5  C   UNL     1       1.683   4.014  20.244  0.00  0.00    +0.000 C 
ATOM      6  C   UNL     1       2.521   5.220  19.806  0.00  0.00    +0.000 C 
ENDROOT
BRANCH   4   7
ATOM      7  O   UNL     1       1.204   1.653  19.858  0.00  0.00    +0.000 OA
ATOM      8  H   UNL     1       1.254   1.672  20.830  0.00  0.00    +0.000 HD
ENDBRANCH   4   7
BRANCH   5   9
ATOM      9  O   UNL     1       0.305   4.398  20.340  0.00  0.00    +0.000 OA
ATOM     10  H   UNL     1      -0.245   3.661  20.016  0.00  0.00    +0.000 HD
ENDBRANCH   5   9
BRANCH   6  11
ATOM     11  O   UNL     1       2.422   6.252  20.806  0.00  0.00    +0.000 OA
ATOM     12  H   UNL     1       2.847   5.912  21.616  0.00  0.00    +0.000 HD
ENDBRANCH   6  11
BRANCH   1  13
ATOM     13  O   UNL     1       4.835   5.828  19.242  0.00  0.00    +0.000 OA
BRANCH  13  17
ATOM     14  C   UNL     1       6.459   5.198  15.434  0.00  0.00    +0.000 A 
ATOM     15  C   UNL     1       7.087   4.724  16.595  0.00  0.00    +0.000 A 
ATOM     16  C   UNL     1       6.519   4.953  17.854  0.00  0.00    +0.000 A 
ATOM     17  C   UNL     1       5.325   5.667  17.969  0.00  0.00    +0.000 A 
ATOM     18  C   UNL     1       4.702   6.141  16.806  0.00  0.00    +0.000 A 
ATOM     19  C   UNL     1       5.266   5.915  15.547  0.00  0.00    +0.000 A 
BRANCH  14  20
ATOM     20  C   UNL     1       7.077   4.877  14.122  0.00  0.00    +0.000 C 
ATOM     21  O   UNL     1       8.016   5.496  13.648  0.00  0.00    +0.000 OA
BRANCH  20  23
ATOM     22  C   UNL     1       6.710   3.679  12.150  0.00  0.00    +0.000 C 
ATOM     23  O   UNL     1       6.479   3.794  13.556  0.00  0.00    +0.000 OA
ENDBRANCH  20  23
ENDBRANCH  14  20
ENDBRANCH  13  17
ENDBRANCH   1  13
BRANCH   3  24
ATOM     24  C   UNL     1       3.688   1.432  18.126  0.00  0.00    +0.000 C 
BRANCH  24  25
ATOM     25  O   UNL     1       4.502   0.403  18.683  0.00  0.00    +0.000 OA
ATOM     26  H   UNL     1       4.502   0.555  19.644  0.00  0.00    +0.000 HD
ENDBRANCH  24  25
ENDBRANCH   3  24
TORSDOF 9
ENDMDL
MODEL 7
REMARK VINA RESULT:      -6.6      3.059      7.944
REMARK  Name = 
REMARK  10 active torsions:
REMARK  status: ('A' for Active; 'I' for Inactive)
REMARK    1  A    between atoms: C_1  and  O_2
REMARK    2  A    between atoms: O_2  and  C_3
REMARK    3  A    between atoms: C_3  and  C_5
REMARK    4  A    between atoms: C_8  and  O_9
REMARK    5  A    between atoms: O_9  and  C_10
REMARK    6  A    between atoms: C_12  and  C_13
REMARK    7  A    between atoms: C_13  and  O_14
REMARK    8  A    between atoms: C_15  and  O_16
REMARK    9  A    between atoms: C_17  and  O_18
REMARK   10  A    between atoms: C_19  and  O_20
REMARK                            x       y       z     vdW  Elec       q    Type
REMARK                         _______ _______ _______ _____ _____    ______ ____
ROOT
ATOM      1  C   UNL     1       3.807   6.201  18.378  0.00  0.00    +0.000 C 
ATOM      2  O   UNL     1       4.820   6.575  17.447  0.00  0.00    +0.000 OA
ATOM      3  C   UNL     1       6.141   6.223  17.875  0.00  0.00    +0.000 C 
ATOM      4  C   UNL     1       6.256   4.697  18.018  0.00  0.00    +0.000 C 
ATOM      5  C   UNL     1       5.133   4.177  18.938  0.00  0.00    +0.000 C 
ATOM      6  C   UNL     1       3.748   4.669  18.508  0.00  0.00    +0.000 C 
ENDROOT
BRANCH   4   7
ATOM      7  O   UNL     1       7.535   4.337  18.544  0.00  0.00    +0.000 OA
ATOM      8  H   UNL     1       7.725   4.879  19.330  0.00  0.00    +0.000 HD
ENDBRANCH   4   7
BRANCH   5   9
ATOM      9  O   UNL     1       5.126   2.745  19.031  0.00  0.00    +0.000 OA
ATOM     10  H   UNL     1       5.983   2.411  18.709  0.00  0.00    +0.000 HD
ENDBRANCH   5   9
BRANCH   6  11
ATOM     11  O   UNL     1       2.783   4.299  19.510  0.00  0.00    +0.000 OA
ATOM     12  H   UNL     1       2.914   3.352  19.703  0.00  0.00    +0.000 HD
ENDBRANCH   6  11
BRANCH   1  13
ATOM     13  O   UNL     1       2.550   6.744  17.955  0.00  0.00    +0.000 OA
BRANCH  13  17
ATOM     14  C   UNL     1       0.950   9.761  20.378  0.00  0.00    +0.000 A 
ATOM     15  C   UNL     1       1.128   9.935  18.998  0.00  0.00    +0.000 A 
ATOM     16  C   UNL     1       1.668   8.907  18.216  0.00  0.00    +0.000 A 
ATOM     17  C   UNL     1       2.046   7.699  18.804  0.00  0.00    +0.000 A 
ATOM     18  C   UNL     1       1.868   7.529  20.184  0.00  0.00    +0.000 A 
ATOM     19  C   UNL     1       1.330   8.554  20.969  0.00  0.00    +0.000 A 
BRANCH  14  20
ATOM     20  C   UNL     1       0.320  10.864  21.148  0.00  0.00    +0.000 C 
ATOM     21  O   UNL     1      -0.133  11.874  20.634  0.00  0.00    +0.000 OA
BRANCH  20  23
ATOM     22  C   UNL     1      -1.003  10.701  23.067  0.00  0.00    +0.000 C 
ATOM     23  O   UNL     1       0.293  10.574  22.478  0.00  0.00    +0.000 OA
ENDBRANCH  20  23
ENDBRANCH  14  20
ENDBRANCH  13  17
ENDBRANCH   1  13
BRANCH   3  24
ATOM     24  C   UNL     1       7.088   6.797  16.821  0.00  0.00    +0.000 C 
BRANCH  24  25
ATOM     25  O   UNL     1       7.471   5.785  15.893  0.00  0.00    +0.000 OA
ATOM     26  H   UNL     1       6.715   5.173  15.841  0.00  0.00    +0.000 HD
ENDBRANCH  24  25
ENDBRANCH   3  24
TORSDOF 9
ENDMDL
MODEL 8
REMARK VINA RESULT:      -6.5      1.985      7.606
REMARK  Name = 
REMARK  10 active torsions:
REMARK  status: ('A' for Active; 'I' for Inactive)
REMARK    1  A    between atoms: C_1  and  O_2
REMARK    2  A    between atoms: O_2  and  C_3
REMARK    3  A    between atoms: C_3  and  C_5
REMARK    4  A    between atoms: C_8  and  O_9
REMARK    5  A    between atoms: O_9  and  C_10
REMARK    6  A    between atoms: C_12  and  C_13
REMARK    7  A    between atoms: C_13  and  O_14
REMARK    8  A    between atoms: C_15  and  O_16
REMARK    9  A    between atoms: C_17  and  O_18
REMARK   10  A    between atoms: C_19  and  O_20
REMARK                            x       y       z     vdW  Elec       q    Type
REMARK                         _______ _______ _______ _____ _____    ______ ____
ROOT
ATOM      1  C   UNL     1       4.592   4.878  17.669  0.00  0.00    +0.000 C 
ATOM      2  O   UNL     1       4.514   4.341  16.350  0.00  0.00    +0.000 OA
ATOM      3  C   UNL     1       5.553   4.812  15.484  0.00  0.00    +0.000 C 
ATOM      4  C   UNL     1       6.924   4.378  16.025  0.00  0.00    +0.000 C 
ATOM      5  C   UNL     1       7.070   4.832  17.492  0.00  0.00    +0.000 C 
ATOM      6  C   UNL     1       5.882   4.402  18.358  0.00  0.00    +0.000 C 
ENDROOT
BRANCH   4   7
ATOM      7  O   UNL     1       7.976   4.928  15.229  0.00  0.00    +0.000 OA
ATOM      8  H   UNL     1       8.286   5.758  15.632  0.00  0.00    +0.000 HD
ENDBRANCH   4   7
BRANCH   5   9
ATOM      9  O   UNL     1       8.290   4.367  18.086  0.00  0.00    +0.000 OA
ATOM     10  H   UNL     1       8.078   3.957  18.945  0.00  0.00    +0.000 HD
ENDBRANCH   5   9
BRANCH   6  11
ATOM     11  O   UNL     1       5.998   5.013  19.657  0.00  0.00    +0.000 OA
ATOM     12  H   UNL     1       6.334   5.920  19.521  0.00  0.00    +0.000 HD
ENDBRANCH   6  11
BRANCH   1  13
ATOM     13  O   UNL     1       3.426   4.495  18.407  0.00  0.00    +0.000 OA
BRANCH  13  17
ATOM     14  C   UNL     1       1.559   7.787  20.199  0.00  0.00    +0.000 A 
ATOM     15  C   UNL     1       2.206   7.886  18.959  0.00  0.00    +0.000 A 
ATOM     16  C   UNL     1       2.823   6.767  18.387  0.00  0.00    +0.000 A 
ATOM     17  C   UNL     1       2.810   5.540  19.052  0.00  0.00    +0.000 A 
ATOM     18  C   UNL     1       2.164   5.444  20.292  0.00  0.00    +0.000 A 
ATOM     19  C   UNL     1       1.547   6.561  20.867  0.00  0.00    +0.000 A 
BRANCH  14  20
ATOM     20  C   UNL     1       0.873   8.993  20.730  0.00  0.00    +0.000 C 
ATOM     21  O   UNL     1       1.060  10.120  20.302  0.00  0.00    +0.000 OA
BRANCH  20  23
ATOM     22  C   UNL     1       0.084   9.503  22.869  0.00  0.00    +0.000 C 
ATOM     23  O   UNL     1       0.000   8.659  21.719  0.00  0.00    +0.000 OA
ENDBRANCH  20  23
ENDBRANCH  14  20
ENDBRANCH  13  17
ENDBRANCH   1  13
BRANCH   3  24
ATOM     24  C   UNL     1       5.243   4.229  14.105  0.00  0.00    +0.000 C 
BRANCH  24  25
ATOM     25  O   UNL     1       6.280   3.338  13.698  0.00  0.00    +0.000 OA
ATOM     26  H   UNL     1       7.108   3.724  14.035  0.00  0.00    +0.000 HD
ENDBRANCH  24  25
ENDBRANCH   3  24
TORSDOF 9
ENDMDL
MODEL 9
REMARK VINA RESULT:      -6.5      1.559      3.130
REMARK  Name = 
REMARK  10 active torsions:
REMARK  status: ('A' for Active; 'I' for Inactive)
REMARK    1  A    between atoms: C_1  and  O_2
REMARK    2  A    between atoms: O_2  and  C_3
REMARK    3  A    between atoms: C_3  and  C_5
REMARK    4  A    between atoms: C_8  and  O_9
REMARK    5  A    between atoms: O_9  and  C_10
REMARK    6  A    between atoms: C_12  and  C_13
REMARK    7  A    between atoms: C_13  and  O_14
REMARK    8  A    between atoms: C_15  and  O_16
REMARK    9  A    between atoms: C_17  and  O_18
REMARK   10  A    between atoms: C_19  and  O_20
REMARK                            x       y       z     vdW  Elec       q    Type
REMARK                         _______ _______ _______ _____ _____    ______ ____
ROOT
ATOM      1  C   UNL     1       3.952   4.774  19.679  0.00  0.00    +0.000 C 
ATOM      2  O   UNL     1       4.023   3.667  18.782  0.00  0.00    +0.000 OA
ATOM      3  C   UNL     1       3.325   2.509  19.256  0.00  0.00    +0.000 C 
ATOM      4  C   UNL     1       1.828   2.823  19.405  0.00  0.00    +0.000 C 
ATOM      5  C   UNL     1       1.647   4.075  20.288  0.00  0.00    +0.000 C 
ATOM      6  C   UNL     1       2.497   5.256  19.810  0.00  0.00    +0.000 C 
ENDROOT
BRANCH   4   7
ATOM      7  O   UNL     1       1.136   1.710  19.976  0.00  0.00    +0.000 OA
ATOM      8  H   UNL     1       0.702   1.203  19.268  0.00  0.00    +0.000 HD
ENDBRANCH   4   7
BRANCH   5   9
ATOM      9  O   UNL     1       0.274   4.479  20.382  0.00  0.00    +0.000 OA
ATOM     10  H   UNL     1      -0.276   3.681  20.486  0.00  0.00    +0.000 HD
ENDBRANCH   5   9
BRANCH   6  11
ATOM     11  O   UNL     1       2.418   6.318  20.778  0.00  0.00    +0.000 OA
ATOM     12  H   UNL     1       2.841   5.996  21.597  0.00  0.00    +0.000 HD
ENDBRANCH   6  11
BRANCH   1  13
ATOM     13  O   UNL     1       4.815   5.818  19.212  0.00  0.00    +0.000 OA
BRANCH  13  17
ATOM     14  C   UNL     1       6.535   5.109  15.461  0.00  0.00    +0.000 A 
ATOM     15  C   UNL     1       5.327   5.807  15.602  0.00  0.00    +0.000 A 
ATOM     16  C   UNL     1       4.777   6.026  16.871  0.00  0.00    +0.000 A 
ATOM     17  C   UNL     1       5.420   5.541  18.010  0.00  0.00    +0.000 A 
ATOM     18  C   UNL     1       6.626   4.843  17.865  0.00  0.00    +0.000 A 
ATOM     19  C   UNL     1       7.179   4.621  16.600  0.00  0.00    +0.000 A 
BRANCH  14  20
ATOM     20  C   UNL     1       7.101   4.957  14.096  0.00  0.00    +0.000 C 
ATOM     21  O   UNL     1       8.055   5.596  13.684  0.00  0.00    +0.000 OA
BRANCH  20  23
ATOM     22  C   UNL     1       6.971   3.753  12.097  0.00  0.00    +0.000 C 
ATOM     23  O   UNL     1       6.434   3.996  13.400  0.00  0.00    +0.000 OA
ENDBRANCH  20  23
ENDBRANCH  14  20
ENDBRANCH  13  17
ENDBRANCH   1  13
BRANCH   3  24
ATOM     24  C   UNL     1       3.605   1.406  18.235  0.00  0.00    +0.000 C 
BRANCH  24  25
ATOM     25  O   UNL     1       4.525   0.457  18.768  0.00  0.00    +0.000 OA
ATOM     26  H   UNL     1       5.107   0.206  18.029  0.00  0.00    +0.000 HD
ENDBRANCH  24  25
ENDBRANCH   3  24
TORSDOF 9
ENDMDL
