MODEL 1
REMARK VINA RESULT:      -8.3      0.000      0.000
REMARK  Name = 
REMARK  3 active torsions:
REMARK  status: ('A' for Active; 'I' for Inactive)
REMARK    1  A    between atoms: C_1  and  C_2
REMARK    2  A    between atoms: C_10  and  C_11
REMARK    3  A    between atoms: N_15  and  C_16
REMARK                            x       y       z     vdW  Elec       q    Type
REMARK                         _______ _______ _______ _____ _____    ______ ____
ROOT
ATOM      1  C   UNL     1       5.257   5.434  18.449  0.00  0.00    +0.000 A 
ATOM      2  C   UNL     1       6.358   5.452  19.279  0.00  0.00    +0.000 A 
ATOM      3  S   UNL     1       7.801   5.505  18.359  0.00  0.00    +0.000 S 
ATOM      4  C   UNL     1       6.870   5.433  16.913  0.00  0.00    +0.000 A 
ATOM      5  N   UNL     1       7.494   5.470  15.714  0.00  0.00    +0.000 N 
ATOM      6  N   UNL     1       5.570   5.382  17.106  0.00  0.00    +0.000 NA
ATOM      7  H   UNL     1       8.496   5.622  15.712  0.00  0.00    +0.000 HD
ENDROOT
BRANCH   1  17
ATOM      8  C   UNL     1       2.965   7.740  17.924  0.00  0.00    +0.000 C 
ATOM      9  C   UNL     1       2.880   6.460  18.664  0.00  0.00    +0.000 A 
ATOM     10  N   UNL     1       1.676   6.119  19.229  0.00  0.00    +0.000 NA
ATOM     11  C   UNL     1       1.847   4.952  19.803  0.00  0.00    +0.000 A 
ATOM     12  N   UNL     1       0.926   4.207  20.484  0.00  0.00    +0.000 NA
ATOM     13  C   UNL     1       1.344   3.078  20.965  0.00  0.00    +0.000 A 
ATOM     14  C   UNL     1       2.717   2.525  20.852  0.00  0.00    +0.000 A 
ATOM     15  C   UNL     1       3.583   3.291  20.172  0.00  0.00    +0.000 A 
ATOM     16  N   UNL     1       3.165   4.510  19.638  0.00  0.00    +0.000 N 
ATOM     17  C   UNL     1       3.831   5.478  18.903  0.00  0.00    +0.000 A 
ENDBRANCH   1  17
BRANCH   5  18
ATOM     18  C   UNL     1       7.032   4.863  14.531  0.00  0.00    +0.000 A 
ATOM     19  C   UNL     1       7.726   5.096  13.337  0.00  0.00    +0.000 A 
ATOM     20  C   UNL     1       7.297   4.525  12.137  0.00  0.00    +0.000 A 
ATOM     21  C   UNL     1       6.173   3.704  12.118  0.00  0.00    +0.000 A 
ATOM     22  C   UNL     1       5.469   3.466  13.296  0.00  0.00    +0.000 A 
ATOM     23  C   UNL     1       5.889   4.054  14.491  0.00  0.00    +0.000 A 
ENDBRANCH   5  18
TORSDOF 2
ENDMDL
MODEL 2
REMARK VINA RESULT:      -8.2      0.069      1.028
REMARK  Name = 
REMARK  3 active torsions:
REMARK  status: ('A' for Active; 'I' for Inactive)
REMARK    1  A    between atoms: C_1  and  C_2
REMARK    2  A    between atoms: C_10  and  C_11
REMARK    3  A    between atoms: N_15  and  C_16
REMARK                            x       y       z     vdW  Elec       q    Type
REMARK                         _______ _______ _______ _____ _____    ______ ____
ROOT
ATOM      1  C   UNL     1       5.266   5.440  18.414  0.00  0.00    +0.000 A 
ATOM      2  C   UNL     1       6.363   5.447  19.250  0.00  0.00    +0.000 A 
ATOM      3  S   UNL     1       7.811   5.498  18.338  0.00  0.00    +0.000 S 
ATOM      4  C   UNL     1       6.888   5.440  16.887  0.00  0.00    +0.000 A 
ATOM      5  N   UNL     1       7.519   5.481  15.691  0.00  0.00    +0.000 N 
ATOM      6  N   UNL     1       5.586   5.395  17.072  0.00  0.00    +0.000 NA
ATOM      7  H   UNL     1       8.521   5.628  15.696  0.00  0.00    +0.000 HD
ENDROOT
BRANCH   1  17
ATOM      8  C   UNL     1       2.994   7.769  17.904  0.00  0.00    +0.000 C 
ATOM      9  C   UNL     1       2.895   6.481  18.628  0.00  0.00    +0.000 A 
ATOM     10  N   UNL     1       1.685   6.142  19.181  0.00  0.00    +0.000 NA
ATOM     11  C   UNL     1       1.845   4.966  19.742  0.00  0.00    +0.000 A 
ATOM     12  N   UNL     1       0.914   4.220  20.409  0.00  0.00    +0.000 NA
ATOM     13  C   UNL     1       1.321   3.082  20.878  0.00  0.00    +0.000 A 
ATOM     14  C   UNL     1       2.691   2.520  20.766  0.00  0.00    +0.000 A 
ATOM     15  C   UNL     1       3.566   3.289  20.100  0.00  0.00    +0.000 A 
ATOM     16  N   UNL     1       3.160   4.517  19.579  0.00  0.00    +0.000 N 
ATOM     17  C   UNL     1       3.838   5.489  18.860  0.00  0.00    +0.000 A 
ENDBRANCH   1  17
BRANCH   5  18
ATOM     18  C   UNL     1       7.060   4.885  14.501  0.00  0.00    +0.000 A 
ATOM     19  C   UNL     1       5.928   4.061  14.552  0.00  0.00    +0.000 A 
ATOM     20  C   UNL     1       5.444   3.439  13.399  0.00  0.00    +0.000 A 
ATOM     21  C   UNL     1       6.080   3.642  12.178  0.00  0.00    +0.000 A 
ATOM     22  C   UNL     1       7.210   4.454  12.112  0.00  0.00    +0.000 A 
ATOM     23  C   UNL     1       7.703   5.059  13.269  0.00  0.00    +0.000 A 
ENDBRANCH   5  18
TORSDOF 2
ENDMDL
MODEL 3
REMARK VINA RESULT:      -7.5      1.158      2.205
REMARK  Name = 
REMARK  3 active torsions:
REMARK  status: ('A' for Active; 'I' for Inactive)
REMARK    1  A    between atoms: C_1  and  C_2
REMARK    2  A    between atoms: C_10  and  C_11
REMARK    3  A    between atoms: N_15  and  C_16
REMARK                            x       y       z     vdW  Elec       q    Type
REMARK                         _______ _______ _______ _____ _____    ______ ____
ROOT
ATOM      1  C   UNL     1       5.282   4.446  18.238  0.00  0.00    +0.000 A 
ATOM      2  C   UNL     1       6.339   4.807  19.047  0.00  0.00    +0.000 A 
ATOM      3  S   UNL     1       7.614   5.461  18.109  0.00  0.00    +0.000 S 
ATOM      4  C   UNL     1       6.704   5.159  16.680  0.00  0.00    +0.000 A 
ATOM      5  N   UNL     1       7.210   5.516  15.478  0.00  0.00    +0.000 N 
ATOM      6  N   UNL     1       5.524   4.616  16.891  0.00  0.00    +0.000 NA
ATOM      7  H   UNL     1       8.085   6.028  15.471  0.00  0.00    +0.000 HD
ENDROOT
BRANCH   1  17
ATOM      8  C   UNL     1       4.048   1.398  18.063  0.00  0.00    +0.000 C 
ATOM      9  C   UNL     1       3.466   2.632  18.639  0.00  0.00    +0.000 A 
ATOM     10  N   UNL     1       2.225   2.549  19.221  0.00  0.00    +0.000 NA
ATOM     11  C   UNL     1       1.940   3.750  19.669  0.00  0.00    +0.000 A 
ATOM     12  N   UNL     1       0.816   4.154  20.330  0.00  0.00    +0.000 NA
ATOM     13  C   UNL     1       0.769   5.405  20.670  0.00  0.00    +0.000 A 
ATOM     14  C   UNL     1       1.810   6.431  20.405  0.00  0.00    +0.000 A 
ATOM     15  C   UNL     1       2.894   5.983  19.756  0.00  0.00    +0.000 A 
ATOM     16  N   UNL     1       2.979   4.643  19.380  0.00  0.00    +0.000 N 
ATOM     17  C   UNL     1       3.964   3.925  18.720  0.00  0.00    +0.000 A 
ENDBRANCH   1  17
BRANCH   5  18
ATOM     18  C   UNL     1       6.945   4.873  14.253  0.00  0.00    +0.000 A 
ATOM     19  C   UNL     1       7.755   5.165  13.149  0.00  0.00    +0.000 A 
ATOM     20  C   UNL     1       7.522   4.560  11.911  0.00  0.00    +0.000 A 
ATOM     21  C   UNL     1       6.480   3.648  11.767  0.00  0.00    +0.000 A 
ATOM     22  C   UNL     1       5.662   3.352  12.854  0.00  0.00    +0.000 A 
ATOM     23  C   UNL     1       5.886   3.972  14.085  0.00  0.00    +0.000 A 
ENDBRANCH   5  18
TORSDOF 2
ENDMDL
MODEL 4
REMARK VINA RESULT:      -7.5      3.239      4.882
REMARK  Name = 
REMARK  3 active torsions:
REMARK  status: ('A' for Active; 'I' for Inactive)
REMARK    1  A    between atoms: C_1  and  C_2
REMARK    2  A    between atoms: C_10  and  C_11
REMARK    3  A    between atoms: N_15  and  C_16
REMARK                            x       y       z     vdW  Elec       q    Type
REMARK                         _______ _______ _______ _____ _____    ______ ____
ROOT
ATOM      1  C   UNL     1       2.111   6.595  20.055  0.00  0.00    +0.000 A 
ATOM      2  C   UNL     1       1.459   5.647  20.815  0.00  0.00    +0.000 A 
ATOM      3  S   UNL     1       2.342   4.179  20.829  0.00  0.00    +0.000 S 
ATOM      4  C   UNL     1       3.501   4.879  19.766  0.00  0.00    +0.000 A 
ATOM      5  N   UNL     1       4.576   4.155  19.381  0.00  0.00    +0.000 N 
ATOM      6  N   UNL     1       3.250   6.127  19.433  0.00  0.00    +0.000 NA
ATOM      7  H   UNL     1       4.702   3.242  19.803  0.00  0.00    +0.000 HD
ENDROOT
BRANCH   1  17
ATOM      8  C   UNL     1       2.402   8.583  17.447  0.00  0.00    +0.000 C 
ATOM      9  C   UNL     1       1.808   8.837  18.779  0.00  0.00    +0.000 A 
ATOM     10  N   UNL     1       1.262  10.075  19.018  0.00  0.00    +0.000 NA
ATOM     11  C   UNL     1       0.790  10.047  20.242  0.00  0.00    +0.000 A 
ATOM     12  N   UNL     1       0.148  11.046  20.917  0.00  0.00    +0.000 NA
ATOM     13  C   UNL     1      -0.224  10.771  22.129  0.00  0.00    +0.000 A 
ATOM     14  C   UNL     1      -0.015   9.489  22.847  0.00  0.00    +0.000 A 
ATOM     15  C   UNL     1       0.617   8.540  22.140  0.00  0.00    +0.000 A 
ATOM     16  N   UNL     1       1.026   8.800  20.833  0.00  0.00    +0.000 N 
ATOM     17  C   UNL     1       1.680   8.019  19.892  0.00  0.00    +0.000 A 
ENDBRANCH   1  17
BRANCH   5  18
ATOM     18  C   UNL     1       5.258   4.289  18.156  0.00  0.00    +0.000 A 
ATOM     19  C   UNL     1       6.596   4.702  18.170  0.00  0.00    +0.000 A 
ATOM     20  C   UNL     1       7.309   4.860  16.980  0.00  0.00    +0.000 A 
ATOM     21  C   UNL     1       6.694   4.596  15.759  0.00  0.00    +0.000 A 
ATOM     22  C   UNL     1       5.363   4.190  15.728  0.00  0.00    +0.000 A 
ATOM     23  C   UNL     1       4.647   4.051  16.918  0.00  0.00    +0.000 A 
ENDBRANCH   5  18
TORSDOF 2
ENDMDL
MODEL 5
REMARK VINA RESULT:      -7.5      3.239      4.931
REMARK  Name = 
REMARK  3 active torsions:
REMARK  status: ('A' for Active; 'I' for Inactive)
REMARK    1  A    between atoms: C_1  and  C_2
REMARK    2  A    between atoms: C_10  and  C_11
REMARK    3  A    between atoms: N_15  and  C_16
REMARK                            x       y       z     vdW  Elec       q    Type
REMARK                         _______ _______ _______ _____ _____    ______ ____
ROOT
ATOM      1  C   UNL     1       2.113   6.597  20.051  0.00  0.00    +0.000 A 
ATOM      2  C   UNL     1       1.453   5.638  20.791  0.00  0.00    +0.000 A 
ATOM      3  S   UNL     1       2.342   4.175  20.806  0.00  0.00    +0.000 S 
ATOM      4  C   UNL     1       3.516   4.890  19.770  0.00  0.00    +0.000 A 
ATOM      5  N   UNL     1       4.602   4.175  19.397  0.00  0.00    +0.000 N 
ATOM      6  N   UNL     1       3.265   6.140  19.444  0.00  0.00    +0.000 NA
ATOM      7  H   UNL     1       4.724   3.259  19.812  0.00  0.00    +0.000 HD
ENDROOT
BRANCH   1  17
ATOM      8  C   UNL     1       2.392   8.594  17.448  0.00  0.00    +0.000 C 
ATOM      9  C   UNL     1       1.801   8.842  18.783  0.00  0.00    +0.000 A 
ATOM     10  N   UNL     1       1.252  10.077  19.027  0.00  0.00    +0.000 NA
ATOM     11  C   UNL     1       0.783  10.044  20.252  0.00  0.00    +0.000 A 
ATOM     12  N   UNL     1       0.141  11.040  20.933  0.00  0.00    +0.000 NA
ATOM     13  C   UNL     1      -0.227  10.760  22.145  0.00  0.00    +0.000 A 
ATOM     14  C   UNL     1      -0.012   9.476  22.858  0.00  0.00    +0.000 A 
ATOM     15  C   UNL     1       0.620   8.531  22.146  0.00  0.00    +0.000 A 
ATOM     16  N   UNL     1       1.025   8.797  20.839  0.00  0.00    +0.000 N 
ATOM     17  C   UNL     1       1.677   8.020  19.894  0.00  0.00    +0.000 A 
ENDBRANCH   1  17
BRANCH   5  18
ATOM     18  C   UNL     1       5.304   4.323  18.186  0.00  0.00    +0.000 A 
ATOM     19  C   UNL     1       4.642   4.048  16.983  0.00  0.00    +0.000 A 
ATOM     20  C   UNL     1       5.302   4.170  15.758  0.00  0.00    +0.000 A 
ATOM     21  C   UNL     1       6.632   4.580  15.721  0.00  0.00    +0.000 A 
ATOM     22  C   UNL     1       7.306   4.852  16.909  0.00  0.00    +0.000 A 
ATOM     23  C   UNL     1       6.649   4.710  18.133  0.00  0.00    +0.000 A 
ENDBRANCH   5  18
TORSDOF 2
ENDMDL
MODEL 6
REMARK VINA RESULT:      -7.5      1.177      2.435
REMARK  Name = 
REMARK  3 active torsions:
REMARK  status: ('A' for Active; 'I' for Inactive)
REMARK    1  A    between atoms: C_1  and  C_2
REMARK    2  A    between atoms: C_10  and  C_11
REMARK    3  A    between atoms: N_15  and  C_16
REMARK                            x       y       z     vdW  Elec       q    Type
REMARK                         _______ _______ _______ _____ _____    ______ ____
ROOT
ATOM      1  C   UNL     1       5.282   4.402  18.232  0.00  0.00    +0.000 A 
ATOM      2  C   UNL     1       6.335   4.746  19.053  0.00  0.00    +0.000 A 
ATOM      3  S   UNL     1       7.616   5.415  18.135  0.00  0.00    +0.000 S 
ATOM      4  C   UNL     1       6.715   5.141  16.695  0.00  0.00    +0.000 A 
ATOM      5  N   UNL     1       7.229   5.518  15.503  0.00  0.00    +0.000 N 
ATOM      6  N   UNL     1       5.533   4.596  16.889  0.00  0.00    +0.000 NA
ATOM      7  H   UNL     1       8.104   6.029  15.511  0.00  0.00    +0.000 HD
ENDROOT
BRANCH   1  17
ATOM      8  C   UNL     1       4.049   1.357  18.001  0.00  0.00    +0.000 C 
ATOM      9  C   UNL     1       3.463   2.582  18.592  0.00  0.00    +0.000 A 
ATOM     10  N   UNL     1       2.218   2.492  19.164  0.00  0.00    +0.000 NA
ATOM     11  C   UNL     1       1.930   3.685  19.628  0.00  0.00    +0.000 A 
ATOM     12  N   UNL     1       0.801   4.081  20.288  0.00  0.00    +0.000 NA
ATOM     13  C   UNL     1       0.753   5.326  20.646  0.00  0.00    +0.000 A 
ATOM     14  C   UNL     1       1.795   6.355  20.404  0.00  0.00    +0.000 A 
ATOM     15  C   UNL     1       2.885   5.916  19.756  0.00  0.00    +0.000 A 
ATOM     16  N   UNL     1       2.971   4.582  19.361  0.00  0.00    +0.000 N 
ATOM     17  C   UNL     1       3.960   3.874  18.696  0.00  0.00    +0.000 A 
ENDBRANCH   1  17
BRANCH   5  18
ATOM     18  C   UNL     1       6.970   4.899  14.266  0.00  0.00    +0.000 A 
ATOM     19  C   UNL     1       5.912   3.985  14.177  0.00  0.00    +0.000 A 
ATOM     20  C   UNL     1       5.626   3.337  12.973  0.00  0.00    +0.000 A 
ATOM     21  C   UNL     1       6.388   3.604  11.839  0.00  0.00    +0.000 A 
ATOM     22  C   UNL     1       7.447   4.505  11.913  0.00  0.00    +0.000 A 
ATOM     23  C   UNL     1       7.743   5.137  13.122  0.00  0.00    +0.000 A 
ENDBRANCH   5  18
TORSDOF 2
ENDMDL
MODEL 7
REMARK VINA RESULT:      -7.4      1.660      2.009
REMARK  Name = 
REMARK  3 active torsions:
REMARK  status: ('A' for Active; 'I' for Inactive)
REMARK    1  A    between atoms: C_1  and  C_2
REMARK    2  A    between atoms: C_10  and  C_11
REMARK    3  A    between atoms: N_15  and  C_16
REMARK                            x       y       z     vdW  Elec       q    Type
REMARK                         _______ _______ _______ _____ _____    ______ ____
ROOT
ATOM      1  C   UNL     1       5.082   4.719  16.964  0.00  0.00    +0.000 A 
ATOM      2  C   UNL     1       6.333   4.798  17.539  0.00  0.00    +0.000 A 
ATOM      3  S   UNL     1       7.551   4.705  16.339  0.00  0.00    +0.000 S 
ATOM      4  C   UNL     1       6.336   4.496  15.137  0.00  0.00    +0.000 A 
ATOM      5  N   UNL     1       6.694   4.378  13.838  0.00  0.00    +0.000 N 
ATOM      6  N   UNL     1       5.105   4.506  15.601  0.00  0.00    +0.000 NA
ATOM      7  H   UNL     1       7.674   4.500  13.610  0.00  0.00    +0.000 HD
ENDROOT
BRANCH   1  17
ATOM      8  C   UNL     1       3.407   7.439  17.762  0.00  0.00    +0.000 C 
ATOM      9  C   UNL     1       3.092   6.015  18.018  0.00  0.00    +0.000 A 
ATOM     10  N   UNL     1       1.922   5.720  18.672  0.00  0.00    +0.000 NA
ATOM     11  C   UNL     1       1.860   4.412  18.759  0.00  0.00    +0.000 A 
ATOM     12  N   UNL     1       0.873   3.653  19.322  0.00  0.00    +0.000 NA
ATOM     13  C   UNL     1       1.047   2.368  19.285  0.00  0.00    +0.000 A 
ATOM     14  C   UNL     1       2.208   1.651  18.700  0.00  0.00    +0.000 A 
ATOM     15  C   UNL     1       3.147   2.440  18.158  0.00  0.00    +0.000 A 
ATOM     16  N   UNL     1       2.990   3.825  18.177  0.00  0.00    +0.000 N 
ATOM     17  C   UNL     1       3.783   4.856  17.697  0.00  0.00    +0.000 A 
ENDBRANCH   1  17
BRANCH   5  18
ATOM     18  C   UNL     1       5.990   3.655  12.857  0.00  0.00    +0.000 A 
ATOM     19  C   UNL     1       6.591   2.522  12.293  0.00  0.00    +0.000 A 
ATOM     20  C   UNL     1       5.935   1.781  11.307  0.00  0.00    +0.000 A 
ATOM     21  C   UNL     1       4.665   2.158  10.881  0.00  0.00    +0.000 A 
ATOM     22  C   UNL     1       4.057   3.285  11.427  0.00  0.00    +0.000 A 
ATOM     23  C   UNL     1       4.722   4.036  12.398  0.00  0.00    +0.000 A 
ENDBRANCH   5  18
TORSDOF 2
ENDMDL
MODEL 8
REMARK VINA RESULT:      -7.4      6.946     10.614
REMARK  Name = 
REMARK  3 active torsions:
REMARK  status: ('A' for Active; 'I' for Inactive)
REMARK    1  A    between atoms: C_1  and  C_2
REMARK    2  A    between atoms: C_10  and  C_11
REMARK    3  A    between atoms: N_15  and  C_16
REMARK                            x       y       z     vdW  Elec       q    Type
REMARK                         _______ _______ _______ _____ _____    ______ ____
ROOT
ATOM      1  C   UNL     1      -0.332  11.438  20.215  0.00  0.00    +0.000 A 
ATOM      2  C   UNL     1       0.305  12.629  19.935  0.00  0.00    +0.000 A 
ATOM      3  S   UNL     1      -0.839  13.887  19.731  0.00  0.00    +0.000 S 
ATOM      4  C   UNL     1      -2.112  12.752  19.962  0.00  0.00    +0.000 A 
ATOM      5  N   UNL     1      -3.396  13.175  19.940  0.00  0.00    +0.000 N 
ATOM      6  N   UNL     1      -1.709  11.520  20.186  0.00  0.00    +0.000 NA
ATOM      7  H   UNL     1      -3.559  14.173  19.868  0.00  0.00    +0.000 HD
ENDROOT
BRANCH   1  17
ATOM      8  C   UNL     1      -0.241   9.779  23.058  0.00  0.00    +0.000 C 
ATOM      9  C   UNL     1       0.372   9.462  21.748  0.00  0.00    +0.000 A 
ATOM     10  N   UNL     1       1.091   8.297  21.636  0.00  0.00    +0.000 NA
ATOM     11  C   UNL     1       1.510   8.233  20.394  0.00  0.00    +0.000 A 
ATOM     12  N   UNL     1       2.257   7.250  19.809  0.00  0.00    +0.000 NA
ATOM     13  C   UNL     1       2.548   7.419  18.557  0.00  0.00    +0.000 A 
ATOM     14  C   UNL     1       2.156   8.573  17.708  0.00  0.00    +0.000 A 
ATOM     15  C   UNL     1       1.423   9.509  18.328  0.00  0.00    +0.000 A 
ATOM     16  N   UNL     1       1.088   9.356  19.673  0.00  0.00    +0.000 N 
ATOM     17  C   UNL     1       0.353  10.147  20.542  0.00  0.00    +0.000 A 
ENDBRANCH   1  17
BRANCH   5  18
ATOM     18  C   UNL     1      -4.505  12.410  19.530  0.00  0.00    +0.000 A 
ATOM     19  C   UNL     1      -5.555  12.205  20.434  0.00  0.00    +0.000 A 
ATOM     20  C   UNL     1      -6.669  11.442  20.075  0.00  0.00    +0.000 A 
ATOM     21  C   UNL     1      -6.751  10.885  18.803  0.00  0.00    +0.000 A 
ATOM     22  C   UNL     1      -5.713  11.075  17.894  0.00  0.00    +0.000 A 
ATOM     23  C   UNL     1      -4.591  11.821  18.262  0.00  0.00    +0.000 A 
ENDBRANCH   5  18
TORSDOF 2
ENDMDL
MODEL 9
REMARK VINA RESULT:      -7.3      6.937     10.566
REMARK  Name = 
REMARK  3 active torsions:
REMARK  status: ('A' for Active; 'I' for Inactive)
REMARK    1  A    between atoms: C_1  and  C_2
REMARK    2  A    between atoms: C_10  and  C_11
REMARK    3  A    between atoms: N_15  and  C_16
REMARK                            x       y       z     vdW  Elec       q    Type
REMARK                         _______ _______ _______ _____ _____    ______ ____
ROOT
ATOM      1  C   UNL     1      -0.328  11.431  20.187  0.00  0.00    +0.000 A 
ATOM      2  C   UNL     1       0.310  12.610  19.866  0.00  0.00    +0.000 A 
ATOM      3  S   UNL     1      -0.831  13.870  19.656  0.00  0.00    +0.000 S 
ATOM      4  C   UNL     1      -2.106  12.748  19.939  0.00  0.00    +0.000 A 
ATOM      5  N   UNL     1      -3.388  13.179  19.934  0.00  0.00    +0.000 N 
ATOM      6  N   UNL     1      -1.705  11.520  20.184  0.00  0.00    +0.000 NA
ATOM      7  H   UNL     1      -3.547  14.175  19.841  0.00  0.00    +0.000 HD
ENDROOT
BRANCH   1  17
ATOM      8  C   UNL     1      -0.229   9.813  23.054  0.00  0.00    +0.000 C 
ATOM      9  C   UNL     1       0.380   9.477  21.747  0.00  0.00    +0.000 A 
ATOM     10  N   UNL     1       1.096   8.309  21.649  0.00  0.00    +0.000 NA
ATOM     11  C   UNL     1       1.510   8.226  20.407  0.00  0.00    +0.000 A 
ATOM     12  N   UNL     1       2.253   7.233  19.834  0.00  0.00    +0.000 NA
ATOM     13  C   UNL     1       2.540   7.383  18.578  0.00  0.00    +0.000 A 
ATOM     14  C   UNL     1       2.146   8.524  17.713  0.00  0.00    +0.000 A 
ATOM     15  C   UNL     1       1.416   9.471  18.322  0.00  0.00    +0.000 A 
ATOM     16  N   UNL     1       1.087   9.338  19.670  0.00  0.00    +0.000 N 
ATOM     17  C   UNL     1       0.356  10.144  20.530  0.00  0.00    +0.000 A 
ENDBRANCH   1  17
BRANCH   5  18
ATOM     18  C   UNL     1      -4.509  12.411  19.565  0.00  0.00    +0.000 A 
ATOM     19  C   UNL     1      -4.556  11.861  18.277  0.00  0.00    +0.000 A 
ATOM     20  C   UNL     1      -5.653  11.102  17.863  0.00  0.00    +0.000 A 
ATOM     21  C   UNL     1      -6.713  10.875  18.737  0.00  0.00    +0.000 A 
ATOM     22  C   UNL     1      -6.683  11.419  20.018  0.00  0.00    +0.000 A 
ATOM     23  C   UNL     1      -5.594  12.194  20.423  0.00  0.00    +0.000 A 
ENDBRANCH   5  18
TORSDOF 2
ENDMDL
