MODEL 1
REMARK VINA RESULT:      -6.9      0.000      0.000
REMARK  Name = 
REMARK  10 active torsions:
REMARK  status: ('A' for Active; 'I' for Inactive)
REMARK    1  A    between atoms: C_1  and  C_2
REMARK    2  A    between atoms: C_6  and  S_7
REMARK    3  A    between atoms: S_7  and  C_8
REMARK    4  A    between atoms: C_8  and  C_9
REMARK    5  A    between atoms: C_9  and  O_11
REMARK    6  A    between atoms: O_11  and  C_12
REMARK    7  A    between atoms: C_12  and  C_13
REMARK    8  A    between atoms: C_12  and  C_14
REMARK    9  A    between atoms: N_15  and  C_16
REMARK   10  A    between atoms: C_20  and  C_21
REMARK                            x       y       z     vdW  Elec       q    Type
REMARK                         _______ _______ _______ _____ _____    ______ ____
ROOT
ATOM      1  C   UNL     1       0.950  10.306  19.502  0.00  0.00    +0.000 C 
ATOM      2  C   UNL     1       1.585   8.971  19.276  0.00  0.00    +0.000 A 
ATOM      3  S   UNL     1       2.397   8.634  17.806  0.00  0.00    +0.000 S 
ATOM      4  C   UNL     1       2.812   7.059  18.309  0.00  0.00    +0.000 A 
ATOM      5  N   UNL     1       3.533   6.224  17.517  0.00  0.00    +0.000 NA
ATOM      6  C   UNL     1       3.771   5.053  18.025  0.00  0.00    +0.000 A 
ATOM      7  N   UNL     1       3.326   4.621  19.275  0.00  0.00    +0.000 N 
ATOM      8  C   UNL     1       3.553   3.300  19.849  0.00  0.00    +0.000 C 
ATOM      9  C   UNL     1       2.577   5.465  20.104  0.00  0.00    +0.000 A 
ATOM     10  O   UNL     1       2.150   5.111  21.200  0.00  0.00    +0.000 OA
ATOM     11  C   UNL     1       2.321   6.785  19.565  0.00  0.00    +0.000 A 
ATOM     12  C   UNL     1       1.613   7.897  20.152  0.00  0.00    +0.000 A 
ATOM     13  C   UNL     1       0.989   7.931  21.514  0.00  0.00    +0.000 C 
ENDROOT
BRANCH   6  14
ATOM     14  S   UNL     1       4.657   3.886  17.047  0.00  0.00    +0.000 S 
BRANCH  14  15
ATOM     15  C   UNL     1       5.244   4.885  15.654  0.00  0.00    +0.000 C 
BRANCH  15  16
ATOM     16  C   UNL     1       6.668   5.376  15.819  0.00  0.00    +0.000 C 
ATOM     17  O   UNL     1       7.683   4.798  15.453  0.00  0.00    +0.000 OA
BRANCH  16  18
ATOM     18  O   UNL     1       6.647   6.606  16.426  0.00  0.00    +0.000 OA
BRANCH  18  19
ATOM     19  C   UNL     1       7.678   6.862  17.402  0.00  0.00    +0.000 C 
ATOM     20  C   UNL     1       7.755   8.352  17.710  0.00  0.00    +0.000 C 
ATOM     21  C   UNL     1       7.330   6.082  18.665  0.00  0.00    +0.000 C 
ENDBRANCH  18  19
ENDBRANCH  16  18
ENDBRANCH  15  16
ENDBRANCH  14  15
ENDBRANCH   6  14
TORSDOF 5
ENDMDL
MODEL 2
REMARK VINA RESULT:      -6.4      3.155      4.993
REMARK  Name = 
REMARK  10 active torsions:
REMARK  status: ('A' for Active; 'I' for Inactive)
REMARK    1  A    between atoms: C_1  and  C_2
REMARK    2  A    between atoms: C_6  and  S_7
REMARK    3  A    between atoms: S_7  and  C_8
REMARK    4  A    between atoms: C_8  and  C_9
REMARK    5  A    between atoms: C_9  and  O_11
REMARK    6  A    between atoms: O_11  and  C_12
REMARK    7  A    between atoms: C_12  and  C_13
REMARK    8  A    between atoms: C_12  and  C_14
REMARK    9  A    between atoms: N_15  and  C_16
REMARK   10  A    between atoms: C_20  and  C_21
REMARK                            x       y       z     vdW  Elec       q    Type
REMARK                         _______ _______ _______ _____ _____    ______ ____
ROOT
ATOM      1  C   UNL     1       0.645   2.327  19.275  0.00  0.00    +0.000 C 
ATOM      2  C   UNL     1       1.923   2.931  18.790  0.00  0.00    +0.000 A 
ATOM      3  S   UNL     1       2.612   2.427  17.305  0.00  0.00    +0.000 S 
ATOM      4  C   UNL     1       3.920   3.510  17.457  0.00  0.00    +0.000 A 
ATOM      5  N   UNL     1       4.887   3.600  16.507  0.00  0.00    +0.000 NA
ATOM      6  C   UNL     1       5.826   4.461  16.757  0.00  0.00    +0.000 A 
ATOM      7  N   UNL     1       5.900   5.247  17.907  0.00  0.00    +0.000 N 
ATOM      8  C   UNL     1       6.962   6.195  18.222  0.00  0.00    +0.000 C 
ATOM      9  C   UNL     1       4.916   5.165  18.900  0.00  0.00    +0.000 A 
ATOM     10  O   UNL     1       4.962   5.826  19.936  0.00  0.00    +0.000 OA
ATOM     11  C   UNL     1       3.847   4.227  18.630  0.00  0.00    +0.000 A 
ATOM     12  C   UNL     1       2.678   3.912  19.415  0.00  0.00    +0.000 A 
ATOM     13  C   UNL     1       2.293   4.537  20.720  0.00  0.00    +0.000 C 
ENDROOT
BRANCH   6  14
ATOM     14  S   UNL     1       7.148   4.609  15.603  0.00  0.00    +0.000 S 
BRANCH  14  15
ATOM     15  C   UNL     1       6.381   4.107  14.040  0.00  0.00    +0.000 C 
BRANCH  15  16
ATOM     16  C   UNL     1       7.118   4.611  12.815  0.00  0.00    +0.000 C 
ATOM     17  O   UNL     1       8.042   5.412  12.802  0.00  0.00    +0.000 OA
BRANCH  16  18
ATOM     18  O   UNL     1       6.602   3.996  11.703  0.00  0.00    +0.000 OA
BRANCH  18  19
ATOM     19  C   UNL     1       5.715   2.882  11.935  0.00  0.00    +0.000 C 
ATOM     20  C   UNL     1       4.356   3.148  11.301  0.00  0.00    +0.000 C 
ATOM     21  C   UNL     1       6.350   1.642  11.314  0.00  0.00    +0.000 C 
ENDBRANCH  18  19
ENDBRANCH  16  18
ENDBRANCH  15  16
ENDBRANCH  14  15
ENDBRANCH   6  14
TORSDOF 5
ENDMDL
MODEL 3
REMARK VINA RESULT:      -6.3      1.575      2.718
REMARK  Name = 
REMARK  10 active torsions:
REMARK  status: ('A' for Active; 'I' for Inactive)
REMARK    1  A    between atoms: C_1  and  C_2
REMARK    2  A    between atoms: C_6  and  S_7
REMARK    3  A    between atoms: S_7  and  C_8
REMARK    4  A    between atoms: C_8  and  C_9
REMARK    5  A    between atoms: C_9  and  O_11
REMARK    6  A    between atoms: O_11  and  C_12
REMARK    7  A    between atoms: C_12  and  C_13
REMARK    8  A    between atoms: C_12  and  C_14
REMARK    9  A    between atoms: N_15  and  C_16
REMARK   10  A    between atoms: C_20  and  C_21
REMARK                            x       y       z     vdW  Elec       q    Type
REMARK                         _______ _______ _______ _____ _____    ______ ____
ROOT
ATOM      1  C   UNL     1       0.844  10.190  19.367  0.00  0.00    +0.000 C 
ATOM      2  C   UNL     1       1.555   8.887  19.188  0.00  0.00    +0.000 A 
ATOM      3  S   UNL     1       2.461   8.582  17.767  0.00  0.00    +0.000 S 
ATOM      4  C   UNL     1       2.926   7.033  18.305  0.00  0.00    +0.000 A 
ATOM      5  N   UNL     1       3.729   6.229  17.560  0.00  0.00    +0.000 NA
ATOM      6  C   UNL     1       3.997   5.075  18.090  0.00  0.00    +0.000 A 
ATOM      7  N   UNL     1       3.507   4.629  19.318  0.00  0.00    +0.000 N 
ATOM      8  C   UNL     1       3.768   3.325  19.915  0.00  0.00    +0.000 C 
ATOM      9  C   UNL     1       2.674   5.440  20.099  0.00  0.00    +0.000 A 
ATOM     10  O   UNL     1       2.206   5.072  21.173  0.00  0.00    +0.000 OA
ATOM     11  C   UNL     1       2.382   6.743  19.536  0.00  0.00    +0.000 A 
ATOM     12  C   UNL     1       1.590   7.821  20.074  0.00  0.00    +0.000 A 
ATOM     13  C   UNL     1       0.892   7.832  21.399  0.00  0.00    +0.000 C 
ENDROOT
BRANCH   6  14
ATOM     14  S   UNL     1       4.991   3.948  17.172  0.00  0.00    +0.000 S 
BRANCH  14  15
ATOM     15  C   UNL     1       5.118   4.746  15.550  0.00  0.00    +0.000 C 
BRANCH  15  16
ATOM     16  C   UNL     1       6.517   4.717  14.969  0.00  0.00    +0.000 C 
ATOM     17  O   UNL     1       7.449   5.446  15.281  0.00  0.00    +0.000 OA
BRANCH  16  18
ATOM     18  O   UNL     1       6.592   3.709  14.042  0.00  0.00    +0.000 OA
BRANCH  18  19
ATOM     19  C   UNL     1       6.186   4.039  12.697  0.00  0.00    +0.000 C 
ATOM     20  C   UNL     1       7.392   4.475  11.874  0.00  0.00    +0.000 C 
ATOM     21  C   UNL     1       5.553   2.795  12.081  0.00  0.00    +0.000 C 
ENDBRANCH  18  19
ENDBRANCH  16  18
ENDBRANCH  15  16
ENDBRANCH  14  15
ENDBRANCH   6  14
TORSDOF 5
ENDMDL
MODEL 4
REMARK VINA RESULT:      -6.2      0.837      1.132
REMARK  Name = 
REMARK  10 active torsions:
REMARK  status: ('A' for Active; 'I' for Inactive)
REMARK    1  A    between atoms: C_1  and  C_2
REMARK    2  A    between atoms: C_6  and  S_7
REMARK    3  A    between atoms: S_7  and  C_8
REMARK    4  A    between atoms: C_8  and  C_9
REMARK    5  A    between atoms: C_9  and  O_11
REMARK    6  A    between atoms: O_11  and  C_12
REMARK    7  A    between atoms: C_12  and  C_13
REMARK    8  A    between atoms: C_12  and  C_14
REMARK    9  A    between atoms: N_15  and  C_16
REMARK   10  A    between atoms: C_20  and  C_21
REMARK                            x       y       z     vdW  Elec       q    Type
REMARK                         _______ _______ _______ _____ _____    ______ ____
ROOT
ATOM      1  C   UNL     1       0.495  10.968  19.710  0.00  0.00    +0.000 C 
ATOM      2  C   UNL     1       1.167   9.663  19.427  0.00  0.00    +0.000 A 
ATOM      3  S   UNL     1       1.989   9.413  17.945  0.00  0.00    +0.000 S 
ATOM      4  C   UNL     1       2.448   7.830  18.379  0.00  0.00    +0.000 A 
ATOM      5  N   UNL     1       3.192   7.050  17.552  0.00  0.00    +0.000 NA
ATOM      6  C   UNL     1       3.462   5.865  18.009  0.00  0.00    +0.000 A 
ATOM      7  N   UNL     1       3.030   5.367  19.238  0.00  0.00    +0.000 N 
ATOM      8  C   UNL     1       3.293   4.029  19.754  0.00  0.00    +0.000 C 
ATOM      9  C   UNL     1       2.257   6.153  20.102  0.00  0.00    +0.000 A 
ATOM     10  O   UNL     1       1.840   5.740  21.181  0.00  0.00    +0.000 OA
ATOM     11  C   UNL     1       1.964   7.488  19.621  0.00  0.00    +0.000 A 
ATOM     12  C   UNL     1       1.226   8.553  20.255  0.00  0.00    +0.000 A 
ATOM     13  C   UNL     1       0.601   8.510  21.616  0.00  0.00    +0.000 C 
ENDROOT
BRANCH   6  14
ATOM     14  S   UNL     1       4.380   4.768  16.982  0.00  0.00    +0.000 S 
BRANCH  14  15
ATOM     15  C   UNL     1       5.428   5.891  16.021  0.00  0.00    +0.000 C 
BRANCH  15  16
ATOM     16  C   UNL     1       6.783   5.307  15.673  0.00  0.00    +0.000 C 
ATOM     17  O   UNL     1       7.077   4.722  14.640  0.00  0.00    +0.000 OA
BRANCH  16  18
ATOM     18  O   UNL     1       7.654   5.565  16.700  0.00  0.00    +0.000 OA
BRANCH  18  19
ATOM     19  C   UNL     1       7.177   6.433  17.749  0.00  0.00    +0.000 C 
ATOM     20  C   UNL     1       7.553   5.869  19.113  0.00  0.00    +0.000 C 
ATOM     21  C   UNL     1       7.819   7.802  17.551  0.00  0.00    +0.000 C 
ENDBRANCH  18  19
ENDBRANCH  16  18
ENDBRANCH  15  16
ENDBRANCH  14  15
ENDBRANCH   6  14
TORSDOF 5
ENDMDL
MODEL 5
REMARK VINA RESULT:      -6.0      2.843      4.886
REMARK  Name = 
REMARK  10 active torsions:
REMARK  status: ('A' for Active; 'I' for Inactive)
REMARK    1  A    between atoms: C_1  and  C_2
REMARK    2  A    between atoms: C_6  and  S_7
REMARK    3  A    between atoms: S_7  and  C_8
REMARK    4  A    between atoms: C_8  and  C_9
REMARK    5  A    between atoms: C_9  and  O_11
REMARK    6  A    between atoms: O_11  and  C_12
REMARK    7  A    between atoms: C_12  and  C_13
REMARK    8  A    between atoms: C_12  and  C_14
REMARK    9  A    between atoms: N_15  and  C_16
REMARK   10  A    between atoms: C_20  and  C_21
REMARK                            x       y       z     vdW  Elec       q    Type
REMARK                         _______ _______ _______ _____ _____    ______ ____
ROOT
ATOM      1  C   UNL     1       1.025   2.784  20.940  0.00  0.00    +0.000 C 
ATOM      2  C   UNL     1       2.031   3.422  20.037  0.00  0.00    +0.000 A 
ATOM      3  S   UNL     1       3.227   2.473  19.262  0.00  0.00    +0.000 S 
ATOM      4  C   UNL     1       3.899   3.826  18.473  0.00  0.00    +0.000 A 
ATOM      5  N   UNL     1       4.960   3.709  17.633  0.00  0.00    +0.000 NA
ATOM      6  C   UNL     1       5.371   4.823  17.107  0.00  0.00    +0.000 A 
ATOM      7  N   UNL     1       4.819   6.077  17.366  0.00  0.00    +0.000 N 
ATOM      8  C   UNL     1       5.287   7.343  16.814  0.00  0.00    +0.000 C 
ATOM      9  C   UNL     1       3.729   6.220  18.234  0.00  0.00    +0.000 A 
ATOM     10  O   UNL     1       3.232   7.311  18.502  0.00  0.00    +0.000 OA
ATOM     11  C   UNL     1       3.239   4.986  18.813  0.00  0.00    +0.000 A 
ATOM     12  C   UNL     1       2.135   4.767  19.714  0.00  0.00    +0.000 A 
ATOM     13  C   UNL     1       1.204   5.813  20.246  0.00  0.00    +0.000 C 
ENDROOT
BRANCH   6  14
ATOM     14  S   UNL     1       6.773   4.773  16.044  0.00  0.00    +0.000 S 
BRANCH  14  15
ATOM     15  C   UNL     1       6.316   3.511  14.827  0.00  0.00    +0.000 C 
BRANCH  15  16
ATOM     16  C   UNL     1       6.303   4.022  13.400  0.00  0.00    +0.000 C 
ATOM     17  O   UNL     1       7.217   4.598  12.826  0.00  0.00    +0.000 OA
BRANCH  16  18
ATOM     18  O   UNL     1       5.097   3.708  12.827  0.00  0.00    +0.000 OA
BRANCH  18  19
ATOM     19  C   UNL     1       5.135   3.215  11.472  0.00  0.00    +0.000 C 
ATOM     20  C   UNL     1       5.782   1.836  11.430  0.00  0.00    +0.000 C 
ATOM     21  C   UNL     1       3.700   3.136  10.962  0.00  0.00    +0.000 C 
ENDBRANCH  18  19
ENDBRANCH  16  18
ENDBRANCH  15  16
ENDBRANCH  14  15
ENDBRANCH   6  14
TORSDOF 5
ENDMDL
MODEL 6
REMARK VINA RESULT:      -5.9      2.796      4.374
REMARK  Name = 
REMARK  10 active torsions:
REMARK  status: ('A' for Active; 'I' for Inactive)
REMARK    1  A    between atoms: C_1  and  C_2
REMARK    2  A    between atoms: C_6  and  S_7
REMARK    3  A    between atoms: S_7  and  C_8
REMARK    4  A    between atoms: C_8  and  C_9
REMARK    5  A    between atoms: C_9  and  O_11
REMARK    6  A    between atoms: O_11  and  C_12
REMARK    7  A    between atoms: C_12  and  C_13
REMARK    8  A    between atoms: C_12  and  C_14
REMARK    9  A    between atoms: N_15  and  C_16
REMARK   10  A    between atoms: C_20  and  C_21
REMARK                            x       y       z     vdW  Elec       q    Type
REMARK                         _______ _______ _______ _____ _____    ______ ____
ROOT
ATOM      1  C   UNL     1       1.619   2.343  21.816  0.00  0.00    +0.000 C 
ATOM      2  C   UNL     1       2.555   3.106  20.936  0.00  0.00    +0.000 A 
ATOM      3  S   UNL     1       4.101   2.473  20.557  0.00  0.00    +0.000 S 
ATOM      4  C   UNL     1       4.497   3.815  19.584  0.00  0.00    +0.000 A 
ATOM      5  N   UNL     1       5.689   3.903  18.940  0.00  0.00    +0.000 NA
ATOM      6  C   UNL     1       5.858   4.983  18.239  0.00  0.00    +0.000 A 
ATOM      7  N   UNL     1       4.930   6.019  18.137  0.00  0.00    +0.000 N 
ATOM      8  C   UNL     1       5.114   7.254  17.383  0.00  0.00    +0.000 C 
ATOM      9  C   UNL     1       3.697   5.950  18.797  0.00  0.00    +0.000 A 
ATOM     10  O   UNL     1       2.866   6.853  18.747  0.00  0.00    +0.000 OA
ATOM     11  C   UNL     1       3.479   4.742  19.566  0.00  0.00    +0.000 A 
ATOM     12  C   UNL     1       2.330   4.337  20.338  0.00  0.00    +0.000 A 
ATOM     13  C   UNL     1       1.052   5.104  20.494  0.00  0.00    +0.000 C 
ENDROOT
BRANCH   6  14
ATOM     14  S   UNL     1       7.396   5.205  17.410  0.00  0.00    +0.000 S 
BRANCH  14  15
ATOM     15  C   UNL     1       7.221   4.157  15.942  0.00  0.00    +0.000 C 
BRANCH  15  16
ATOM     16  C   UNL     1       6.044   4.533  15.066  0.00  0.00    +0.000 C 
ATOM     17  O   UNL     1       4.873   4.234  15.255  0.00  0.00    +0.000 OA
BRANCH  16  18
ATOM     18  O   UNL     1       6.494   5.302  14.023  0.00  0.00    +0.000 OA
BRANCH  18  19
ATOM     19  C   UNL     1       7.493   4.708  13.169  0.00  0.00    +0.000 C 
ATOM     20  C   UNL     1       6.828   3.957  12.022  0.00  0.00    +0.000 C 
ATOM     21  C   UNL     1       8.369   5.831  12.623  0.00  0.00    +0.000 C 
ENDBRANCH  18  19
ENDBRANCH  16  18
ENDBRANCH  15  16
ENDBRANCH  14  15
ENDBRANCH   6  14
TORSDOF 5
ENDMDL
MODEL 7
REMARK VINA RESULT:      -5.7      2.684      4.051
REMARK  Name = 
REMARK  10 active torsions:
REMARK  status: ('A' for Active; 'I' for Inactive)
REMARK    1  A    between atoms: C_1  and  C_2
REMARK    2  A    between atoms: C_6  and  S_7
REMARK    3  A    between atoms: S_7  and  C_8
REMARK    4  A    between atoms: C_8  and  C_9
REMARK    5  A    between atoms: C_9  and  O_11
REMARK    6  A    between atoms: O_11  and  C_12
REMARK    7  A    between atoms: C_12  and  C_13
REMARK    8  A    between atoms: C_12  and  C_14
REMARK    9  A    between atoms: N_15  and  C_16
REMARK   10  A    between atoms: C_20  and  C_21
REMARK                            x       y       z     vdW  Elec       q    Type
REMARK                         _______ _______ _______ _____ _____    ______ ____
ROOT
ATOM      1  C   UNL     1      -1.240  11.484  21.740  0.00  0.00    +0.000 C 
ATOM      2  C   UNL     1      -0.326  10.484  21.108  0.00  0.00    +0.000 A 
ATOM      3  S   UNL     1       0.096   9.047  21.939  0.00  0.00    +0.000 S 
ATOM      4  C   UNL     1       1.061   8.493  20.648  0.00  0.00    +0.000 A 
ATOM      5  N   UNL     1       1.710   7.301  20.703  0.00  0.00    +0.000 NA
ATOM      6  C   UNL     1       2.414   7.009  19.652  0.00  0.00    +0.000 A 
ATOM      7  N   UNL     1       2.548   7.828  18.530  0.00  0.00    +0.000 N 
ATOM      8  C   UNL     1       3.360   7.535  17.355  0.00  0.00    +0.000 C 
ATOM      9  C   UNL     1       1.891   9.063  18.457  0.00  0.00    +0.000 A 
ATOM     10  O   UNL     1       2.005   9.819  17.496  0.00  0.00    +0.000 OA
ATOM     11  C   UNL     1       1.081   9.397  19.611  0.00  0.00    +0.000 A 
ATOM     12  C   UNL     1       0.264  10.560  19.855  0.00  0.00    +0.000 A 
ATOM     13  C   UNL     1       0.050  11.707  18.916  0.00  0.00    +0.000 C 
ENDROOT
BRANCH   6  14
ATOM     14  S   UNL     1       3.330   5.506  19.655  0.00  0.00    +0.000 S 
BRANCH  14  15
ATOM     15  C   UNL     1       2.360   4.435  18.562  0.00  0.00    +0.000 C 
BRANCH  15  16
ATOM     16  C   UNL     1       3.208   3.542  17.680  0.00  0.00    +0.000 C 
ATOM     17  O   UNL     1       3.260   2.320  17.719  0.00  0.00    +0.000 OA
BRANCH  16  18
ATOM     18  O   UNL     1       3.900   4.324  16.791  0.00  0.00    +0.000 OA
BRANCH  18  19
ATOM     19  C   UNL     1       5.226   3.877  16.435  0.00  0.00    +0.000 C 
ATOM     20  C   UNL     1       5.528   4.227  14.983  0.00  0.00    +0.000 C 
ATOM     21  C   UNL     1       6.218   4.573  17.360  0.00  0.00    +0.000 C 
ENDBRANCH  18  19
ENDBRANCH  16  18
ENDBRANCH  15  16
ENDBRANCH  14  15
ENDBRANCH   6  14
TORSDOF 5
ENDMDL
MODEL 8
REMARK VINA RESULT:      -5.7      3.488      4.910
REMARK  Name = 
REMARK  10 active torsions:
REMARK  status: ('A' for Active; 'I' for Inactive)
REMARK    1  A    between atoms: C_1  and  C_2
REMARK    2  A    between atoms: C_6  and  S_7
REMARK    3  A    between atoms: S_7  and  C_8
REMARK    4  A    between atoms: C_8  and  C_9
REMARK    5  A    between atoms: C_9  and  O_11
REMARK    6  A    between atoms: O_11  and  C_12
REMARK    7  A    between atoms: C_12  and  C_13
REMARK    8  A    between atoms: C_12  and  C_14
REMARK    9  A    between atoms: N_15  and  C_16
REMARK   10  A    between atoms: C_20  and  C_21
REMARK                            x       y       z     vdW  Elec       q    Type
REMARK                         _______ _______ _______ _____ _____    ______ ____
ROOT
ATOM      1  C   UNL     1       0.431   2.892  19.897  0.00  0.00    +0.000 C 
ATOM      2  C   UNL     1       1.681   3.354  19.221  0.00  0.00    +0.000 A 
ATOM      3  S   UNL     1       1.617   4.034  17.650  0.00  0.00    +0.000 S 
ATOM      4  C   UNL     1       3.301   4.293  17.611  0.00  0.00    +0.000 A 
ATOM      5  N   UNL     1       3.911   4.865  16.541  0.00  0.00    +0.000 NA
ATOM      6  C   UNL     1       5.199   4.995  16.645  0.00  0.00    +0.000 A 
ATOM      7  N   UNL     1       5.955   4.577  17.741  0.00  0.00    +0.000 N 
ATOM      8  C   UNL     1       7.404   4.683  17.864  0.00  0.00    +0.000 C 
ATOM      9  C   UNL     1       5.346   3.981  18.852  0.00  0.00    +0.000 A 
ATOM     10  O   UNL     1       5.983   3.581  19.823  0.00  0.00    +0.000 OA
ATOM     11  C   UNL     1       3.906   3.848  18.765  0.00  0.00    +0.000 A 
ATOM     12  C   UNL     1       2.973   3.309  19.723  0.00  0.00    +0.000 A 
ATOM     13  C   UNL     1       3.306   2.774  21.082  0.00  0.00    +0.000 C 
ENDROOT
BRANCH   6  14
ATOM     14  S   UNL     1       6.079   5.681  15.284  0.00  0.00    +0.000 S 
BRANCH  14  15
ATOM     15  C   UNL     1       6.224   4.279  14.145  0.00  0.00    +0.000 C 
BRANCH  15  16
ATOM     16  C   UNL     1       7.077   4.573  12.928  0.00  0.00    +0.000 C 
ATOM     17  O   UNL     1       7.798   5.548  12.764  0.00  0.00    +0.000 OA
BRANCH  16  18
ATOM     18  O   UNL     1       6.940   3.545  12.031  0.00  0.00    +0.000 OA
BRANCH  18  19
ATOM     19  C   UNL     1       5.720   2.778  12.110  0.00  0.00    +0.000 C 
ATOM     20  C   UNL     1       4.577   3.536  11.446  0.00  0.00    +0.000 C 
ATOM     21  C   UNL     1       5.955   1.451  11.396  0.00  0.00    +0.000 C 
ENDBRANCH  18  19
ENDBRANCH  16  18
ENDBRANCH  15  16
ENDBRANCH  14  15
ENDBRANCH   6  14
TORSDOF 5
ENDMDL
MODEL 9
REMARK VINA RESULT:      -5.6      3.472      5.684
REMARK  Name = 
REMARK  10 active torsions:
REMARK  status: ('A' for Active; 'I' for Inactive)
REMARK    1  A    between atoms: C_1  and  C_2
REMARK    2  A    between atoms: C_6  and  S_7
REMARK    3  A    between atoms: S_7  and  C_8
REMARK    4  A    between atoms: C_8  and  C_9
REMARK    5  A    between atoms: C_9  and  O_11
REMARK    6  A    between atoms: O_11  and  C_12
REMARK    7  A    between atoms: C_12  and  C_13
REMARK    8  A    between atoms: C_12  and  C_14
REMARK    9  A    between atoms: N_15  and  C_16
REMARK   10  A    between atoms: C_20  and  C_21
REMARK                            x       y       z     vdW  Elec       q    Type
REMARK                         _______ _______ _______ _____ _____    ______ ____
ROOT
ATOM      1  C   UNL     1      -1.771  12.222  23.459  0.00  0.00    +0.000 C 
ATOM      2  C   UNL     1      -0.993  11.362  22.516  0.00  0.00    +0.000 A 
ATOM      3  S   UNL     1      -0.266   9.911  23.064  0.00  0.00    +0.000 S 
ATOM      4  C   UNL     1       0.354   9.549  21.518  0.00  0.00    +0.000 A 
ATOM      5  N   UNL     1       1.076   8.422  21.284  0.00  0.00    +0.000 NA
ATOM      6  C   UNL     1       1.491   8.277  20.062  0.00  0.00    +0.000 A 
ATOM      7  N   UNL     1       1.263   9.189  19.031  0.00  0.00    +0.000 N 
ATOM      8  C   UNL     1       1.748   9.063  17.661  0.00  0.00    +0.000 C 
ATOM      9  C   UNL     1       0.526  10.359  19.253  0.00  0.00    +0.000 A 
ATOM     10  O   UNL     1       0.326  11.194  18.374  0.00  0.00    +0.000 OA
ATOM     11  C   UNL     1       0.034  10.528  20.605  0.00  0.00    +0.000 A 
ATOM     12  C   UNL     1      -0.766  11.588  21.167  0.00  0.00    +0.000 A 
ATOM     13  C   UNL     1      -1.303  12.778  20.433  0.00  0.00    +0.000 C 
ENDROOT
BRANCH   6  14
ATOM     14  S   UNL     1       2.476   6.870  19.679  0.00  0.00    +0.000 S 
BRANCH  14  15
ATOM     15  C   UNL     1       1.763   5.576  20.729  0.00  0.00    +0.000 C 
BRANCH  15  16
ATOM     16  C   UNL     1       1.632   4.236  20.034  0.00  0.00    +0.000 C 
ATOM     17  O   UNL     1       0.592   3.633  19.808  0.00  0.00    +0.000 OA
BRANCH  16  18
ATOM     18  O   UNL     1       2.880   3.805  19.661  0.00  0.00    +0.000 OA
BRANCH  18  19
ATOM     19  C   UNL     1       2.992   3.207  18.353  0.00  0.00    +0.000 C 
ATOM     20  C   UNL     1       4.081   3.901  17.546  0.00  0.00    +0.000 C 
ATOM     21  C   UNL     1       3.336   1.733  18.541  0.00  0.00    +0.000 C 
ENDBRANCH  18  19
ENDBRANCH  16  18
ENDBRANCH  15  16
ENDBRANCH  14  15
ENDBRANCH   6  14
TORSDOF 5
ENDMDL
