MODEL 1
REMARK VINA RESULT:      -8.6      0.000      0.000
REMARK  Name = 
REMARK  3 active torsions:
REMARK  status: ('A' for Active; 'I' for Inactive)
REMARK    1  A    between atoms: C_1  and  C_2
REMARK    2  A    between atoms: C_7  and  N_8
REMARK    3  A    between atoms: N_8  and  C_9
REMARK                            x       y       z     vdW  Elec       q    Type
REMARK                         _______ _______ _______ _____ _____    ______ ____
ROOT
ATOM      1  C   UNL     1       5.471   3.648  16.563  0.00  0.00    +0.000 A 
ATOM      2  N   UNL     1       5.403   3.311  15.238  0.00  0.00    +0.000 NA
ATOM      3  C   UNL     1       6.126   3.927  14.302  0.00  0.00    +0.000 A 
ATOM      4  C   UNL     1       6.064   3.459  12.996  0.00  0.00    +0.000 A 
ATOM      5  C   UNL     1       6.842   4.018  11.982  0.00  0.00    +0.000 A 
ATOM      6  C   UNL     1       7.694   5.081  12.262  0.00  0.00    +0.000 A 
ATOM      7  C   UNL     1       7.765   5.591  13.559  0.00  0.00    +0.000 A 
ATOM      8  C   UNL     1       6.982   5.003  14.576  0.00  0.00    +0.000 A 
ATOM      9  C   UNL     1       7.000   5.409  15.926  0.00  0.00    +0.000 A 
ATOM     10  N   UNL     1       7.676   6.408  16.574  0.00  0.00    +0.000 N 
ATOM     11  N   UNL     1       7.460   6.455  17.894  0.00  0.00    +0.000 NA
ATOM     12  C   UNL     1       6.620   5.448  18.115  0.00  0.00    +0.000 A 
ATOM     13  N   UNL     1       6.207   5.154  19.361  0.00  0.00    +0.000 N 
ATOM     14  C   UNL     1       6.267   4.758  16.923  0.00  0.00    +0.000 A 
ATOM     15  H   UNL     1       8.314   7.082  16.169  0.00  0.00    +0.000 HD
ATOM     16  H   UNL     1       6.685   5.693  20.081  0.00  0.00    +0.000 HD
ATOM     17  H   UNL     1       6.130   4.182  19.639  0.00  0.00    +0.000 HD
ENDROOT
BRANCH   1  18
ATOM     18  N   UNL     1       4.774   2.835  17.476  0.00  0.00    +0.000 N 
ATOM     19  H   UNL     1       4.833   1.849  17.273  0.00  0.00    +0.000 HD
BRANCH  18  26
ATOM     20  C   UNL     1       4.388   2.150  20.316  0.00  0.00    +0.000 C 
ATOM     21  C   UNL     1       3.363   2.885  19.497  0.00  0.00    +0.000 A 
ATOM     22  C   UNL     1       2.160   3.271  20.117  0.00  0.00    +0.000 A 
ATOM     23  C   UNL     1       1.182   3.981  19.420  0.00  0.00    +0.000 A 
ATOM     24  C   UNL     1       1.392   4.312  18.089  0.00  0.00    +0.000 A 
ATOM     25  C   UNL     1       2.574   3.924  17.463  0.00  0.00    +0.000 A 
ATOM     26  C   UNL     1       3.576   3.202  18.139  0.00  0.00    +0.000 A 
ENDBRANCH  18  26
ENDBRANCH   1  18
TORSDOF 2
ENDMDL
MODEL 2
REMARK VINA RESULT:      -8.1      2.679      6.235
REMARK  Name = 
REMARK  3 active torsions:
REMARK  status: ('A' for Active; 'I' for Inactive)
REMARK    1  A    between atoms: C_1  and  C_2
REMARK    2  A    between atoms: C_7  and  N_8
REMARK    3  A    between atoms: N_8  and  C_9
REMARK                            x       y       z     vdW  Elec       q    Type
REMARK                         _______ _______ _______ _____ _____    ______ ____
ROOT
ATOM      1  C   UNL     1       3.973   4.467  18.290  0.00  0.00    +0.000 A 
ATOM      2  N   UNL     1       3.681   5.694  17.761  0.00  0.00    +0.000 NA
ATOM      3  C   UNL     1       2.939   6.597  18.404  0.00  0.00    +0.000 A 
ATOM      4  C   UNL     1       2.770   7.851  17.833  0.00  0.00    +0.000 A 
ATOM      5  C   UNL     1       2.059   8.859  18.483  0.00  0.00    +0.000 A 
ATOM      6  C   UNL     1       1.482   8.617  19.726  0.00  0.00    +0.000 A 
ATOM      7  C   UNL     1       1.613   7.361  20.318  0.00  0.00    +0.000 A 
ATOM      8  C   UNL     1       2.349   6.357  19.654  0.00  0.00    +0.000 A 
ATOM      9  C   UNL     1       2.579   5.066  20.172  0.00  0.00    +0.000 A 
ATOM     10  N   UNL     1       2.169   4.457  21.327  0.00  0.00    +0.000 N 
ATOM     11  N   UNL     1       2.634   3.212  21.491  0.00  0.00    +0.000 NA
ATOM     12  C   UNL     1       3.380   3.007  20.409  0.00  0.00    +0.000 A 
ATOM     13  N   UNL     1       4.057   1.856  20.244  0.00  0.00    +0.000 N 
ATOM     14  C   UNL     1       3.376   4.119  19.522  0.00  0.00    +0.000 A 
ATOM     15  H   UNL     1       1.580   4.846  22.053  0.00  0.00    +0.000 HD
ATOM     16  H   UNL     1       4.024   1.250  21.062  0.00  0.00    +0.000 HD
ATOM     17  H   UNL     1       4.996   1.887  19.865  0.00  0.00    +0.000 HD
ENDROOT
BRANCH   1  18
ATOM     18  N   UNL     1       4.883   3.656  17.587  0.00  0.00    +0.000 N 
ATOM     19  H   UNL     1       5.397   3.016  18.172  0.00  0.00    +0.000 HD
BRANCH  18  26
ATOM     20  C   UNL     1       7.590   4.794  17.831  0.00  0.00    +0.000 C 
ATOM     21  C   UNL     1       6.891   4.602  16.514  0.00  0.00    +0.000 A 
ATOM     22  C   UNL     1       7.563   4.978  15.335  0.00  0.00    +0.000 A 
ATOM     23  C   UNL     1       6.979   4.798  14.081  0.00  0.00    +0.000 A 
ATOM     24  C   UNL     1       5.712   4.242  13.986  0.00  0.00    +0.000 A 
ATOM     25  C   UNL     1       5.035   3.877  15.147  0.00  0.00    +0.000 A 
ATOM     26  C   UNL     1       5.595   4.052  16.426  0.00  0.00    +0.000 A 
ENDBRANCH  18  26
ENDBRANCH   1  18
TORSDOF 2
ENDMDL
MODEL 3
REMARK VINA RESULT:      -8.1      3.526      5.319
REMARK  Name = 
REMARK  3 active torsions:
REMARK  status: ('A' for Active; 'I' for Inactive)
REMARK    1  A    between atoms: C_1  and  C_2
REMARK    2  A    between atoms: C_7  and  N_8
REMARK    3  A    between atoms: N_8  and  C_9
REMARK                            x       y       z     vdW  Elec       q    Type
REMARK                         _______ _______ _______ _____ _____    ______ ____
ROOT
ATOM      1  C   UNL     1       3.070   5.862  19.109  0.00  0.00    +0.000 A 
ATOM      2  N   UNL     1       4.194   6.293  18.459  0.00  0.00    +0.000 NA
ATOM      3  C   UNL     1       4.810   5.564  17.528  0.00  0.00    +0.000 A 
ATOM      4  C   UNL     1       5.890   6.118  16.853  0.00  0.00    +0.000 A 
ATOM      5  C   UNL     1       6.538   5.433  15.826  0.00  0.00    +0.000 A 
ATOM      6  C   UNL     1       6.120   4.157  15.465  0.00  0.00    +0.000 A 
ATOM      7  C   UNL     1       5.053   3.561  16.137  0.00  0.00    +0.000 A 
ATOM      8  C   UNL     1       4.398   4.274  17.164  0.00  0.00    +0.000 A 
ATOM      9  C   UNL     1       3.287   3.789  17.884  0.00  0.00    +0.000 A 
ATOM     10  N   UNL     1       2.613   2.599  17.836  0.00  0.00    +0.000 N 
ATOM     11  N   UNL     1       1.562   2.524  18.663  0.00  0.00    +0.000 NA
ATOM     12  C   UNL     1       1.548   3.710  19.265  0.00  0.00    +0.000 A 
ATOM     13  N   UNL     1       0.585   4.023  20.151  0.00  0.00    +0.000 N 
ATOM     14  C   UNL     1       2.615   4.551  18.845  0.00  0.00    +0.000 A 
ATOM     15  H   UNL     1       2.814   1.801  17.245  0.00  0.00    +0.000 HD
ATOM     16  H   UNL     1      -0.153   3.323  20.206  0.00  0.00    +0.000 HD
ATOM     17  H   UNL     1       0.189   4.955  20.140  0.00  0.00    +0.000 HD
ENDROOT
BRANCH   1  18
ATOM     18  N   UNL     1       2.424   6.773  19.964  0.00  0.00    +0.000 N 
ATOM     19  H   UNL     1       1.927   6.338  20.726  0.00  0.00    +0.000 HD
BRANCH  18  26
ATOM     20  C   UNL     1       0.956   8.438  21.904  0.00  0.00    +0.000 C 
ATOM     21  C   UNL     1       1.149   8.823  20.463  0.00  0.00    +0.000 A 
ATOM     22  C   UNL     1       0.606  10.043  20.017  0.00  0.00    +0.000 A 
ATOM     23  C   UNL     1       0.775  10.472  18.700  0.00  0.00    +0.000 A 
ATOM     24  C   UNL     1       1.487   9.683  17.808  0.00  0.00    +0.000 A 
ATOM     25  C   UNL     1       2.018   8.469  18.237  0.00  0.00    +0.000 A 
ATOM     26  C   UNL     1       1.858   8.008  19.557  0.00  0.00    +0.000 A 
ENDBRANCH  18  26
ENDBRANCH   1  18
TORSDOF 2
ENDMDL
MODEL 4
REMARK VINA RESULT:      -7.8      1.018      1.355
REMARK  Name = 
REMARK  3 active torsions:
REMARK  status: ('A' for Active; 'I' for Inactive)
REMARK    1  A    between atoms: C_1  and  C_2
REMARK    2  A    between atoms: C_7  and  N_8
REMARK    3  A    between atoms: N_8  and  C_9
REMARK                            x       y       z     vdW  Elec       q    Type
REMARK                         _______ _______ _______ _____ _____    ______ ____
ROOT
ATOM      1  C   UNL     1       5.619   3.995  17.115  0.00  0.00    +0.000 A 
ATOM      2  N   UNL     1       5.348   3.470  15.881  0.00  0.00    +0.000 NA
ATOM      3  C   UNL     1       5.944   3.902  14.768  0.00  0.00    +0.000 A 
ATOM      4  C   UNL     1       5.677   3.249  13.572  0.00  0.00    +0.000 A 
ATOM      5  C   UNL     1       6.314   3.611  12.385  0.00  0.00    +0.000 A 
ATOM      6  C   UNL     1       7.229   4.659  12.375  0.00  0.00    +0.000 A 
ATOM      7  C   UNL     1       7.503   5.351  13.555  0.00  0.00    +0.000 A 
ATOM      8  C   UNL     1       6.861   4.962  14.750  0.00  0.00    +0.000 A 
ATOM      9  C   UNL     1       7.089   5.562  16.005  0.00  0.00    +0.000 A 
ATOM     10  N   UNL     1       7.881   6.610  16.390  0.00  0.00    +0.000 N 
ATOM     11  N   UNL     1       7.863   6.864  17.704  0.00  0.00    +0.000 NA
ATOM     12  C   UNL     1       7.036   5.945  18.193  0.00  0.00    +0.000 A 
ATOM     13  N   UNL     1       6.801   5.861  19.515  0.00  0.00    +0.000 N 
ATOM     14  C   UNL     1       6.491   5.104  17.184  0.00  0.00    +0.000 A 
ATOM     15  H   UNL     1       8.472   7.184  15.800  0.00  0.00    +0.000 HD
ATOM     16  H   UNL     1       7.395   6.476  20.069  0.00  0.00    +0.000 HD
ATOM     17  H   UNL     1       6.737   4.947  19.948  0.00  0.00    +0.000 HD
ENDROOT
BRANCH   1  18
ATOM     18  N   UNL     1       5.040   3.364  18.231  0.00  0.00    +0.000 N 
ATOM     19  H   UNL     1       5.596   2.613  18.610  0.00  0.00    +0.000 HD
BRANCH  18  26
ATOM     20  C   UNL     1       3.347   5.677  18.919  0.00  0.00    +0.000 C 
ATOM     21  C   UNL     1       2.814   4.279  18.766  0.00  0.00    +0.000 A 
ATOM     22  C   UNL     1       1.436   4.061  18.956  0.00  0.00    +0.000 A 
ATOM     23  C   UNL     1       0.876   2.793  18.800  0.00  0.00    +0.000 A 
ATOM     24  C   UNL     1       1.687   1.722  18.456  0.00  0.00    +0.000 A 
ATOM     25  C   UNL     1       3.053   1.924  18.278  0.00  0.00    +0.000 A 
ATOM     26  C   UNL     1       3.648   3.190  18.434  0.00  0.00    +0.000 A 
ENDBRANCH  18  26
ENDBRANCH   1  18
TORSDOF 2
ENDMDL
MODEL 5
REMARK VINA RESULT:      -7.8      0.973      1.281
REMARK  Name = 
REMARK  3 active torsions:
REMARK  status: ('A' for Active; 'I' for Inactive)
REMARK    1  A    between atoms: C_1  and  C_2
REMARK    2  A    between atoms: C_7  and  N_8
REMARK    3  A    between atoms: N_8  and  C_9
REMARK                            x       y       z     vdW  Elec       q    Type
REMARK                         _______ _______ _______ _____ _____    ______ ____
ROOT
ATOM      1  C   UNL     1       5.513   4.023  17.202  0.00  0.00    +0.000 A 
ATOM      2  N   UNL     1       5.242   3.527  15.956  0.00  0.00    +0.000 NA
ATOM      3  C   UNL     1       5.866   3.958  14.859  0.00  0.00    +0.000 A 
ATOM      4  C   UNL     1       5.595   3.334  13.648  0.00  0.00    +0.000 A 
ATOM      5  C   UNL     1       6.259   3.695  12.476  0.00  0.00    +0.000 A 
ATOM      6  C   UNL     1       7.206   4.714  12.495  0.00  0.00    +0.000 A 
ATOM      7  C   UNL     1       7.486   5.377  13.689  0.00  0.00    +0.000 A 
ATOM      8  C   UNL     1       6.816   4.989  14.870  0.00  0.00    +0.000 A 
ATOM      9  C   UNL     1       7.046   5.561  16.138  0.00  0.00    +0.000 A 
ATOM     10  N   UNL     1       7.865   6.577  16.550  0.00  0.00    +0.000 N 
ATOM     11  N   UNL     1       7.838   6.810  17.868  0.00  0.00    +0.000 NA
ATOM     12  C   UNL     1       6.975   5.909  18.331  0.00  0.00    +0.000 A 
ATOM     13  N   UNL     1       6.720   5.811  19.649  0.00  0.00    +0.000 N 
ATOM     14  C   UNL     1       6.419   5.103  17.301  0.00  0.00    +0.000 A 
ATOM     15  H   UNL     1       8.482   7.141  15.977  0.00  0.00    +0.000 HD
ATOM     16  H   UNL     1       7.326   6.397  20.220  0.00  0.00    +0.000 HD
ATOM     17  H   UNL     1       6.623   4.892  20.065  0.00  0.00    +0.000 HD
ENDROOT
BRANCH   1  18
ATOM     18  N   UNL     1       4.900   3.392  18.299  0.00  0.00    +0.000 N 
ATOM     19  H   UNL     1       5.068   2.398  18.346  0.00  0.00    +0.000 HD
BRANCH  18  26
ATOM     20  C   UNL     1       2.454   1.854  17.719  0.00  0.00    +0.000 C 
ATOM     21  C   UNL     1       2.477   3.065  18.611  0.00  0.00    +0.000 A 
ATOM     22  C   UNL     1       1.271   3.484  19.205  0.00  0.00    +0.000 A 
ATOM     23  C   UNL     1       1.231   4.582  20.065  0.00  0.00    +0.000 A 
ATOM     24  C   UNL     1       2.398   5.279  20.342  0.00  0.00    +0.000 A 
ATOM     25  C   UNL     1       3.593   4.880  19.750  0.00  0.00    +0.000 A 
ATOM     26  C   UNL     1       3.663   3.781  18.873  0.00  0.00    +0.000 A 
ENDBRANCH  18  26
ENDBRANCH   1  18
TORSDOF 2
ENDMDL
MODEL 6
REMARK VINA RESULT:      -7.8      4.976      8.013
REMARK  Name = 
REMARK  3 active torsions:
REMARK  status: ('A' for Active; 'I' for Inactive)
REMARK    1  A    between atoms: C_1  and  C_2
REMARK    2  A    between atoms: C_7  and  N_8
REMARK    3  A    between atoms: N_8  and  C_9
REMARK                            x       y       z     vdW  Elec       q    Type
REMARK                         _______ _______ _______ _____ _____    ______ ____
ROOT
ATOM      1  C   UNL     1       2.054   7.613  20.267  0.00  0.00    +0.000 A 
ATOM      2  N   UNL     1       1.460   7.884  21.469  0.00  0.00    +0.000 NA
ATOM      3  C   UNL     1       0.675   8.945  21.661  0.00  0.00    +0.000 A 
ATOM      4  C   UNL     1       0.039   9.091  22.886  0.00  0.00    +0.000 A 
ATOM      5  C   UNL     1      -0.843  10.144  23.130  0.00  0.00    +0.000 A 
ATOM      6  C   UNL     1      -1.092  11.090  22.140  0.00  0.00    +0.000 A 
ATOM      7  C   UNL     1      -0.452  10.985  20.905  0.00  0.00    +0.000 A 
ATOM      8  C   UNL     1       0.425   9.905  20.670  0.00  0.00    +0.000 A 
ATOM      9  C   UNL     1       1.096   9.678  19.451  0.00  0.00    +0.000 A 
ATOM     10  N   UNL     1       1.124  10.379  18.276  0.00  0.00    +0.000 N 
ATOM     11  N   UNL     1       1.859   9.813  17.311  0.00  0.00    +0.000 NA
ATOM     12  C   UNL     1       2.320   8.700  17.875  0.00  0.00    +0.000 A 
ATOM     13  N   UNL     1       3.077   7.834  17.177  0.00  0.00    +0.000 N 
ATOM     14  C   UNL     1       1.902   8.557  19.227  0.00  0.00    +0.000 A 
ATOM     15  H   UNL     1       0.647  11.248  18.066  0.00  0.00    +0.000 HD
ATOM     16  H   UNL     1       3.146   8.067  16.188  0.00  0.00    +0.000 HD
ATOM     17  H   UNL     1       2.925   6.839  17.296  0.00  0.00    +0.000 HD
ENDROOT
BRANCH   1  18
ATOM     18  N   UNL     1       2.740   6.392  20.142  0.00  0.00    +0.000 N 
ATOM     19  H   UNL     1       3.696   6.489  19.834  0.00  0.00    +0.000 HD
BRANCH  18  26
ATOM     20  C   UNL     1       3.668   5.004  17.712  0.00  0.00    +0.000 C 
ATOM     21  C   UNL     1       2.570   4.479  18.596  0.00  0.00    +0.000 A 
ATOM     22  C   UNL     1       1.956   3.259  18.251  0.00  0.00    +0.000 A 
ATOM     23  C   UNL     1       0.953   2.704  19.045  0.00  0.00    +0.000 A 
ATOM     24  C   UNL     1       0.545   3.363  20.196  0.00  0.00    +0.000 A 
ATOM     25  C   UNL     1       1.138   4.575  20.540  0.00  0.00    +0.000 A 
ATOM     26  C   UNL     1       2.148   5.163  19.755  0.00  0.00    +0.000 A 
ENDBRANCH  18  26
ENDBRANCH   1  18
TORSDOF 2
ENDMDL
MODEL 7
REMARK VINA RESULT:      -7.6      4.904      7.790
REMARK  Name = 
REMARK  3 active torsions:
REMARK  status: ('A' for Active; 'I' for Inactive)
REMARK    1  A    between atoms: C_1  and  C_2
REMARK    2  A    between atoms: C_7  and  N_8
REMARK    3  A    between atoms: N_8  and  C_9
REMARK                            x       y       z     vdW  Elec       q    Type
REMARK                         _______ _______ _______ _____ _____    ______ ____
ROOT
ATOM      1  C   UNL     1       2.099   7.429  20.233  0.00  0.00    +0.000 A 
ATOM      2  N   UNL     1       1.459   7.728  21.404  0.00  0.00    +0.000 NA
ATOM      3  C   UNL     1       0.703   8.817  21.552  0.00  0.00    +0.000 A 
ATOM      4  C   UNL     1       0.015   8.994  22.746  0.00  0.00    +0.000 A 
ATOM      5  C   UNL     1      -0.841  10.077  22.941  0.00  0.00    +0.000 A 
ATOM      6  C   UNL     1      -1.011  11.023  21.935  0.00  0.00    +0.000 A 
ATOM      7  C   UNL     1      -0.319  10.888  20.732  0.00  0.00    +0.000 A 
ATOM      8  C   UNL     1       0.532   9.777  20.545  0.00  0.00    +0.000 A 
ATOM      9  C   UNL     1       1.251   9.518  19.361  0.00  0.00    +0.000 A 
ATOM     10  N   UNL     1       1.358  10.209  18.184  0.00  0.00    +0.000 N 
ATOM     11  N   UNL     1       2.118   9.611  17.258  0.00  0.00    +0.000 NA
ATOM     12  C   UNL     1       2.513   8.488  17.850  0.00  0.00    +0.000 A 
ATOM     13  N   UNL     1       3.273   7.592  17.193  0.00  0.00    +0.000 N 
ATOM     14  C   UNL     1       2.028   8.369  19.181  0.00  0.00    +0.000 A 
ATOM     15  H   UNL     1       0.921  11.092  17.947  0.00  0.00    +0.000 HD
ATOM     16  H   UNL     1       3.396   7.815  16.207  0.00  0.00    +0.000 HD
ATOM     17  H   UNL     1       3.082   6.603  17.311  0.00  0.00    +0.000 HD
ENDROOT
BRANCH   1  18
ATOM     18  N   UNL     1       2.749   6.184  20.148  0.00  0.00    +0.000 N 
ATOM     19  H   UNL     1       3.744   6.251  19.995  0.00  0.00    +0.000 HD
BRANCH  18  26
ATOM     20  C   UNL     1       2.221   3.866  21.890  0.00  0.00    +0.000 C 
ATOM     21  C   UNL     1       1.915   3.879  20.418  0.00  0.00    +0.000 A 
ATOM     22  C   UNL     1       1.343   2.730  19.840  0.00  0.00    +0.000 A 
ATOM     23  C   UNL     1       1.009   2.690  18.486  0.00  0.00    +0.000 A 
ATOM     24  C   UNL     1       1.246   3.799  17.688  0.00  0.00    +0.000 A 
ATOM     25  C   UNL     1       1.823   4.937  18.247  0.00  0.00    +0.000 A 
ATOM     26  C   UNL     1       2.176   5.004  19.608  0.00  0.00    +0.000 A 
ENDBRANCH  18  26
ENDBRANCH   1  18
TORSDOF 2
ENDMDL
MODEL 8
REMARK VINA RESULT:      -7.5      2.722      6.535
REMARK  Name = 
REMARK  3 active torsions:
REMARK  status: ('A' for Active; 'I' for Inactive)
REMARK    1  A    between atoms: C_1  and  C_2
REMARK    2  A    between atoms: C_7  and  N_8
REMARK    3  A    between atoms: N_8  and  C_9
REMARK                            x       y       z     vdW  Elec       q    Type
REMARK                         _______ _______ _______ _____ _____    ______ ____
ROOT
ATOM      1  C   UNL     1       3.839   6.020  18.087  0.00  0.00    +0.000 A 
ATOM      2  N   UNL     1       4.179   4.754  18.479  0.00  0.00    +0.000 NA
ATOM      3  C   UNL     1       3.626   4.154  19.534  0.00  0.00    +0.000 A 
ATOM      4  C   UNL     1       3.962   2.835  19.804  0.00  0.00    +0.000 A 
ATOM      5  C   UNL     1       3.373   2.131  20.854  0.00  0.00    +0.000 A 
ATOM      6  C   UNL     1       2.436   2.753  21.672  0.00  0.00    +0.000 A 
ATOM      7  C   UNL     1       2.091   4.085  21.443  0.00  0.00    +0.000 A 
ATOM      8  C   UNL     1       2.686   4.778  20.366  0.00  0.00    +0.000 A 
ATOM      9  C   UNL     1       2.387   6.111  20.018  0.00  0.00    +0.000 A 
ATOM     10  N   UNL     1       1.554   7.040  20.580  0.00  0.00    +0.000 N 
ATOM     11  N   UNL     1       1.505   8.207  19.926  0.00  0.00    +0.000 NA
ATOM     12  C   UNL     1       2.330   8.029  18.898  0.00  0.00    +0.000 A 
ATOM     13  N   UNL     1       2.505   8.995  17.978  0.00  0.00    +0.000 N 
ATOM     14  C   UNL     1       2.940   6.744  18.900  0.00  0.00    +0.000 A 
ATOM     15  H   UNL     1       0.977   6.930  21.406  0.00  0.00    +0.000 HD
ATOM     16  H   UNL     1       1.872   9.783  18.097  0.00  0.00    +0.000 HD
ATOM     17  H   UNL     1       2.569   8.738  16.999  0.00  0.00    +0.000 HD
ENDROOT
BRANCH   1  18
ATOM     18  N   UNL     1       4.380   6.493  16.878  0.00  0.00    +0.000 N 
ATOM     19  H   UNL     1       3.755   7.087  16.355  0.00  0.00    +0.000 HD
BRANCH  18  26
ATOM     20  C   UNL     1       7.280   6.700  17.361  0.00  0.00    +0.000 C 
ATOM     21  C   UNL     1       6.683   5.859  16.267  0.00  0.00    +0.000 A 
ATOM     22  C   UNL     1       7.550   5.128  15.433  0.00  0.00    +0.000 A 
ATOM     23  C   UNL     1       7.057   4.306  14.419  0.00  0.00    +0.000 A 
ATOM     24  C   UNL     1       5.688   4.207  14.221  0.00  0.00    +0.000 A 
ATOM     25  C   UNL     1       4.822   4.935  15.033  0.00  0.00    +0.000 A 
ATOM     26  C   UNL     1       5.290   5.777  16.060  0.00  0.00    +0.000 A 
ENDBRANCH  18  26
ENDBRANCH   1  18
TORSDOF 2
ENDMDL
MODEL 9
REMARK VINA RESULT:      -7.3      3.676      6.841
REMARK  Name = 
REMARK  3 active torsions:
REMARK  status: ('A' for Active; 'I' for Inactive)
REMARK    1  A    between atoms: C_1  and  C_2
REMARK    2  A    between atoms: C_7  and  N_8
REMARK    3  A    between atoms: N_8  and  C_9
REMARK                            x       y       z     vdW  Elec       q    Type
REMARK                         _______ _______ _______ _____ _____    ______ ____
ROOT
ATOM      1  C   UNL     1       3.144   6.503  17.989  0.00  0.00    +0.000 A 
ATOM      2  N   UNL     1       2.804   7.781  17.639  0.00  0.00    +0.000 NA
ATOM      3  C   UNL     1       2.116   8.589  18.446  0.00  0.00    +0.000 A 
ATOM      4  C   UNL     1       1.895   9.900  18.047  0.00  0.00    +0.000 A 
ATOM      5  C   UNL     1       1.237  10.813  18.871  0.00  0.00    +0.000 A 
ATOM      6  C   UNL     1       0.770  10.416  20.120  0.00  0.00    +0.000 A 
ATOM      7  C   UNL     1       0.955   9.100  20.543  0.00  0.00    +0.000 A 
ATOM      8  C   UNL     1       1.636   8.193  19.703  0.00  0.00    +0.000 A 
ATOM      9  C   UNL     1       1.914   6.853  20.041  0.00  0.00    +0.000 A 
ATOM     10  N   UNL     1       1.606   6.103  21.144  0.00  0.00    +0.000 N 
ATOM     11  N   UNL     1       2.089   4.855  21.117  0.00  0.00    +0.000 NA
ATOM     12  C   UNL     1       2.739   4.792  19.959  0.00  0.00    +0.000 A 
ATOM     13  N   UNL     1       3.404   3.678  19.600  0.00  0.00    +0.000 N 
ATOM     14  C   UNL     1       2.656   6.001  19.216  0.00  0.00    +0.000 A 
ATOM     15  H   UNL     1       1.080   6.395  21.959  0.00  0.00    +0.000 HD
ATOM     16  H   UNL     1       3.443   2.978  20.339  0.00  0.00    +0.000 HD
ATOM     17  H   UNL     1       4.308   3.767  19.149  0.00  0.00    +0.000 HD
ENDROOT
BRANCH   1  18
ATOM     18  N   UNL     1       3.994   5.795  17.119  0.00  0.00    +0.000 N 
ATOM     19  H   UNL     1       3.518   5.113  16.548  0.00  0.00    +0.000 HD
BRANCH  18  26
ATOM     20  C   UNL     1       5.545   4.201  15.186  0.00  0.00    +0.000 C 
ATOM     21  C   UNL     1       6.105   4.687  16.494  0.00  0.00    +0.000 A 
ATOM     22  C   UNL     1       7.440   4.372  16.812  0.00  0.00    +0.000 A 
ATOM     23  C   UNL     1       8.027   4.818  17.996  0.00  0.00    +0.000 A 
ATOM     24  C   UNL     1       7.286   5.585  18.883  0.00  0.00    +0.000 A 
ATOM     25  C   UNL     1       5.962   5.893  18.583  0.00  0.00    +0.000 A 
ATOM     26  C   UNL     1       5.340   5.451  17.400  0.00  0.00    +0.000 A 
ENDBRANCH  18  26
ENDBRANCH   1  18
TORSDOF 2
ENDMDL
