MODEL 1
REMARK VINA RESULT:      -8.5      0.000      0.000
REMARK  Name = 
REMARK  4 active torsions:
REMARK  status: ('A' for Active; 'I' for Inactive)
REMARK    1  A    between atoms: C_1  and  C_2
REMARK    2  A    between atoms: C_7  and  N_8
REMARK    3  A    between atoms: C_12  and  C_14
REMARK    4  A    between atoms: C_19  and  N_20
REMARK                            x       y       z     vdW  Elec       q    Type
REMARK                         _______ _______ _______ _____ _____    ______ ____
ROOT
ATOM      1  N   UNL     1       2.651   6.848  19.234  0.00  0.00    +0.000 N 
ATOM      2  C   UNL     1       2.949   5.577  19.912  0.00  0.00    +0.000 C 
ATOM      3  C   UNL     1       3.106   4.463  18.836  0.00  0.00    +0.000 C 
ATOM      4  N   UNL     1       3.988   4.856  17.712  0.00  0.00    +0.000 N 
ATOM      5  C   UNL     1       4.697   3.861  17.030  0.00  0.00    +0.000 C 
ATOM      6  O   UNL     1       4.609   2.667  17.300  0.00  0.00    +0.000 OA
ATOM      7  C   UNL     1       3.774   6.227  17.212  0.00  0.00    +0.000 C 
ATOM      8  C   UNL     1       3.743   7.248  18.342  0.00  0.00    +0.000 C 
ENDROOT
BRANCH   1  15
ATOM      9  C   UNL     1       1.632   9.002  17.512  0.00  0.00    +0.000 C 
ATOM     10  C   UNL     1       1.448   8.959  19.013  0.00  0.00    +0.000 A 
ATOM     11  C   UNL     1       0.750  10.017  19.611  0.00  0.00    +0.000 A 
ATOM     12  C   UNL     1       0.478  10.006  20.967  0.00  0.00    +0.000 A 
ATOM     13  C   UNL     1       0.892   8.931  21.753  0.00  0.00    +0.000 A 
ATOM     14  C   UNL     1       1.604   7.883  21.173  0.00  0.00    +0.000 A 
ATOM     15  C   UNL     1       1.918   7.875  19.806  0.00  0.00    +0.000 A 
ENDBRANCH   1  15
BRANCH   5  16
ATOM     16  C   UNL     1       5.580   4.250  15.907  0.00  0.00    +0.000 A 
ATOM     17  C   UNL     1       5.265   3.784  14.621  0.00  0.00    +0.000 A 
ATOM     18  C   UNL     1       6.034   4.154  13.522  0.00  0.00    +0.000 A 
ATOM     19  C   UNL     1       7.176   4.890  13.754  0.00  0.00    +0.000 A 
ATOM     20  N   UNL     1       7.591   5.246  14.988  0.00  0.00    +0.000 NA
ATOM     21  C   UNL     1       6.781   4.944  16.056  0.00  0.00    +0.000 A 
BRANCH  21  22
ATOM     22  N   UNL     1       7.262   5.374  17.321  0.00  0.00    +0.000 N 
ATOM     23  C   UNL     1       7.464   6.684  17.690  0.00  0.00    +0.000 A 
ATOM     24  N   UNL     1       7.921   6.751  18.920  0.00  0.00    +0.000 NA
ATOM     25  C   UNL     1       7.945   5.443  19.294  0.00  0.00    +0.000 A 
ATOM     26  N   UNL     1       7.510   4.569  18.382  0.00  0.00    +0.000 NA
ENDBRANCH  21  22
ENDBRANCH   5  16
TORSDOF 3
ENDMDL
MODEL 2
REMARK VINA RESULT:      -8.0      0.612      1.425
REMARK  Name = 
REMARK  4 active torsions:
REMARK  status: ('A' for Active; 'I' for Inactive)
REMARK    1  A    between atoms: C_1  and  C_2
REMARK    2  A    between atoms: C_7  and  N_8
REMARK    3  A    between atoms: C_12  and  C_14
REMARK    4  A    between atoms: C_19  and  N_20
REMARK                            x       y       z     vdW  Elec       q    Type
REMARK                         _______ _______ _______ _____ _____    ______ ____
ROOT
ATOM      1  N   UNL     1       2.588   7.434  18.557  0.00  0.00    +0.000 N 
ATOM      2  C   UNL     1       2.807   6.244  19.393  0.00  0.00    +0.000 C 
ATOM      3  C   UNL     1       2.993   5.009  18.463  0.00  0.00    +0.000 C 
ATOM      4  N   UNL     1       3.950   5.248  17.357  0.00  0.00    +0.000 N 
ATOM      5  C   UNL     1       4.667   4.164  16.838  0.00  0.00    +0.000 C 
ATOM      6  O   UNL     1       4.527   3.011  17.238  0.00  0.00    +0.000 OA
ATOM      7  C   UNL     1       3.806   6.555  16.691  0.00  0.00    +0.000 C 
ATOM      8  C   UNL     1       3.741   7.702  17.693  0.00  0.00    +0.000 C 
ENDROOT
BRANCH   1  15
ATOM      9  C   UNL     1       1.418   7.456  21.253  0.00  0.00    +0.000 C 
ATOM     10  C   UNL     1       1.233   8.565  20.241  0.00  0.00    +0.000 A 
ATOM     11  C   UNL     1       0.452   9.665  20.620  0.00  0.00    +0.000 A 
ATOM     12  C   UNL     1       0.303  10.749  19.775  0.00  0.00    +0.000 A 
ATOM     13  C   UNL     1       0.939  10.759  18.534  0.00  0.00    +0.000 A 
ATOM     14  C   UNL     1       1.703   9.663  18.139  0.00  0.00    +0.000 A 
ATOM     15  C   UNL     1       1.854   8.537  18.961  0.00  0.00    +0.000 A 
ENDBRANCH   1  15
BRANCH   5  16
ATOM     16  C   UNL     1       5.624   4.398  15.734  0.00  0.00    +0.000 A 
ATOM     17  C   UNL     1       5.329   3.860  14.472  0.00  0.00    +0.000 A 
ATOM     18  C   UNL     1       6.171   4.085  13.388  0.00  0.00    +0.000 A 
ATOM     19  C   UNL     1       7.356   4.751  13.620  0.00  0.00    +0.000 A 
ATOM     20  N   UNL     1       7.744   5.169  14.843  0.00  0.00    +0.000 NA
ATOM     21  C   UNL     1       6.868   5.011  15.890  0.00  0.00    +0.000 A 
BRANCH  21  22
ATOM     22  N   UNL     1       7.326   5.501  17.141  0.00  0.00    +0.000 N 
ATOM     23  C   UNL     1       7.535   6.826  17.447  0.00  0.00    +0.000 A 
ATOM     24  N   UNL     1       7.965   6.952  18.682  0.00  0.00    +0.000 NA
ATOM     25  C   UNL     1       7.966   5.664  19.123  0.00  0.00    +0.000 A 
ATOM     26  N   UNL     1       7.542   4.748  18.247  0.00  0.00    +0.000 NA
ENDBRANCH  21  22
ENDBRANCH   5  16
TORSDOF 3
ENDMDL
MODEL 3
REMARK VINA RESULT:      -8.0      2.441      4.541
REMARK  Name = 
REMARK  4 active torsions:
REMARK  status: ('A' for Active; 'I' for Inactive)
REMARK    1  A    between atoms: C_1  and  C_2
REMARK    2  A    between atoms: C_7  and  N_8
REMARK    3  A    between atoms: C_12  and  C_14
REMARK    4  A    between atoms: C_19  and  N_20
REMARK                            x       y       z     vdW  Elec       q    Type
REMARK                         _______ _______ _______ _____ _____    ______ ____
ROOT
ATOM      1  N   UNL     1       1.217  10.004  19.166  0.00  0.00    +0.000 N 
ATOM      2  C   UNL     1       1.561   9.464  20.490  0.00  0.00    +0.000 C 
ATOM      3  C   UNL     1       1.583   7.910  20.403  0.00  0.00    +0.000 C 
ATOM      4  N   UNL     1       2.349   7.399  19.241  0.00  0.00    +0.000 N 
ATOM      5  C   UNL     1       2.964   6.146  19.335  0.00  0.00    +0.000 C 
ATOM      6  O   UNL     1       2.882   5.429  20.328  0.00  0.00    +0.000 OA
ATOM      7  C   UNL     1       2.109   8.125  17.980  0.00  0.00    +0.000 C 
ATOM      8  C   UNL     1       2.217   9.634  18.160  0.00  0.00    +0.000 C 
ENDROOT
BRANCH   1  15
ATOM      9  C   UNL     1      -1.529   9.992  18.117  0.00  0.00    +0.000 C 
ATOM     10  C   UNL     1      -0.744  11.249  18.420  0.00  0.00    +0.000 A 
ATOM     11  C   UNL     1      -1.372  12.479  18.180  0.00  0.00    +0.000 A 
ATOM     12  C   UNL     1      -0.744  13.667  18.506  0.00  0.00    +0.000 A 
ATOM     13  C   UNL     1       0.524  13.650  19.085  0.00  0.00    +0.000 A 
ATOM     14  C   UNL     1       1.166  12.434  19.310  0.00  0.00    +0.000 A 
ATOM     15  C   UNL     1       0.568  11.212  18.970  0.00  0.00    +0.000 A 
ENDBRANCH   1  15
BRANCH   5  16
ATOM     16  C   UNL     1       3.731   5.633  18.177  0.00  0.00    +0.000 A 
ATOM     17  C   UNL     1       4.614   6.507  17.525  0.00  0.00    +0.000 A 
ATOM     18  C   UNL     1       5.391   6.067  16.458  0.00  0.00    +0.000 A 
ATOM     19  C   UNL     1       5.181   4.787  15.992  0.00  0.00    +0.000 A 
ATOM     20  N   UNL     1       4.248   3.957  16.502  0.00  0.00    +0.000 NA
ATOM     21  C   UNL     1       3.542   4.374  17.605  0.00  0.00    +0.000 A 
BRANCH  21  22
ATOM     22  N   UNL     1       2.599   3.440  18.110  0.00  0.00    +0.000 N 
ATOM     23  C   UNL     1       2.893   2.386  18.943  0.00  0.00    +0.000 A 
ATOM     24  N   UNL     1       1.807   1.704  19.226  0.00  0.00    +0.000 NA
ATOM     25  C   UNL     1       0.843   2.408  18.572  0.00  0.00    +0.000 A 
ATOM     26  N   UNL     1       1.259   3.498  17.920  0.00  0.00    +0.000 NA
ENDBRANCH  21  22
ENDBRANCH   5  16
TORSDOF 3
ENDMDL
MODEL 4
REMARK VINA RESULT:      -7.9      1.975      3.743
REMARK  Name = 
REMARK  4 active torsions:
REMARK  status: ('A' for Active; 'I' for Inactive)
REMARK    1  A    between atoms: C_1  and  C_2
REMARK    2  A    between atoms: C_7  and  N_8
REMARK    3  A    between atoms: C_12  and  C_14
REMARK    4  A    between atoms: C_19  and  N_20
REMARK                            x       y       z     vdW  Elec       q    Type
REMARK                         _______ _______ _______ _____ _____    ______ ____
ROOT
ATOM      1  N   UNL     1       1.103   8.915  20.216  0.00  0.00    +0.000 N 
ATOM      2  C   UNL     1       1.234   9.062  18.758  0.00  0.00    +0.000 C 
ATOM      3  C   UNL     1       2.528   8.331  18.298  0.00  0.00    +0.000 C 
ATOM      4  N   UNL     1       2.660   6.965  18.857  0.00  0.00    +0.000 N 
ATOM      5  C   UNL     1       3.365   6.001  18.127  0.00  0.00    +0.000 C 
ATOM      6  O   UNL     1       3.906   6.235  17.050  0.00  0.00    +0.000 OA
ATOM      7  C   UNL     1       2.314   6.849  20.285  0.00  0.00    +0.000 C 
ATOM      8  C   UNL     1       0.976   7.507  20.604  0.00  0.00    +0.000 C 
ENDROOT
BRANCH   1  15
ATOM      9  C   UNL     1       1.195  11.762  19.492  0.00  0.00    +0.000 C 
ATOM     10  C   UNL     1       0.528  11.227  20.739  0.00  0.00    +0.000 A 
ATOM     11  C   UNL     1      -0.079  12.154  21.598  0.00  0.00    +0.000 A 
ATOM     12  C   UNL     1      -0.773  11.730  22.717  0.00  0.00    +0.000 A 
ATOM     13  C   UNL     1      -0.881  10.368  22.996  0.00  0.00    +0.000 A 
ATOM     14  C   UNL     1      -0.266   9.439  22.160  0.00  0.00    +0.000 A 
ATOM     15  C   UNL     1       0.466   9.836  21.031  0.00  0.00    +0.000 A 
ENDBRANCH   1  15
BRANCH   5  16
ATOM     16  C   UNL     1       3.498   4.635  18.682  0.00  0.00    +0.000 A 
ATOM     17  C   UNL     1       2.329   3.945  19.038  0.00  0.00    +0.000 A 
ATOM     18  C   UNL     1       2.391   2.643  19.524  0.00  0.00    +0.000 A 
ATOM     19  C   UNL     1       3.638   2.100  19.753  0.00  0.00    +0.000 A 
ATOM     20  N   UNL     1       4.788   2.776  19.553  0.00  0.00    +0.000 NA
ATOM     21  C   UNL     1       4.716   4.031  18.998  0.00  0.00    +0.000 A 
BRANCH  21  22
ATOM     22  N   UNL     1       5.964   4.673  18.786  0.00  0.00    +0.000 N 
ATOM     23  C   UNL     1       6.669   4.665  17.605  0.00  0.00    +0.000 A 
ATOM     24  N   UNL     1       7.788   5.342  17.731  0.00  0.00    +0.000 NA
ATOM     25  C   UNL     1       7.711   5.795  19.013  0.00  0.00    +0.000 A 
ATOM     26  N   UNL     1       6.605   5.460  19.683  0.00  0.00    +0.000 NA
ENDBRANCH  21  22
ENDBRANCH   5  16
TORSDOF 3
ENDMDL
MODEL 5
REMARK VINA RESULT:      -7.8      2.273      4.177
REMARK  Name = 
REMARK  4 active torsions:
REMARK  status: ('A' for Active; 'I' for Inactive)
REMARK    1  A    between atoms: C_1  and  C_2
REMARK    2  A    between atoms: C_7  and  N_8
REMARK    3  A    between atoms: C_12  and  C_14
REMARK    4  A    between atoms: C_19  and  N_20
REMARK                            x       y       z     vdW  Elec       q    Type
REMARK                         _______ _______ _______ _____ _____    ______ ____
ROOT
ATOM      1  N   UNL     1       0.803   9.457  18.956  0.00  0.00    +0.000 N 
ATOM      2  C   UNL     1       1.426   9.109  20.243  0.00  0.00    +0.000 C 
ATOM      3  C   UNL     1       1.824   7.605  20.213  0.00  0.00    +0.000 C 
ATOM      4  N   UNL     1       2.550   7.216  18.981  0.00  0.00    +0.000 N 
ATOM      5  C   UNL     1       3.465   6.159  19.040  0.00  0.00    +0.000 C 
ATOM      6  O   UNL     1       3.683   5.515  20.062  0.00  0.00    +0.000 OA
ATOM      7  C   UNL     1       1.989   7.772  17.735  0.00  0.00    +0.000 C 
ATOM      8  C   UNL     1       1.737   9.271  17.842  0.00  0.00    +0.000 C 
ENDROOT
BRANCH   1  15
ATOM      9  C   UNL     1       1.627  12.264  19.240  0.00  0.00    +0.000 C 
ATOM     10  C   UNL     1       0.205  11.822  18.979  0.00  0.00    +0.000 A 
ATOM     11  C   UNL     1      -0.775  12.818  18.870  0.00  0.00    +0.000 A 
ATOM     12  C   UNL     1      -2.081  12.492  18.556  0.00  0.00    +0.000 A 
ATOM     13  C   UNL     1      -2.435  11.162  18.337  0.00  0.00    +0.000 A 
ATOM     14  C   UNL     1      -1.474  10.160  18.462  0.00  0.00    +0.000 A 
ATOM     15  C   UNL     1      -0.146  10.454  18.802  0.00  0.00    +0.000 A 
ENDBRANCH   1  15
BRANCH   5  16
ATOM     16  C   UNL     1       4.192   5.768  17.811  0.00  0.00    +0.000 A 
ATOM     17  C   UNL     1       4.949   6.746  17.147  0.00  0.00    +0.000 A 
ATOM     18  C   UNL     1       5.687   6.425  16.012  0.00  0.00    +0.000 A 
ATOM     19  C   UNL     1       5.557   5.152  15.499  0.00  0.00    +0.000 A 
ATOM     20  N   UNL     1       4.737   4.220  16.026  0.00  0.00    +0.000 NA
ATOM     21  C   UNL     1       4.076   4.523  17.192  0.00  0.00    +0.000 A 
BRANCH  21  22
ATOM     22  N   UNL     1       3.255   3.487  17.710  0.00  0.00    +0.000 N 
ATOM     23  C   UNL     1       3.695   2.435  18.478  0.00  0.00    +0.000 A 
ATOM     24  N   UNL     1       2.695   1.644  18.794  0.00  0.00    +0.000 NA
ATOM     25  C   UNL     1       1.631   2.278  18.228  0.00  0.00    +0.000 A 
ATOM     26  N   UNL     1       1.906   3.426  17.601  0.00  0.00    +0.000 NA
ENDBRANCH  21  22
ENDBRANCH   5  16
TORSDOF 3
ENDMDL
MODEL 6
REMARK VINA RESULT:      -7.5      1.990      3.929
REMARK  Name = 
REMARK  4 active torsions:
REMARK  status: ('A' for Active; 'I' for Inactive)
REMARK    1  A    between atoms: C_1  and  C_2
REMARK    2  A    between atoms: C_7  and  N_8
REMARK    3  A    between atoms: C_12  and  C_14
REMARK    4  A    between atoms: C_19  and  N_20
REMARK                            x       y       z     vdW  Elec       q    Type
REMARK                         _______ _______ _______ _____ _____    ______ ____
ROOT
ATOM      1  N   UNL     1       1.017   9.121  19.667  0.00  0.00    +0.000 N 
ATOM      2  C   UNL     1       1.327   9.210  18.232  0.00  0.00    +0.000 C 
ATOM      3  C   UNL     1       2.660   8.452  17.962  0.00  0.00    +0.000 C 
ATOM      4  N   UNL     1       2.705   7.108  18.585  0.00  0.00    +0.000 N 
ATOM      5  C   UNL     1       3.483   6.110  17.986  0.00  0.00    +0.000 C 
ATOM      6  O   UNL     1       4.154   6.298  16.975  0.00  0.00    +0.000 OA
ATOM      7  C   UNL     1       2.185   7.052  19.964  0.00  0.00    +0.000 C 
ATOM      8  C   UNL     1       0.827   7.731  20.089  0.00  0.00    +0.000 C 
ENDROOT
BRANCH   1  15
ATOM      9  C   UNL     1       1.311   9.287  22.587  0.00  0.00    +0.000 C 
ATOM     10  C   UNL     1       0.375  10.159  21.779  0.00  0.00    +0.000 A 
ATOM     11  C   UNL     1      -0.397  11.099  22.475  0.00  0.00    +0.000 A 
ATOM     12  C   UNL     1      -1.216  11.981  21.795  0.00  0.00    +0.000 A 
ATOM     13  C   UNL     1      -1.275  11.947  20.402  0.00  0.00    +0.000 A 
ATOM     14  C   UNL     1      -0.526  11.004  19.701  0.00  0.00    +0.000 A 
ATOM     15  C   UNL     1       0.296  10.079  20.361  0.00  0.00    +0.000 A 
ENDBRANCH   1  15
BRANCH   5  16
ATOM     16  C   UNL     1       3.530   4.767  18.605  0.00  0.00    +0.000 A 
ATOM     17  C   UNL     1       2.317   4.151  18.950  0.00  0.00    +0.000 A 
ATOM     18  C   UNL     1       2.299   2.871  19.495  0.00  0.00    +0.000 A 
ATOM     19  C   UNL     1       3.509   2.280  19.791  0.00  0.00    +0.000 A 
ATOM     20  N   UNL     1       4.698   2.890  19.602  0.00  0.00    +0.000 NA
ATOM     21  C   UNL     1       4.705   4.120  18.990  0.00  0.00    +0.000 A 
BRANCH  21  22
ATOM     22  N   UNL     1       5.990   4.691  18.792  0.00  0.00    +0.000 N 
ATOM     23  C   UNL     1       6.749   4.562  17.653  0.00  0.00    +0.000 A 
ATOM     24  N   UNL     1       7.890   5.200  17.784  0.00  0.00    +0.000 NA
ATOM     25  C   UNL     1       7.773   5.754  19.022  0.00  0.00    +0.000 A 
ATOM     26  N   UNL     1       6.622   5.519  19.658  0.00  0.00    +0.000 NA
ENDBRANCH  21  22
ENDBRANCH   5  16
TORSDOF 3
ENDMDL
MODEL 7
REMARK VINA RESULT:      -7.5      2.031      3.828
REMARK  Name = 
REMARK  4 active torsions:
REMARK  status: ('A' for Active; 'I' for Inactive)
REMARK    1  A    between atoms: C_1  and  C_2
REMARK    2  A    between atoms: C_7  and  N_8
REMARK    3  A    between atoms: C_12  and  C_14
REMARK    4  A    between atoms: C_19  and  N_20
REMARK                            x       y       z     vdW  Elec       q    Type
REMARK                         _______ _______ _______ _____ _____    ______ ____
ROOT
ATOM      1  N   UNL     1       1.129   9.286  19.342  0.00  0.00    +0.000 N 
ATOM      2  C   UNL     1       1.433   9.235  17.903  0.00  0.00    +0.000 C 
ATOM      3  C   UNL     1       2.745   8.423  17.700  0.00  0.00    +0.000 C 
ATOM      4  N   UNL     1       2.761   7.140  18.443  0.00  0.00    +0.000 N 
ATOM      5  C   UNL     1       3.510   6.073  17.935  0.00  0.00    +0.000 C 
ATOM      6  O   UNL     1       4.181   6.151  16.909  0.00  0.00    +0.000 OA
ATOM      7  C   UNL     1       2.246   7.223  19.823  0.00  0.00    +0.000 C 
ATOM      8  C   UNL     1       0.906   7.945  19.890  0.00  0.00    +0.000 C 
ENDROOT
BRANCH   1  15
ATOM      9  C   UNL     1      -1.405  10.189  18.156  0.00  0.00    +0.000 C 
ATOM     10  C   UNL     1      -0.770  10.817  19.378  0.00  0.00    +0.000 A 
ATOM     11  C   UNL     1      -1.436  11.897  19.972  0.00  0.00    +0.000 A 
ATOM     12  C   UNL     1      -0.955  12.470  21.135  0.00  0.00    +0.000 A 
ATOM     13  C   UNL     1       0.201  11.969  21.732  0.00  0.00    +0.000 A 
ATOM     14  C   UNL     1       0.883  10.909  21.139  0.00  0.00    +0.000 A 
ATOM     15  C   UNL     1       0.436  10.320  19.948  0.00  0.00    +0.000 A 
ENDBRANCH   1  15
BRANCH   5  16
ATOM     16  C   UNL     1       3.527   4.791  18.674  0.00  0.00    +0.000 A 
ATOM     17  C   UNL     1       2.302   4.240  19.078  0.00  0.00    +0.000 A 
ATOM     18  C   UNL     1       2.255   3.016  19.738  0.00  0.00    +0.000 A 
ATOM     19  C   UNL     1       3.451   2.424  20.082  0.00  0.00    +0.000 A 
ATOM     20  N   UNL     1       4.654   2.983  19.833  0.00  0.00    +0.000 NA
ATOM     21  C   UNL     1       4.688   4.152  19.111  0.00  0.00    +0.000 A 
BRANCH  21  22
ATOM     22  N   UNL     1       5.986   4.669  18.858  0.00  0.00    +0.000 N 
ATOM     23  C   UNL     1       6.704   4.479  17.700  0.00  0.00    +0.000 A 
ATOM     24  N   UNL     1       7.870   5.079  17.776  0.00  0.00    +0.000 NA
ATOM     25  C   UNL     1       7.813   5.672  19.000  0.00  0.00    +0.000 A 
ATOM     26  N   UNL     1       6.674   5.499  19.678  0.00  0.00    +0.000 NA
ENDBRANCH  21  22
ENDBRANCH   5  16
TORSDOF 3
ENDMDL
MODEL 8
REMARK VINA RESULT:      -7.4      2.205      4.624
REMARK  Name = 
REMARK  4 active torsions:
REMARK  status: ('A' for Active; 'I' for Inactive)
REMARK    1  A    between atoms: C_1  and  C_2
REMARK    2  A    between atoms: C_7  and  N_8
REMARK    3  A    between atoms: C_12  and  C_14
REMARK    4  A    between atoms: C_19  and  N_20
REMARK                            x       y       z     vdW  Elec       q    Type
REMARK                         _______ _______ _______ _____ _____    ______ ____
ROOT
ATOM      1  N   UNL     1       0.835   9.882  20.286  0.00  0.00    +0.000 N 
ATOM      2  C   UNL     1       0.829   9.747  18.821  0.00  0.00    +0.000 C 
ATOM      3  C   UNL     1       1.992   8.800  18.403  0.00  0.00    +0.000 C 
ATOM      4  N   UNL     1       2.044   7.551  19.200  0.00  0.00    +0.000 N 
ATOM      5  C   UNL     1       2.572   6.396  18.613  0.00  0.00    +0.000 C 
ATOM      6  O   UNL     1       3.021   6.367  17.470  0.00  0.00    +0.000 OA
ATOM      7  C   UNL     1       1.835   7.737  20.648  0.00  0.00    +0.000 C 
ATOM      8  C   UNL     1       0.609   8.592  20.943  0.00  0.00    +0.000 C 
ENDROOT
BRANCH   1  15
ATOM      9  C   UNL     1       1.912  12.519  19.559  0.00  0.00    +0.000 C 
ATOM     10  C   UNL     1       0.910  12.290  20.668  0.00  0.00    +0.000 A 
ATOM     11  C   UNL     1       0.476  13.410  21.391  0.00  0.00    +0.000 A 
ATOM     12  C   UNL     1      -0.496  13.287  22.367  0.00  0.00    +0.000 A 
ATOM     13  C   UNL     1      -1.060  12.041  22.637  0.00  0.00    +0.000 A 
ATOM     14  C   UNL     1      -0.622  10.917  21.939  0.00  0.00    +0.000 A 
ATOM     15  C   UNL     1       0.378  11.003  20.959  0.00  0.00    +0.000 A 
ENDBRANCH   1  15
BRANCH   5  16
ATOM     16  C   UNL     1       2.625   5.147  19.405  0.00  0.00    +0.000 A 
ATOM     17  C   UNL     1       1.524   4.824  20.213  0.00  0.00    +0.000 A 
ATOM     18  C   UNL     1       1.501   3.642  20.945  0.00  0.00    +0.000 A 
ATOM     19  C   UNL     1       2.637   2.861  20.943  0.00  0.00    +0.000 A 
ATOM     20  N   UNL     1       3.768   3.199  20.290  0.00  0.00    +0.000 NA
ATOM     21  C   UNL     1       3.751   4.328  19.506  0.00  0.00    +0.000 A 
BRANCH  21  22
ATOM     22  N   UNL     1       4.963   4.609  18.822  0.00  0.00    +0.000 N 
ATOM     23  C   UNL     1       6.002   5.358  19.322  0.00  0.00    +0.000 A 
ATOM     24  N   UNL     1       6.976   5.439  18.445  0.00  0.00    +0.000 NA
ATOM     25  C   UNL     1       6.509   4.677  17.419  0.00  0.00    +0.000 A 
ATOM     26  N   UNL     1       5.315   4.109  17.613  0.00  0.00    +0.000 NA
ENDBRANCH  21  22
ENDBRANCH   5  16
TORSDOF 3
ENDMDL
MODEL 9
REMARK VINA RESULT:      -7.4      3.617      8.057
REMARK  Name = 
REMARK  4 active torsions:
REMARK  status: ('A' for Active; 'I' for Inactive)
REMARK    1  A    between atoms: C_1  and  C_2
REMARK    2  A    between atoms: C_7  and  N_8
REMARK    3  A    between atoms: C_12  and  C_14
REMARK    4  A    between atoms: C_19  and  N_20
REMARK                            x       y       z     vdW  Elec       q    Type
REMARK                         _______ _______ _______ _____ _____    ______ ____
ROOT
ATOM      1  N   UNL     1       3.136   6.938  18.347  0.00  0.00    +0.000 N 
ATOM      2  C   UNL     1       2.551   6.542  19.638  0.00  0.00    +0.000 C 
ATOM      3  C   UNL     1       2.056   7.821  20.374  0.00  0.00    +0.000 C 
ATOM      4  N   UNL     1       1.253   8.720  19.511  0.00  0.00    +0.000 N 
ATOM      5  C   UNL     1       0.276   9.529  20.102  0.00  0.00    +0.000 C 
ATOM      6  O   UNL     1       0.063   9.553  21.311  0.00  0.00    +0.000 OA
ATOM      7  C   UNL     1       1.793   8.911  18.152  0.00  0.00    +0.000 C 
ATOM      8  C   UNL     1       2.144   7.587  17.486  0.00  0.00    +0.000 C 
ENDROOT
BRANCH   1  15
ATOM      9  C   UNL     1       2.636   4.149  17.567  0.00  0.00    +0.000 C 
ATOM     10  C   UNL     1       3.952   4.865  17.354  0.00  0.00    +0.000 A 
ATOM     11  C   UNL     1       4.991   4.145  16.750  0.00  0.00    +0.000 A 
ATOM     12  C   UNL     1       6.195   4.758  16.454  0.00  0.00    +0.000 A 
ATOM     13  C   UNL     1       6.382   6.107  16.751  0.00  0.00    +0.000 A 
ATOM     14  C   UNL     1       5.363   6.828  17.370  0.00  0.00    +0.000 A 
ATOM     15  C   UNL     1       4.139   6.231  17.705  0.00  0.00    +0.000 A 
ENDBRANCH   1  15
BRANCH   5  16
ATOM     16  C   UNL     1      -0.528  10.427  19.243  0.00  0.00    +0.000 A 
ATOM     17  C   UNL     1      -1.494   9.854  18.403  0.00  0.00    +0.000 A 
ATOM     18  C   UNL     1      -2.309  10.653  17.606  0.00  0.00    +0.000 A 
ATOM     19  C   UNL     1      -2.056  12.008  17.583  0.00  0.00    +0.000 A 
ATOM     20  N   UNL     1      -1.051  12.587  18.271  0.00  0.00    +0.000 NA
ATOM     21  C   UNL     1      -0.305  11.799  19.115  0.00  0.00    +0.000 A 
BRANCH  21  22
ATOM     22  N   UNL     1       0.716  12.477  19.833  0.00  0.00    +0.000 N 
ATOM     23  C   UNL     1       0.575  13.023  21.087  0.00  0.00    +0.000 A 
ATOM     24  N   UNL     1       1.698  13.586  21.473  0.00  0.00    +0.000 NA
ATOM     25  C   UNL     1       2.531  13.321  20.430  0.00  0.00    +0.000 A 
ATOM     26  N   UNL     1       2.002  12.609  19.430  0.00  0.00    +0.000 NA
ENDBRANCH  21  22
ENDBRANCH   5  16
TORSDOF 3
ENDMDL
