MODEL 1
REMARK VINA RESULT:      -8.1      0.000      0.000
REMARK  Name = 
REMARK  12 active torsions:
REMARK  status: ('A' for Active; 'I' for Inactive)
REMARK    1  A    between atoms: C_1  and  O_2
REMARK    2  A    between atoms: O_2  and  C_3
REMARK    3  A    between atoms: C_6  and  C_7
REMARK    4  A    between atoms: C_7  and  N_8
REMARK    5  A    between atoms: N_8  and  C_9
REMARK    6  A    between atoms: C_9  and  C_10
REMARK    7  A    between atoms: C_10  and  O_11
REMARK    8  A    between atoms: O_11  and  C_12
REMARK    9  A    between atoms: N_20  and  S_21
REMARK   10  A    between atoms: S_21  and  C_24
REMARK   11  A    between atoms: C_31  and  O_32
REMARK   12  A    between atoms: O_32  and  C_33
REMARK                            x       y       z     vdW  Elec       q    Type
REMARK                         _______ _______ _______ _____ _____    ______ ____
ROOT
ATOM      1  C   UNL     1       6.810   4.421  17.203  0.00  0.00    +0.000 A 
ATOM      2  C   UNL     1       7.094   4.647  15.846  0.00  0.00    +0.000 A 
ATOM      3  C   UNL     1       6.132   5.232  15.016  0.00  0.00    +0.000 A 
ATOM      4  C   UNL     1       4.904   5.674  15.539  0.00  0.00    +0.000 A 
ATOM      5  C   UNL     1       4.601   5.289  16.869  0.00  0.00    +0.000 A 
ATOM      6  C   UNL     1       5.420   4.299  17.456  0.00  0.00    +0.000 A 
ATOM      7  C   UNL     1       4.477   3.183  17.282  0.00  0.00    +0.000 A 
ATOM      8  C   UNL     1       3.186   3.707  17.243  0.00  0.00    +0.000 A 
ATOM      9  N   UNL     1       3.386   5.053  17.521  0.00  0.00    +0.000 N 
ENDROOT
BRANCH   9  10
ATOM     10  S   UNL     1       3.208   5.529  19.233  0.00  0.00    +0.000 S 
ATOM     11  O   UNL     1       2.336   4.539  19.844  0.00  0.00    +0.000 OA
ATOM     12  O   UNL     1       4.548   5.783  19.703  0.00  0.00    +0.000 OA
BRANCH  10  13
ATOM     13  C   UNL     1       2.348   7.073  19.178  0.00  0.00    +0.000 A 
ATOM     14  C   UNL     1       1.767   7.607  20.329  0.00  0.00    +0.000 A 
ATOM     15  C   UNL     1       1.153   8.856  20.277  0.00  0.00    +0.000 A 
ATOM     16  C   UNL     1       1.139   9.575  19.074  0.00  0.00    +0.000 A 
ATOM     17  C   UNL     1       1.749   9.049  17.934  0.00  0.00    +0.000 A 
ATOM     18  C   UNL     1       2.361   7.793  17.988  0.00  0.00    +0.000 A 
ENDBRANCH  10  13
ENDBRANCH   9  10
BRANCH   1  19
ATOM     19  O   UNL     1       7.645   5.263  17.975  0.00  0.00    +0.000 OA
BRANCH  19  20
ATOM     20  C   UNL     1       7.111   6.566  18.237  0.00  0.00    +0.000 C 
BRANCH  20  21
ATOM     21  C   UNL     1       7.798   7.595  17.302  0.00  0.00    +0.000 C 
BRANCH  21  22
ATOM     22  N   UNL     1       7.829   8.948  17.882  0.00  0.00    +0.000 NA
ATOM     23  H   UNL     1       8.011   9.621  17.136  0.00  0.00    +0.000 HD
BRANCH  22  24
ATOM     24  C   UNL     1       8.873   9.097  18.903  0.00  0.00    +0.000 C 
BRANCH  24  28
ATOM     25  C   UNL     1       9.860  13.317  19.335  0.00  0.00    +0.000 A 
ATOM     26  C   UNL     1       9.805  12.715  18.067  0.00  0.00    +0.000 A 
ATOM     27  C   UNL     1       9.510  11.355  17.928  0.00  0.00    +0.000 A 
ATOM     28  C   UNL     1       9.297  10.553  19.058  0.00  0.00    +0.000 A 
ATOM     29  C   UNL     1       9.431  11.144  20.320  0.00  0.00    +0.000 A 
ATOM     30  C   UNL     1       9.723  12.520  20.477  0.00  0.00    +0.000 A 
BRANCH  25  32
ATOM     31  C   UNL     1       8.906  15.480  19.492  0.00  0.00    +0.000 C 
ATOM     32  O   UNL     1      10.077  14.666  19.465  0.00  0.00    +0.000 OA
ENDBRANCH  25  32
BRANCH  30  33
ATOM     33  O   UNL     1       9.811  12.881  21.797  0.00  0.00    +0.000 OA
ATOM     34  C   UNL     1       8.847  12.385  22.714  0.00  0.00    +0.000 C 
ENDBRANCH  30  33
ENDBRANCH  24  28
ENDBRANCH  22  24
ENDBRANCH  21  22
ENDBRANCH  20  21
ENDBRANCH  19  20
ENDBRANCH   1  19
TORSDOF 10
ENDMDL
MODEL 2
REMARK VINA RESULT:      -8.1      1.888      2.490
REMARK  Name = 
REMARK  12 active torsions:
REMARK  status: ('A' for Active; 'I' for Inactive)
REMARK    1  A    between atoms: C_1  and  O_2
REMARK    2  A    between atoms: O_2  and  C_3
REMARK    3  A    between atoms: C_6  and  C_7
REMARK    4  A    between atoms: C_7  and  N_8
REMARK    5  A    between atoms: N_8  and  C_9
REMARK    6  A    between atoms: C_9  and  C_10
REMARK    7  A    between atoms: C_10  and  O_11
REMARK    8  A    between atoms: O_11  and  C_12
REMARK    9  A    between atoms: N_20  and  S_21
REMARK   10  A    between atoms: S_21  and  C_24
REMARK   11  A    between atoms: C_31  and  O_32
REMARK   12  A    between atoms: O_32  and  C_33
REMARK                            x       y       z     vdW  Elec       q    Type
REMARK                         _______ _______ _______ _____ _____    ______ ____
ROOT
ATOM      1  C   UNL     1       7.038   4.527  16.989  0.00  0.00    +0.000 A 
ATOM      2  C   UNL     1       7.249   4.669  15.607  0.00  0.00    +0.000 A 
ATOM      3  C   UNL     1       6.251   5.223  14.798  0.00  0.00    +0.000 A 
ATOM      4  C   UNL     1       5.061   5.715  15.361  0.00  0.00    +0.000 A 
ATOM      5  C   UNL     1       4.826   5.413  16.726  0.00  0.00    +0.000 A 
ATOM      6  C   UNL     1       5.663   4.444  17.324  0.00  0.00    +0.000 A 
ATOM      7  C   UNL     1       4.696   3.337  17.267  0.00  0.00    +0.000 A 
ATOM      8  C   UNL     1       3.411   3.880  17.268  0.00  0.00    +0.000 A 
ATOM      9  N   UNL     1       3.646   5.236  17.456  0.00  0.00    +0.000 N 
ENDROOT
BRANCH   9  10
ATOM     10  S   UNL     1       3.570   5.814  19.144  0.00  0.00    +0.000 S 
ATOM     11  O   UNL     1       4.935   5.790  19.645  0.00  0.00    +0.000 OA
ATOM     12  O   UNL     1       2.776   7.017  19.104  0.00  0.00    +0.000 OA
BRANCH  10  13
ATOM     13  C   UNL     1       2.641   4.574  19.996  0.00  0.00    +0.000 A 
ATOM     14  C   UNL     1       1.284   4.390  19.727  0.00  0.00    +0.000 A 
ATOM     15  C   UNL     1       0.587   3.365  20.361  0.00  0.00    +0.000 A 
ATOM     16  C   UNL     1       1.257   2.514  21.250  0.00  0.00    +0.000 A 
ATOM     17  C   UNL     1       2.621   2.684  21.492  0.00  0.00    +0.000 A 
ATOM     18  C   UNL     1       3.318   3.717  20.857  0.00  0.00    +0.000 A 
ENDBRANCH  10  13
ENDBRANCH   9  10
BRANCH   1  19
ATOM     19  O   UNL     1       7.926   5.397  17.663  0.00  0.00    +0.000 OA
BRANCH  19  20
ATOM     20  C   UNL     1       7.340   6.619  18.126  0.00  0.00    +0.000 C 
BRANCH  20  21
ATOM     21  C   UNL     1       7.795   7.782  17.207  0.00  0.00    +0.000 C 
BRANCH  21  22
ATOM     22  N   UNL     1       7.812   9.077  17.907  0.00  0.00    +0.000 NA
ATOM     23  H   UNL     1       7.921   9.823  17.217  0.00  0.00    +0.000 HD
BRANCH  22  24
ATOM     24  C   UNL     1       8.911   9.179  18.874  0.00  0.00    +0.000 C 
BRANCH  24  28
ATOM     25  C   UNL     1      10.231  13.325  19.047  0.00  0.00    +0.000 A 
ATOM     26  C   UNL     1      10.460  12.542  17.903  0.00  0.00    +0.000 A 
ATOM     27  C   UNL     1      10.056  11.205  17.854  0.00  0.00    +0.000 A 
ATOM     28  C   UNL     1       9.444  10.604  18.963  0.00  0.00    +0.000 A 
ATOM     29  C   UNL     1       9.292  11.369  20.126  0.00  0.00    +0.000 A 
ATOM     30  C   UNL     1       9.690  12.726  20.188  0.00  0.00    +0.000 A 
BRANCH  25  32
ATOM     31  C   UNL     1      10.384  15.355  17.834  0.00  0.00    +0.000 C 
ATOM     32  O   UNL     1      10.563  14.657  19.065  0.00  0.00    +0.000 OA
ENDBRANCH  25  32
BRANCH  30  33
ATOM     33  O   UNL     1       9.450  13.277  21.422  0.00  0.00    +0.000 OA
ATOM     34  C   UNL     1       8.977  12.444  22.470  0.00  0.00    +0.000 C 
ENDBRANCH  30  33
ENDBRANCH  24  28
ENDBRANCH  22  24
ENDBRANCH  21  22
ENDBRANCH  20  21
ENDBRANCH  19  20
ENDBRANCH   1  19
TORSDOF 10
ENDMDL
MODEL 3
REMARK VINA RESULT:      -8.1      4.554      7.571
REMARK  Name = 
REMARK  12 active torsions:
REMARK  status: ('A' for Active; 'I' for Inactive)
REMARK    1  A    between atoms: C_1  and  O_2
REMARK    2  A    between atoms: O_2  and  C_3
REMARK    3  A    between atoms: C_6  and  C_7
REMARK    4  A    between atoms: C_7  and  N_8
REMARK    5  A    between atoms: N_8  and  C_9
REMARK    6  A    between atoms: C_9  and  C_10
REMARK    7  A    between atoms: C_10  and  O_11
REMARK    8  A    between atoms: O_11  and  C_12
REMARK    9  A    between atoms: N_20  and  S_21
REMARK   10  A    between atoms: S_21  and  C_24
REMARK   11  A    between atoms: C_31  and  O_32
REMARK   12  A    between atoms: O_32  and  C_33
REMARK                            x       y       z     vdW  Elec       q    Type
REMARK                         _______ _______ _______ _____ _____    ______ ____
ROOT
ATOM      1  C   UNL     1       1.030   3.508  20.001  0.00  0.00    +0.000 A 
ATOM      2  C   UNL     1       1.194   2.820  21.214  0.00  0.00    +0.000 A 
ATOM      3  C   UNL     1       2.467   2.404  21.619  0.00  0.00    +0.000 A 
ATOM      4  C   UNL     1       3.605   2.736  20.864  0.00  0.00    +0.000 A 
ATOM      5  C   UNL     1       3.379   3.291  19.579  0.00  0.00    +0.000 A 
ATOM      6  C   UNL     1       2.063   3.227  19.071  0.00  0.00    +0.000 A 
ATOM      7  C   UNL     1       2.294   2.092  18.163  0.00  0.00    +0.000 A 
ATOM      8  C   UNL     1       3.644   2.082  17.814  0.00  0.00    +0.000 A 
ATOM      9  N   UNL     1       4.126   3.248  18.397  0.00  0.00    +0.000 N 
ENDROOT
BRANCH   9  10
ATOM     10  S   UNL     1       4.169   4.686  17.339  0.00  0.00    +0.000 S 
ATOM     11  O   UNL     1       4.365   4.193  15.986  0.00  0.00    +0.000 OA
ATOM     12  O   UNL     1       3.026   5.479  17.722  0.00  0.00    +0.000 OA
BRANCH  10  13
ATOM     13  C   UNL     1       5.626   5.558  17.833  0.00  0.00    +0.000 A 
ATOM     14  C   UNL     1       6.422   5.082  18.876  0.00  0.00    +0.000 A 
ATOM     15  C   UNL     1       7.600   5.747  19.205  0.00  0.00    +0.000 A 
ATOM     16  C   UNL     1       7.988   6.877  18.473  0.00  0.00    +0.000 A 
ATOM     17  C   UNL     1       7.204   7.330  17.411  0.00  0.00    +0.000 A 
ATOM     18  C   UNL     1       6.018   6.663  17.086  0.00  0.00    +0.000 A 
ENDBRANCH  10  13
ENDBRANCH   9  10
BRANCH   1  19
ATOM     19  O   UNL     1       0.621   4.830  20.295  0.00  0.00    +0.000 OA
BRANCH  19  20
ATOM     20  C   UNL     1       1.645   5.672  20.839  0.00  0.00    +0.000 C 
BRANCH  20  21
ATOM     21  C   UNL     1       1.087   7.109  21.004  0.00  0.00    +0.000 C 
BRANCH  21  22
ATOM     22  N   UNL     1       2.016   8.133  20.497  0.00  0.00    +0.000 NA
ATOM     23  H   UNL     1       2.112   8.867  21.202  0.00  0.00    +0.000 HD
BRANCH  22  24
ATOM     24  C   UNL     1       1.547   8.749  19.251  0.00  0.00    +0.000 C 
BRANCH  24  28
ATOM     25  C   UNL     1      -1.376  11.892  19.990  0.00  0.00    +0.000 A 
ATOM     26  C   UNL     1      -0.847  11.685  18.705  0.00  0.00    +0.000 A 
ATOM     27  C   UNL     1       0.107  10.691  18.470  0.00  0.00    +0.000 A 
ATOM     28  C   UNL     1       0.587   9.900  19.524  0.00  0.00    +0.000 A 
ATOM     29  C   UNL     1       0.113  10.165  20.815  0.00  0.00    +0.000 A 
ATOM     30  C   UNL     1      -0.858  11.163  21.067  0.00  0.00    +0.000 A 
BRANCH  25  32
ATOM     31  C   UNL     1      -3.658  12.463  19.717  0.00  0.00    +0.000 C 
ATOM     32  O   UNL     1      -2.366  12.818  20.204  0.00  0.00    +0.000 OA
ENDBRANCH  25  32
BRANCH  30  33
ATOM     33  O   UNL     1      -1.172  11.252  22.399  0.00  0.00    +0.000 OA
ATOM     34  C   UNL     1      -0.779  10.203  23.272  0.00  0.00    +0.000 C 
ENDBRANCH  30  33
ENDBRANCH  24  28
ENDBRANCH  22  24
ENDBRANCH  21  22
ENDBRANCH  20  21
ENDBRANCH  19  20
ENDBRANCH   1  19
TORSDOF 10
ENDMDL
MODEL 4
REMARK VINA RESULT:      -8.0      4.198      7.897
REMARK  Name = 
REMARK  12 active torsions:
REMARK  status: ('A' for Active; 'I' for Inactive)
REMARK    1  A    between atoms: C_1  and  O_2
REMARK    2  A    between atoms: O_2  and  C_3
REMARK    3  A    between atoms: C_6  and  C_7
REMARK    4  A    between atoms: C_7  and  N_8
REMARK    5  A    between atoms: N_8  and  C_9
REMARK    6  A    between atoms: C_9  and  C_10
REMARK    7  A    between atoms: C_10  and  O_11
REMARK    8  A    between atoms: O_11  and  C_12
REMARK    9  A    between atoms: N_20  and  S_21
REMARK   10  A    between atoms: S_21  and  C_24
REMARK   11  A    between atoms: C_31  and  O_32
REMARK   12  A    between atoms: O_32  and  C_33
REMARK                            x       y       z     vdW  Elec       q    Type
REMARK                         _______ _______ _______ _____ _____    ______ ____
ROOT
ATOM      1  C   UNL     1       2.261   6.203  18.568  0.00  0.00    +0.000 A 
ATOM      2  C   UNL     1       1.907   5.904  19.894  0.00  0.00    +0.000 A 
ATOM      3  C   UNL     1       2.601   4.915  20.599  0.00  0.00    +0.000 A 
ATOM      4  C   UNL     1       3.707   4.265  20.024  0.00  0.00    +0.000 A 
ATOM      5  C   UNL     1       3.930   4.484  18.642  0.00  0.00    +0.000 A 
ATOM      6  C   UNL     1       2.897   5.117  17.915  0.00  0.00    +0.000 A 
ATOM      7  C   UNL     1       2.370   3.896  17.286  0.00  0.00    +0.000 A 
ATOM      8  C   UNL     1       3.406   2.966  17.205  0.00  0.00    +0.000 A 
ATOM      9  N   UNL     1       4.508   3.686  17.649  0.00  0.00    +0.000 N 
ENDROOT
BRANCH   9  10
ATOM     10  S   UNL     1       5.498   4.457  16.378  0.00  0.00    +0.000 S 
ATOM     11  O   UNL     1       6.267   3.390  15.757  0.00  0.00    +0.000 OA
ATOM     12  O   UNL     1       4.588   5.295  15.636  0.00  0.00    +0.000 OA
BRANCH  10  13
ATOM     13  C   UNL     1       6.613   5.509  17.259  0.00  0.00    +0.000 A 
ATOM     14  C   UNL     1       6.753   6.852  16.908  0.00  0.00    +0.000 A 
ATOM     15  C   UNL     1       7.586   7.678  17.658  0.00  0.00    +0.000 A 
ATOM     16  C   UNL     1       8.263   7.159  18.770  0.00  0.00    +0.000 A 
ATOM     17  C   UNL     1       8.094   5.822  19.134  0.00  0.00    +0.000 A 
ATOM     18  C   UNL     1       7.260   4.994  18.377  0.00  0.00    +0.000 A 
ENDBRANCH  10  13
ENDBRANCH   9  10
BRANCH   1  19
ATOM     19  O   UNL     1       2.791   7.515  18.537  0.00  0.00    +0.000 OA
BRANCH  19  20
ATOM     20  C   UNL     1       1.917   8.530  19.043  0.00  0.00    +0.000 C 
BRANCH  20  21
ATOM     21  C   UNL     1       1.184   9.207  17.856  0.00  0.00    +0.000 C 
BRANCH  21  22
ATOM     22  N   UNL     1       0.763  10.584  18.168  0.00  0.00    +0.000 NA
ATOM     23  H   UNL     1       1.190  10.866  19.052  0.00  0.00    +0.000 HD
BRANCH  22  24
ATOM     24  C   UNL     1      -0.693  10.710  18.299  0.00  0.00    +0.000 C 
BRANCH  24  28
ATOM     25  C   UNL     1      -1.962  12.215  22.184  0.00  0.00    +0.000 A 
ATOM     26  C   UNL     1      -2.568  12.669  21.001  0.00  0.00    +0.000 A 
ATOM     27  C   UNL     1      -2.148  12.203  19.752  0.00  0.00    +0.000 A 
ATOM     28  C   UNL     1      -1.083  11.297  19.650  0.00  0.00    +0.000 A 
ATOM     29  C   UNL     1      -0.433  10.910  20.829  0.00  0.00    +0.000 A 
ATOM     30  C   UNL     1      -0.852  11.368  22.101  0.00  0.00    +0.000 A 
BRANCH  25  32
ATOM     31  C   UNL     1      -3.835  12.513  23.604  0.00  0.00    +0.000 C 
ATOM     32  O   UNL     1      -2.426  12.617  23.412  0.00  0.00    +0.000 OA
ENDBRANCH  25  32
BRANCH  30  33
ATOM     33  O   UNL     1      -0.072  10.866  23.112  0.00  0.00    +0.000 OA
ATOM     34  C   UNL     1      -0.068   9.465  23.349  0.00  0.00    +0.000 C 
ENDBRANCH  30  33
ENDBRANCH  24  28
ENDBRANCH  22  24
ENDBRANCH  21  22
ENDBRANCH  20  21
ENDBRANCH  19  20
ENDBRANCH   1  19
TORSDOF 10
ENDMDL
MODEL 5
REMARK VINA RESULT:      -8.0      4.256      8.883
REMARK  Name = 
REMARK  12 active torsions:
REMARK  status: ('A' for Active; 'I' for Inactive)
REMARK    1  A    between atoms: C_1  and  O_2
REMARK    2  A    between atoms: O_2  and  C_3
REMARK    3  A    between atoms: C_6  and  C_7
REMARK    4  A    between atoms: C_7  and  N_8
REMARK    5  A    between atoms: N_8  and  C_9
REMARK    6  A    between atoms: C_9  and  C_10
REMARK    7  A    between atoms: C_10  and  O_11
REMARK    8  A    between atoms: O_11  and  C_12
REMARK    9  A    between atoms: N_20  and  S_21
REMARK   10  A    between atoms: S_21  and  C_24
REMARK   11  A    between atoms: C_31  and  O_32
REMARK   12  A    between atoms: O_32  and  C_33
REMARK                            x       y       z     vdW  Elec       q    Type
REMARK                         _______ _______ _______ _____ _____    ______ ____
ROOT
ATOM      1  C   UNL     1       2.189   5.929  18.885  0.00  0.00    +0.000 A 
ATOM      2  C   UNL     1       1.922   5.536  20.208  0.00  0.00    +0.000 A 
ATOM      3  C   UNL     1       2.696   4.541  20.814  0.00  0.00    +0.000 A 
ATOM      4  C   UNL     1       3.796   3.978  20.143  0.00  0.00    +0.000 A 
ATOM      5  C   UNL     1       3.932   4.288  18.766  0.00  0.00    +0.000 A 
ATOM      6  C   UNL     1       2.834   4.913  18.135  0.00  0.00    +0.000 A 
ATOM      7  C   UNL     1       2.327   3.708  17.461  0.00  0.00    +0.000 A 
ATOM      8  C   UNL     1       3.397   2.835  17.269  0.00  0.00    +0.000 A 
ATOM      9  N   UNL     1       4.489   3.578  17.697  0.00  0.00    +0.000 N 
ENDROOT
BRANCH   9  10
ATOM     10  S   UNL     1       5.373   4.467  16.425  0.00  0.00    +0.000 S 
ATOM     11  O   UNL     1       6.101   3.469  15.661  0.00  0.00    +0.000 OA
ATOM     12  O   UNL     1       4.401   5.350  15.827  0.00  0.00    +0.000 OA
BRANCH  10  13
ATOM     13  C   UNL     1       6.541   5.459  17.307  0.00  0.00    +0.000 A 
ATOM     14  C   UNL     1       6.734   6.800  16.971  0.00  0.00    +0.000 A 
ATOM     15  C   UNL     1       7.611   7.580  17.722  0.00  0.00    +0.000 A 
ATOM     16  C   UNL     1       8.277   7.018  18.819  0.00  0.00    +0.000 A 
ATOM     17  C   UNL     1       8.055   5.685  19.168  0.00  0.00    +0.000 A 
ATOM     18  C   UNL     1       7.178   4.903  18.410  0.00  0.00    +0.000 A 
ENDBRANCH  10  13
ENDBRANCH   9  10
BRANCH   1  19
ATOM     19  O   UNL     1       2.658   7.263  18.907  0.00  0.00    +0.000 OA
BRANCH  19  20
ATOM     20  C   UNL     1       2.227   8.073  17.808  0.00  0.00    +0.000 C 
BRANCH  20  21
ATOM     21  C   UNL     1       1.922   9.505  18.319  0.00  0.00    +0.000 C 
BRANCH  21  22
ATOM     22  N   UNL     1       0.657  10.035  17.783  0.00  0.00    +0.000 NA
ATOM     23  H   UNL     1       0.841  10.473  16.879  0.00  0.00    +0.000 HD
BRANCH  22  24
ATOM     24  C   UNL     1       0.049  11.037  18.666  0.00  0.00    +0.000 C 
BRANCH  24  28
ATOM     25  C   UNL     1      -4.206  11.560  17.898  0.00  0.00    +0.000 A 
ATOM     26  C   UNL     1      -3.631  11.997  19.103  0.00  0.00    +0.000 A 
ATOM     27  C   UNL     1      -2.269  11.810  19.360  0.00  0.00    +0.000 A 
ATOM     28  C   UNL     1      -1.453  11.147  18.433  0.00  0.00    +0.000 A 
ATOM     29  C   UNL     1      -2.051  10.645  17.270  0.00  0.00    +0.000 A 
ATOM     30  C   UNL     1      -3.426  10.832  16.993  0.00  0.00    +0.000 A 
BRANCH  25  32
ATOM     31  C   UNL     1      -6.152  12.803  18.427  0.00  0.00    +0.000 C 
ATOM     32  O   UNL     1      -5.526  11.809  17.617  0.00  0.00    +0.000 OA
ENDBRANCH  25  32
BRANCH  30  33
ATOM     33  O   UNL     1      -3.795  10.256  15.804  0.00  0.00    +0.000 OA
ATOM     34  C   UNL     1      -2.842  10.168  14.755  0.00  0.00    +0.000 C 
ENDBRANCH  30  33
ENDBRANCH  24  28
ENDBRANCH  22  24
ENDBRANCH  21  22
ENDBRANCH  20  21
ENDBRANCH  19  20
ENDBRANCH   1  19
TORSDOF 10
ENDMDL
MODEL 6
REMARK VINA RESULT:      -8.0      4.089      7.057
REMARK  Name = 
REMARK  12 active torsions:
REMARK  status: ('A' for Active; 'I' for Inactive)
REMARK    1  A    between atoms: C_1  and  O_2
REMARK    2  A    between atoms: O_2  and  C_3
REMARK    3  A    between atoms: C_6  and  C_7
REMARK    4  A    between atoms: C_7  and  N_8
REMARK    5  A    between atoms: N_8  and  C_9
REMARK    6  A    between atoms: C_9  and  C_10
REMARK    7  A    between atoms: C_10  and  O_11
REMARK    8  A    between atoms: O_11  and  C_12
REMARK    9  A    between atoms: N_20  and  S_21
REMARK   10  A    between atoms: S_21  and  C_24
REMARK   11  A    between atoms: C_31  and  O_32
REMARK   12  A    between atoms: O_32  and  C_33
REMARK                            x       y       z     vdW  Elec       q    Type
REMARK                         _______ _______ _______ _____ _____    ______ ____
ROOT
ATOM      1  C   UNL     1       1.317   3.983  20.034  0.00  0.00    +0.000 A 
ATOM      2  C   UNL     1       1.441   3.246  21.223  0.00  0.00    +0.000 A 
ATOM      3  C   UNL     1       2.631   2.566  21.506  0.00  0.00    +0.000 A 
ATOM      4  C   UNL     1       3.741   2.675  20.650  0.00  0.00    +0.000 A 
ATOM      5  C   UNL     1       3.522   3.296  19.395  0.00  0.00    +0.000 A 
ATOM      6  C   UNL     1       2.181   3.517  19.011  0.00  0.00    +0.000 A 
ATOM      7  C   UNL     1       2.089   2.382  18.079  0.00  0.00    +0.000 A 
ATOM      8  C   UNL     1       3.371   2.103  17.607  0.00  0.00    +0.000 A 
ATOM      9  N   UNL     1       4.135   3.129  18.149  0.00  0.00    +0.000 N 
ENDROOT
BRANCH   9  10
ATOM     10  S   UNL     1       4.381   4.553  17.100  0.00  0.00    +0.000 S 
ATOM     11  O   UNL     1       4.682   4.037  15.775  0.00  0.00    +0.000 OA
ATOM     12  O   UNL     1       3.259   5.422  17.362  0.00  0.00    +0.000 OA
BRANCH  10  13
ATOM     13  C   UNL     1       5.834   5.331  17.741  0.00  0.00    +0.000 A 
ATOM     14  C   UNL     1       6.450   6.372  17.046  0.00  0.00    +0.000 A 
ATOM     15  C   UNL     1       7.554   7.014  17.601  0.00  0.00    +0.000 A 
ATOM     16  C   UNL     1       8.026   6.622  18.860  0.00  0.00    +0.000 A 
ATOM     17  C   UNL     1       7.386   5.601  19.564  0.00  0.00    +0.000 A 
ATOM     18  C   UNL     1       6.280   4.955  19.003  0.00  0.00    +0.000 A 
ENDBRANCH  10  13
ENDBRANCH   9  10
BRANCH   1  19
ATOM     19  O   UNL     1       1.219   5.353  20.372  0.00  0.00    +0.000 OA
BRANCH  19  20
ATOM     20  C   UNL     1       2.441   6.092  20.256  0.00  0.00    +0.000 C 
BRANCH  20  21
ATOM     21  C   UNL     1       2.116   7.551  19.845  0.00  0.00    +0.000 C 
BRANCH  21  22
ATOM     22  N   UNL     1       1.916   7.693  18.392  0.00  0.00    +0.000 NA
ATOM     23  H   UNL     1       2.460   6.973  17.914  0.00  0.00    +0.000 HD
BRANCH  22  24
ATOM     24  C   UNL     1       2.345   9.004  17.892  0.00  0.00    +0.000 C 
BRANCH  24  28
ATOM     25  C   UNL     1      -0.494  12.072  19.113  0.00  0.00    +0.000 A 
ATOM     26  C   UNL     1      -0.909  10.745  18.910  0.00  0.00    +0.000 A 
ATOM     27  C   UNL     1      -0.003   9.763  18.497  0.00  0.00    +0.000 A 
ATOM     28  C   UNL     1       1.336  10.091  18.240  0.00  0.00    +0.000 A 
ATOM     29  C   UNL     1       1.721  11.432  18.369  0.00  0.00    +0.000 A 
ATOM     30  C   UNL     1       0.818  12.435  18.793  0.00  0.00    +0.000 A 
BRANCH  25  32
ATOM     31  C   UNL     1      -2.714  12.578  19.770  0.00  0.00    +0.000 C 
ATOM     32  O   UNL     1      -1.369  13.017  19.589  0.00  0.00    +0.000 OA
ENDBRANCH  25  32
BRANCH  30  33
ATOM     33  O   UNL     1       1.408  13.672  18.845  0.00  0.00    +0.000 OA
ATOM     34  C   UNL     1       2.754  13.813  18.412  0.00  0.00    +0.000 C 
ENDBRANCH  30  33
ENDBRANCH  24  28
ENDBRANCH  22  24
ENDBRANCH  21  22
ENDBRANCH  20  21
ENDBRANCH  19  20
ENDBRANCH   1  19
TORSDOF 10
ENDMDL
MODEL 7
REMARK VINA RESULT:      -8.0      0.907      1.798
REMARK  Name = 
REMARK  12 active torsions:
REMARK  status: ('A' for Active; 'I' for Inactive)
REMARK    1  A    between atoms: C_1  and  O_2
REMARK    2  A    between atoms: O_2  and  C_3
REMARK    3  A    between atoms: C_6  and  C_7
REMARK    4  A    between atoms: C_7  and  N_8
REMARK    5  A    between atoms: N_8  and  C_9
REMARK    6  A    between atoms: C_9  and  C_10
REMARK    7  A    between atoms: C_10  and  O_11
REMARK    8  A    between atoms: O_11  and  C_12
REMARK    9  A    between atoms: N_20  and  S_21
REMARK   10  A    between atoms: S_21  and  C_24
REMARK   11  A    between atoms: C_31  and  O_32
REMARK   12  A    between atoms: O_32  and  C_33
REMARK                            x       y       z     vdW  Elec       q    Type
REMARK                         _______ _______ _______ _____ _____    ______ ____
ROOT
ATOM      1  C   UNL     1       6.835   4.341  17.025  0.00  0.00    +0.000 A 
ATOM      2  C   UNL     1       7.064   4.542  15.654  0.00  0.00    +0.000 A 
ATOM      3  C   UNL     1       6.080   5.137  14.858  0.00  0.00    +0.000 A 
ATOM      4  C   UNL     1       4.886   5.613  15.428  0.00  0.00    +0.000 A 
ATOM      5  C   UNL     1       4.632   5.252  16.775  0.00  0.00    +0.000 A 
ATOM      6  C   UNL     1       5.456   4.252  17.340  0.00  0.00    +0.000 A 
ATOM      7  C   UNL     1       4.483   3.155  17.223  0.00  0.00    +0.000 A 
ATOM      8  C   UNL     1       3.202   3.706  17.233  0.00  0.00    +0.000 A 
ATOM      9  N   UNL     1       3.442   5.051  17.483  0.00  0.00    +0.000 N 
ENDROOT
BRANCH   9  10
ATOM     10  S   UNL     1       3.350   5.554  19.194  0.00  0.00    +0.000 S 
ATOM     11  O   UNL     1       2.492   4.586  19.858  0.00  0.00    +0.000 OA
ATOM     12  O   UNL     1       4.713   5.794  19.599  0.00  0.00    +0.000 OA
BRANCH  10  13
ATOM     13  C   UNL     1       2.511   7.110  19.155  0.00  0.00    +0.000 A 
ATOM     14  C   UNL     1       2.384   7.821  17.961  0.00  0.00    +0.000 A 
ATOM     15  C   UNL     1       1.662   9.012  17.941  0.00  0.00    +0.000 A 
ATOM     16  C   UNL     1       1.053   9.477  19.114  0.00  0.00    +0.000 A 
ATOM     17  C   UNL     1       1.157   8.745  20.297  0.00  0.00    +0.000 A 
ATOM     18  C   UNL     1       1.887   7.552  20.316  0.00  0.00    +0.000 A 
ENDBRANCH  10  13
ENDBRANCH   9  10
BRANCH   1  19
ATOM     19  O   UNL     1       7.721   5.174  17.748  0.00  0.00    +0.000 OA
BRANCH  19  20
ATOM     20  C   UNL     1       7.766   6.536  17.304  0.00  0.00    +0.000 C 
BRANCH  20  21
ATOM     21  C   UNL     1       7.602   7.475  18.527  0.00  0.00    +0.000 C 
BRANCH  21  22
ATOM     22  N   UNL     1       8.741   8.395  18.685  0.00  0.00    +0.000 NA
ATOM     23  H   UNL     1       8.822   8.651  19.671  0.00  0.00    +0.000 HD
BRANCH  22  24
ATOM     24  C   UNL     1       8.584   9.624  17.900  0.00  0.00    +0.000 C 
BRANCH  24  28
ATOM     25  C   UNL     1      10.440  13.026  19.886  0.00  0.00    +0.000 A 
ATOM     26  C   UNL     1      10.414  11.761  20.495  0.00  0.00    +0.000 A 
ATOM     27  C   UNL     1       9.799  10.673  19.869  0.00  0.00    +0.000 A 
ATOM     28  C   UNL     1       9.161  10.830  18.630  0.00  0.00    +0.000 A 
ATOM     29  C   UNL     1       9.124  12.112  18.068  0.00  0.00    +0.000 A 
ATOM     30  C   UNL     1       9.747  13.221  18.686  0.00  0.00    +0.000 A 
BRANCH  25  32
ATOM     31  C   UNL     1      10.338  14.873  21.366  0.00  0.00    +0.000 C 
ATOM     32  O   UNL     1      11.107  14.075  20.469  0.00  0.00    +0.000 OA
ENDBRANCH  25  32
BRANCH  30  33
ATOM     33  O   UNL     1       9.582  14.375  17.963  0.00  0.00    +0.000 OA
ATOM     34  C   UNL     1       8.350  15.075  18.053  0.00  0.00    +0.000 C 
ENDBRANCH  30  33
ENDBRANCH  24  28
ENDBRANCH  22  24
ENDBRANCH  21  22
ENDBRANCH  20  21
ENDBRANCH  19  20
ENDBRANCH   1  19
TORSDOF 10
ENDMDL
MODEL 8
REMARK VINA RESULT:      -8.0      5.111      8.549
REMARK  Name = 
REMARK  12 active torsions:
REMARK  status: ('A' for Active; 'I' for Inactive)
REMARK    1  A    between atoms: C_1  and  O_2
REMARK    2  A    between atoms: O_2  and  C_3
REMARK    3  A    between atoms: C_6  and  C_7
REMARK    4  A    between atoms: C_7  and  N_8
REMARK    5  A    between atoms: N_8  and  C_9
REMARK    6  A    between atoms: C_9  and  C_10
REMARK    7  A    between atoms: C_10  and  O_11
REMARK    8  A    between atoms: O_11  and  C_12
REMARK    9  A    between atoms: N_20  and  S_21
REMARK   10  A    between atoms: S_21  and  C_24
REMARK   11  A    between atoms: C_31  and  O_32
REMARK   12  A    between atoms: O_32  and  C_33
REMARK                            x       y       z     vdW  Elec       q    Type
REMARK                         _______ _______ _______ _____ _____    ______ ____
ROOT
ATOM      1  C   UNL     1       1.380   4.603  20.288  0.00  0.00    +0.000 A 
ATOM      2  C   UNL     1       1.271   3.502  21.154  0.00  0.00    +0.000 A 
ATOM      3  C   UNL     1       2.261   2.513  21.160  0.00  0.00    +0.000 A 
ATOM      4  C   UNL     1       3.412   2.644  20.364  0.00  0.00    +0.000 A 
ATOM      5  C   UNL     1       3.407   3.683  19.399  0.00  0.00    +0.000 A 
ATOM      6  C   UNL     1       2.172   4.322  19.147  0.00  0.00    +0.000 A 
ATOM      7  C   UNL     1       1.879   3.618  17.889  0.00  0.00    +0.000 A 
ATOM      8  C   UNL     1       3.090   3.227  17.317  0.00  0.00    +0.000 A 
ATOM      9  N   UNL     1       4.033   3.807  18.154  0.00  0.00    +0.000 N 
ENDROOT
BRANCH   9  10
ATOM     10  S   UNL     1       4.650   5.404  17.644  0.00  0.00    +0.000 S 
ATOM     11  O   UNL     1       3.483   6.206  17.317  0.00  0.00    +0.000 OA
ATOM     12  O   UNL     1       5.601   5.790  18.657  0.00  0.00    +0.000 OA
BRANCH  10  13
ATOM     13  C   UNL     1       5.542   5.080  16.152  0.00  0.00    +0.000 A 
ATOM     14  C   UNL     1       6.906   5.360  16.063  0.00  0.00    +0.000 A 
ATOM     15  C   UNL     1       7.603   5.035  14.902  0.00  0.00    +0.000 A 
ATOM     16  C   UNL     1       6.933   4.412  13.840  0.00  0.00    +0.000 A 
ATOM     17  C   UNL     1       5.576   4.107  13.948  0.00  0.00    +0.000 A 
ATOM     18  C   UNL     1       4.877   4.438  15.113  0.00  0.00    +0.000 A 
ENDBRANCH  10  13
ENDBRANCH   9  10
BRANCH   1  19
ATOM     19  O   UNL     1       1.574   5.764  21.073  0.00  0.00    +0.000 OA
BRANCH  19  20
ATOM     20  C   UNL     1       1.887   6.949  20.331  0.00  0.00    +0.000 C 
BRANCH  20  21
ATOM     21  C   UNL     1       1.252   8.174  21.038  0.00  0.00    +0.000 C 
BRANCH  21  22
ATOM     22  N   UNL     1       1.203   9.361  20.168  0.00  0.00    +0.000 NA
ATOM     23  H   UNL     1       2.129   9.793  20.148  0.00  0.00    +0.000 HD
BRANCH  22  24
ATOM     24  C   UNL     1       0.238  10.362  20.637  0.00  0.00    +0.000 C 
BRANCH  24  28
ATOM     25  C   UNL     1      -2.811  11.125  17.623  0.00  0.00    +0.000 A 
ATOM     26  C   UNL     1      -1.671  10.364  17.319  0.00  0.00    +0.000 A 
ATOM     27  C   UNL     1      -0.680  10.136  18.278  0.00  0.00    +0.000 A 
ATOM     28  C   UNL     1      -0.787  10.696  19.560  0.00  0.00    +0.000 A 
ATOM     29  C   UNL     1      -1.889  11.518  19.829  0.00  0.00    +0.000 A 
ATOM     30  C   UNL     1      -2.902  11.752  18.870  0.00  0.00    +0.000 A 
BRANCH  25  32
ATOM     31  C   UNL     1      -3.553  10.760  15.402  0.00  0.00    +0.000 C 
ATOM     32  O   UNL     1      -3.817  11.286  16.702  0.00  0.00    +0.000 OA
ENDBRANCH  25  32
BRANCH  30  33
ATOM     33  O   UNL     1      -3.880  12.588  19.347  0.00  0.00    +0.000 OA
ATOM     34  C   UNL     1      -3.972  12.814  20.746  0.00  0.00    +0.000 C 
ENDBRANCH  30  33
ENDBRANCH  24  28
ENDBRANCH  22  24
ENDBRANCH  21  22
ENDBRANCH  20  21
ENDBRANCH  19  20
ENDBRANCH   1  19
TORSDOF 10
ENDMDL
MODEL 9
REMARK VINA RESULT:      -7.9      4.485      8.010
REMARK  Name = 
REMARK  12 active torsions:
REMARK  status: ('A' for Active; 'I' for Inactive)
REMARK    1  A    between atoms: C_1  and  O_2
REMARK    2  A    between atoms: O_2  and  C_3
REMARK    3  A    between atoms: C_6  and  C_7
REMARK    4  A    between atoms: C_7  and  N_8
REMARK    5  A    between atoms: N_8  and  C_9
REMARK    6  A    between atoms: C_9  and  C_10
REMARK    7  A    between atoms: C_10  and  O_11
REMARK    8  A    between atoms: O_11  and  C_12
REMARK    9  A    between atoms: N_20  and  S_21
REMARK   10  A    between atoms: S_21  and  C_24
REMARK   11  A    between atoms: C_31  and  O_32
REMARK   12  A    between atoms: O_32  and  C_33
REMARK                            x       y       z     vdW  Elec       q    Type
REMARK                         _______ _______ _______ _____ _____    ______ ____
ROOT
ATOM      1  C   UNL     1       1.130   4.126  20.024  0.00  0.00    +0.000 A 
ATOM      2  C   UNL     1       1.254   3.346  21.185  0.00  0.00    +0.000 A 
ATOM      3  C   UNL     1       2.471   2.725  21.487  0.00  0.00    +0.000 A 
ATOM      4  C   UNL     1       3.604   2.936  20.682  0.00  0.00    +0.000 A 
ATOM      5  C   UNL     1       3.396   3.598  19.446  0.00  0.00    +0.000 A 
ATOM      6  C   UNL     1       2.059   3.758  19.018  0.00  0.00    +0.000 A 
ATOM      7  C   UNL     1       2.071   2.662  18.037  0.00  0.00    +0.000 A 
ATOM      8  C   UNL     1       3.385   2.479  17.605  0.00  0.00    +0.000 A 
ATOM      9  N   UNL     1       4.064   3.523  18.220  0.00  0.00    +0.000 N 
ENDROOT
BRANCH   9  10
ATOM     10  S   UNL     1       4.264   5.005  17.243  0.00  0.00    +0.000 S 
ATOM     11  O   UNL     1       4.498   4.565  15.877  0.00  0.00    +0.000 OA
ATOM     12  O   UNL     1       3.159   5.858  17.608  0.00  0.00    +0.000 OA
BRANCH  10  13
ATOM     13  C   UNL     1       5.749   5.744  17.855  0.00  0.00    +0.000 A 
ATOM     14  C   UNL     1       6.449   5.164  18.913  0.00  0.00    +0.000 A 
ATOM     15  C   UNL     1       7.652   5.726  19.335  0.00  0.00    +0.000 A 
ATOM     16  C   UNL     1       8.158   6.858  18.682  0.00  0.00    +0.000 A 
ATOM     17  C   UNL     1       7.468   7.414  17.604  0.00  0.00    +0.000 A 
ATOM     18  C   UNL     1       6.259   6.851  17.185  0.00  0.00    +0.000 A 
ENDBRANCH  10  13
ENDBRANCH   9  10
BRANCH   1  19
ATOM     19  O   UNL     1       0.938   5.472  20.415  0.00  0.00    +0.000 OA
BRANCH  19  20
ATOM     20  C   UNL     1       2.143   6.212  20.645  0.00  0.00    +0.000 C 
BRANCH  20  21
ATOM     21  C   UNL     1       1.932   7.680  20.191  0.00  0.00    +0.000 C 
BRANCH  21  22
ATOM     22  N   UNL     1       0.889   8.365  20.974  0.00  0.00    +0.000 NA
ATOM     23  H   UNL     1      -0.025   8.124  20.586  0.00  0.00    +0.000 HD
BRANCH  22  24
ATOM     24  C   UNL     1       1.031   9.825  20.943  0.00  0.00    +0.000 C 
BRANCH  24  28
ATOM     25  C   UNL     1      -2.379  11.537  18.845  0.00  0.00    +0.000 A 
ATOM     26  C   UNL     1      -1.562  10.574  18.230  0.00  0.00    +0.000 A 
ATOM     27  C   UNL     1      -0.454  10.039  18.894  0.00  0.00    +0.000 A 
ATOM     28  C   UNL     1      -0.112  10.481  20.180  0.00  0.00    +0.000 A 
ATOM     29  C   UNL     1      -0.886  11.498  20.754  0.00  0.00    +0.000 A 
ATOM     30  C   UNL     1      -2.014  12.044  20.097  0.00  0.00    +0.000 A 
BRANCH  25  32
ATOM     31  C   UNL     1      -3.962  11.236  17.109  0.00  0.00    +0.000 C 
ATOM     32  O   UNL     1      -3.508  12.006  18.220  0.00  0.00    +0.000 OA
ENDBRANCH  25  32
BRANCH  30  33
ATOM     33  O   UNL     1      -2.618  13.026  20.840  0.00  0.00    +0.000 OA
ATOM     34  C   UNL     1      -2.192  14.371  20.682  0.00  0.00    +0.000 C 
ENDBRANCH  30  33
ENDBRANCH  24  28
ENDBRANCH  22  24
ENDBRANCH  21  22
ENDBRANCH  20  21
ENDBRANCH  19  20
ENDBRANCH   1  19
TORSDOF 10
ENDMDL
