MODEL 1
REMARK VINA RESULT:      -7.7      0.000      0.000
REMARK  Name = 
REMARK  8 active torsions:
REMARK  status: ('A' for Active; 'I' for Inactive)
REMARK    1  A    between atoms: CD1_1  and  CG1_2
REMARK    2  A    between atoms: CG1_2  and  CB_3
REMARK    3  A    between atoms: CB_3  and  CG2_4
REMARK    4  A    between atoms: CB_3  and  CA_5
REMARK    5  A    between atoms: CA_5  and  N_6
REMARK    6  A    between atoms: CA_5  and  C_7
REMARK    7  A    between atoms: C_18  and  C_19
REMARK    8  A    between atoms: C_19  and  O_21
REMARK                            x       y       z     vdW  Elec       q    Type
REMARK                         _______ _______ _______ _____ _____    ______ ____
ROOT
ATOM      1  C   ILE A   1       4.875   4.057  18.804  0.00  0.00    +0.000 C 
ATOM      2  O   ILE A   1       5.380   3.320  19.665  0.00  0.00    +0.000 OA
ATOM      3  N   UNK A   2       3.623   4.646  19.054  0.00  0.00    +0.000 N 
ATOM      4  C   UNK A   2       2.889   5.454  18.064  0.00  0.00    +0.000 C 
ATOM      5  C   UNK A   2       2.455   6.789  18.618  0.00  0.00    +0.000 A 
ATOM      6  C   UNK A   2       2.517   7.963  17.861  0.00  0.00    +0.000 A 
ATOM      7  C   UNK A   2       2.002   9.157  18.371  0.00  0.00    +0.000 A 
ATOM      8  C   UNK A   2       1.413   9.179  19.634  0.00  0.00    +0.000 A 
ATOM      9  C   UNK A   2       1.345   8.012  20.394  0.00  0.00    +0.000 A 
ATOM     10  C   UNK A   2       1.880   6.820  19.894  0.00  0.00    +0.000 A 
ATOM     11  C   UNK A   2       1.758   5.514  20.620  0.00  0.00    +0.000 C 
ATOM     12  C   UNK A   2       2.999   4.582  20.433  0.00  0.00    +0.000 C 
ENDROOT
BRANCH  12  13
ATOM     13  C   UNK A   2       2.547   3.194  20.955  0.00  0.00    +0.000 C 
ATOM     14  O   UNK A   2       2.507   2.889  22.145  0.00  0.00    +0.000 OA
BRANCH  13  15
ATOM     15  O   UNK A   2       2.324   2.255  20.012  0.00  0.00    +0.000 OA
ATOM     16  H   UNK A   2       2.069   2.644  19.141  0.00  0.00    +0.000 HD
ENDBRANCH  13  15
ENDBRANCH  12  13
BRANCH   1  17
ATOM     17  CA  ILE A   1       5.677   4.442  17.510  0.00  0.00    +0.000 C 
BRANCH  17  18
ATOM     18  N   ILE A   1       5.279   3.503  16.444  0.00  0.00    +0.000 NA
ATOM     19  H1  ILE A   1       5.428   3.945  15.538  0.00  0.00    +0.000 HD
ATOM     20  H2  ILE A   1       4.271   3.340  16.496  0.00  0.00    +0.000 HD
ENDBRANCH  17  18
BRANCH  17  21
ATOM     21  CB  ILE A   1       5.675   5.922  17.020  0.00  0.00    +0.000 C 
ATOM     22  CG2 ILE A   1       5.451   5.960  15.497  0.00  0.00    +0.000 C 
BRANCH  21  24
ATOM     23  CD1 ILE A   1       7.778   6.521  18.461  0.00  0.00    +0.000 C 
ATOM     24  CG1 ILE A   1       6.814   6.906  17.353  0.00  0.00    +0.000 C 
ENDBRANCH  21  24
ENDBRANCH  17  21
ENDBRANCH   1  17
TORSDOF 6
ENDMDL
MODEL 2
REMARK VINA RESULT:      -7.6      2.533      6.310
REMARK  Name = 
REMARK  8 active torsions:
REMARK  status: ('A' for Active; 'I' for Inactive)
REMARK    1  A    between atoms: CD1_1  and  CG1_2
REMARK    2  A    between atoms: CG1_2  and  CB_3
REMARK    3  A    between atoms: CB_3  and  CG2_4
REMARK    4  A    between atoms: CB_3  and  CA_5
REMARK    5  A    between atoms: CA_5  and  N_6
REMARK    6  A    between atoms: CA_5  and  C_7
REMARK    7  A    between atoms: C_18  and  C_19
REMARK    8  A    between atoms: C_19  and  O_21
REMARK                            x       y       z     vdW  Elec       q    Type
REMARK                         _______ _______ _______ _____ _____    ______ ____
ROOT
ATOM      1  C   ILE A   1       4.841   3.598  18.022  0.00  0.00    +0.000 C 
ATOM      2  O   ILE A   1       5.463   3.493  19.090  0.00  0.00    +0.000 OA
ATOM      3  N   UNK A   2       5.387   4.375  16.984  0.00  0.00    +0.000 N 
ATOM      4  C   UNK A   2       4.688   4.649  15.717  0.00  0.00    +0.000 C 
ATOM      5  C   UNK A   2       5.538   4.332  14.510  0.00  0.00    +0.000 A 
ATOM      6  C   UNK A   2       5.008   3.724  13.368  0.00  0.00    +0.000 A 
ATOM      7  C   UNK A   2       5.802   3.549  12.232  0.00  0.00    +0.000 A 
ATOM      8  C   UNK A   2       7.123   3.992  12.230  0.00  0.00    +0.000 A 
ATOM      9  C   UNK A   2       7.658   4.602  13.365  0.00  0.00    +0.000 A 
ATOM     10  C   UNK A   2       6.871   4.757  14.510  0.00  0.00    +0.000 A 
ATOM     11  C   UNK A   2       7.356   5.484  15.729  0.00  0.00    +0.000 C 
ATOM     12  C   UNK A   2       6.811   4.886  17.066  0.00  0.00    +0.000 C 
ENDROOT
BRANCH  12  13
ATOM     13  C   UNK A   2       7.133   5.949  18.148  0.00  0.00    +0.000 C 
ATOM     14  O   UNK A   2       7.193   7.156  17.927  0.00  0.00    +0.000 OA
BRANCH  13  15
ATOM     15  O   UNK A   2       7.498   5.468  19.355  0.00  0.00    +0.000 OA
ATOM     16  H   UNK A   2       7.619   6.180  20.027  0.00  0.00    +0.000 HD
ENDBRANCH  13  15
ENDBRANCH  12  13
BRANCH   1  17
ATOM     17  CA  ILE A   1       3.531   2.769  17.774  0.00  0.00    +0.000 C 
BRANCH  17  18
ATOM     18  N   ILE A   1       3.715   1.448  18.403  0.00  0.00    +0.000 NA
ATOM     19  H1  ILE A   1       4.430   0.932  17.890  0.00  0.00    +0.000 HD
ATOM     20  H2  ILE A   1       2.862   0.897  18.290  0.00  0.00    +0.000 HD
ENDBRANCH  17  18
BRANCH  17  21
ATOM     21  CB  ILE A   1       2.149   3.399  18.123  0.00  0.00    +0.000 C 
ATOM     22  CG2 ILE A   1       2.352   4.845  18.612  0.00  0.00    +0.000 C 
BRANCH  21  24
ATOM     23  CD1 ILE A   1       1.082   3.213  20.507  0.00  0.00    +0.000 C 
ATOM     24  CG1 ILE A   1       1.144   2.717  19.074  0.00  0.00    +0.000 C 
ENDBRANCH  21  24
ENDBRANCH  17  21
ENDBRANCH   1  17
TORSDOF 6
ENDMDL
MODEL 3
REMARK VINA RESULT:      -7.6      2.653      6.353
REMARK  Name = 
REMARK  8 active torsions:
REMARK  status: ('A' for Active; 'I' for Inactive)
REMARK    1  A    between atoms: CD1_1  and  CG1_2
REMARK    2  A    between atoms: CG1_2  and  CB_3
REMARK    3  A    between atoms: CB_3  and  CG2_4
REMARK    4  A    between atoms: CB_3  and  CA_5
REMARK    5  A    between atoms: CA_5  and  N_6
REMARK    6  A    between atoms: CA_5  and  C_7
REMARK    7  A    between atoms: C_18  and  C_19
REMARK    8  A    between atoms: C_19  and  O_21
REMARK                            x       y       z     vdW  Elec       q    Type
REMARK                         _______ _______ _______ _____ _____    ______ ____
ROOT
ATOM      1  C   ILE A   1       5.194   3.964  17.980  0.00  0.00    +0.000 C 
ATOM      2  O   ILE A   1       5.899   4.010  18.998  0.00  0.00    +0.000 OA
ATOM      3  N   UNK A   2       5.612   4.646  16.823  0.00  0.00    +0.000 N 
ATOM      4  C   UNK A   2       4.805   4.740  15.594  0.00  0.00    +0.000 C 
ATOM      5  C   UNK A   2       5.579   4.333  14.364  0.00  0.00    +0.000 A 
ATOM      6  C   UNK A   2       5.001   3.575  13.340  0.00  0.00    +0.000 A 
ATOM      7  C   UNK A   2       5.717   3.315  12.169  0.00  0.00    +0.000 A 
ATOM      8  C   UNK A   2       7.005   3.821  12.012  0.00  0.00    +0.000 A 
ATOM      9  C   UNK A   2       7.587   4.581  13.027  0.00  0.00    +0.000 A 
ATOM     10  C   UNK A   2       6.881   4.823  14.209  0.00  0.00    +0.000 A 
ATOM     11  C   UNK A   2       7.412   5.706  15.299  0.00  0.00    +0.000 C 
ATOM     12  C   UNK A   2       7.006   5.235  16.733  0.00  0.00    +0.000 C 
ENDROOT
BRANCH  12  13
ATOM     13  C   UNK A   2       7.345   6.426  17.664  0.00  0.00    +0.000 C 
ATOM     14  O   UNK A   2       7.317   7.602  17.310  0.00  0.00    +0.000 OA
BRANCH  13  15
ATOM     15  O   UNK A   2       7.826   6.103  18.884  0.00  0.00    +0.000 OA
ATOM     16  H   UNK A   2       7.342   6.556  19.615  0.00  0.00    +0.000 HD
ENDBRANCH  13  15
ENDBRANCH  12  13
BRANCH   1  17
ATOM     17  CA  ILE A   1       3.919   3.047  17.929  0.00  0.00    +0.000 C 
BRANCH  17  18
ATOM     18  N   ILE A   1       4.285   1.745  18.520  0.00  0.00    +0.000 NA
ATOM     19  H1  ILE A   1       4.326   1.841  19.534  0.00  0.00    +0.000 HD
ATOM     20  H2  ILE A   1       5.236   1.501  18.239  0.00  0.00    +0.000 HD
ENDBRANCH  17  18
BRANCH  17  21
ATOM     21  CB  ILE A   1       2.566   3.586  18.484  0.00  0.00    +0.000 C 
ATOM     22  CG2 ILE A   1       1.542   2.437  18.546  0.00  0.00    +0.000 C 
BRANCH  21  24
ATOM     23  CD1 ILE A   1       2.409   6.187  18.232  0.00  0.00    +0.000 C 
ATOM     24  CG1 ILE A   1       1.857   4.817  17.884  0.00  0.00    +0.000 C 
ENDBRANCH  21  24
ENDBRANCH  17  21
ENDBRANCH   1  17
TORSDOF 6
ENDMDL
MODEL 4
REMARK VINA RESULT:      -7.5      2.973      6.461
REMARK  Name = 
REMARK  8 active torsions:
REMARK  status: ('A' for Active; 'I' for Inactive)
REMARK    1  A    between atoms: CD1_1  and  CG1_2
REMARK    2  A    between atoms: CG1_2  and  CB_3
REMARK    3  A    between atoms: CB_3  and  CG2_4
REMARK    4  A    between atoms: CB_3  and  CA_5
REMARK    5  A    between atoms: CA_5  and  N_6
REMARK    6  A    between atoms: CA_5  and  C_7
REMARK    7  A    between atoms: C_18  and  C_19
REMARK    8  A    between atoms: C_19  and  O_21
REMARK                            x       y       z     vdW  Elec       q    Type
REMARK                         _______ _______ _______ _____ _____    ______ ____
ROOT
ATOM      1  C   ILE A   1       5.600   4.405  18.422  0.00  0.00    +0.000 C 
ATOM      2  O   ILE A   1       6.384   4.553  19.371  0.00  0.00    +0.000 OA
ATOM      3  N   UNK A   2       5.881   5.030  17.194  0.00  0.00    +0.000 N 
ATOM      4  C   UNK A   2       4.969   5.003  16.037  0.00  0.00    +0.000 C 
ATOM      5  C   UNK A   2       5.659   4.556  14.771  0.00  0.00    +0.000 A 
ATOM      6  C   UNK A   2       5.041   3.705  13.850  0.00  0.00    +0.000 A 
ATOM      7  C   UNK A   2       5.669   3.404  12.639  0.00  0.00    +0.000 A 
ATOM      8  C   UNK A   2       6.909   3.964  12.339  0.00  0.00    +0.000 A 
ATOM      9  C   UNK A   2       7.531   4.816  13.252  0.00  0.00    +0.000 A 
ATOM     10  C   UNK A   2       6.914   5.100  14.474  0.00  0.00    +0.000 A 
ATOM     11  C   UNK A   2       7.484   6.077  15.458  0.00  0.00    +0.000 C 
ATOM     12  C   UNK A   2       7.227   5.681  16.948  0.00  0.00    +0.000 C 
ENDROOT
BRANCH  12  13
ATOM     13  C   UNK A   2       7.576   6.946  17.771  0.00  0.00    +0.000 C 
ATOM     14  O   UNK A   2       7.420   8.095  17.363  0.00  0.00    +0.000 OA
BRANCH  13  15
ATOM     15  O   UNK A   2       8.213   6.730  18.942  0.00  0.00    +0.000 OA
ATOM     16  H   UNK A   2       8.252   7.538  19.507  0.00  0.00    +0.000 HD
ENDBRANCH  13  15
ENDBRANCH  12  13
BRANCH   1  17
ATOM     17  CA  ILE A   1       4.379   3.423  18.539  0.00  0.00    +0.000 C 
BRANCH  17  18
ATOM     18  N   ILE A   1       4.763   2.344  19.469  0.00  0.00    +0.000 NA
ATOM     19  H1  ILE A   1       5.541   2.664  20.046  0.00  0.00    +0.000 HD
ATOM     20  H2  ILE A   1       5.136   1.556  18.937  0.00  0.00    +0.000 HD
ENDBRANCH  17  18
BRANCH  17  21
ATOM     21  CB  ILE A   1       2.964   3.996  18.855  0.00  0.00    +0.000 C 
ATOM     22  CG2 ILE A   1       2.699   3.903  20.369  0.00  0.00    +0.000 C 
BRANCH  21  24
ATOM     23  CD1 ILE A   1       0.823   2.488  18.825  0.00  0.00    +0.000 C 
ATOM     24  CG1 ILE A   1       1.694   3.516  18.125  0.00  0.00    +0.000 C 
ENDBRANCH  21  24
ENDBRANCH  17  21
ENDBRANCH   1  17
TORSDOF 6
ENDMDL
MODEL 5
REMARK VINA RESULT:      -7.5      2.105      4.646
REMARK  Name = 
REMARK  8 active torsions:
REMARK  status: ('A' for Active; 'I' for Inactive)
REMARK    1  A    between atoms: CD1_1  and  CG1_2
REMARK    2  A    between atoms: CG1_2  and  CB_3
REMARK    3  A    between atoms: CB_3  and  CG2_4
REMARK    4  A    between atoms: CB_3  and  CA_5
REMARK    5  A    between atoms: CA_5  and  N_6
REMARK    6  A    between atoms: CA_5  and  C_7
REMARK    7  A    between atoms: C_18  and  C_19
REMARK    8  A    between atoms: C_19  and  O_21
REMARK                            x       y       z     vdW  Elec       q    Type
REMARK                         _______ _______ _______ _____ _____    ______ ____
ROOT
ATOM      1  C   ILE A   1       4.152   3.307  18.132  0.00  0.00    +0.000 C 
ATOM      2  O   ILE A   1       4.373   2.675  17.087  0.00  0.00    +0.000 OA
ATOM      3  N   UNK A   2       4.272   4.708  18.124  0.00  0.00    +0.000 N 
ATOM      4  C   UNK A   2       4.132   5.545  19.328  0.00  0.00    +0.000 C 
ATOM      5  C   UNK A   2       3.151   6.676  19.133  0.00  0.00    +0.000 A 
ATOM      6  C   UNK A   2       2.253   7.061  20.133  0.00  0.00    +0.000 A 
ATOM      7  C   UNK A   2       1.440   8.183  19.953  0.00  0.00    +0.000 A 
ATOM      8  C   UNK A   2       1.530   8.930  18.781  0.00  0.00    +0.000 A 
ATOM      9  C   UNK A   2       2.426   8.553  17.780  0.00  0.00    +0.000 A 
ATOM     10  C   UNK A   2       3.225   7.418  17.948  0.00  0.00    +0.000 A 
ATOM     11  C   UNK A   2       4.270   7.013  16.952  0.00  0.00    +0.000 C 
ATOM     12  C   UNK A   2       4.434   5.464  16.820  0.00  0.00    +0.000 C 
ENDROOT
BRANCH  12  13
ATOM     13  C   UNK A   2       5.752   5.261  16.030  0.00  0.00    +0.000 C 
ATOM     14  O   UNK A   2       6.719   6.015  16.104  0.00  0.00    +0.000 OA
BRANCH  13  15
ATOM     15  O   UNK A   2       5.744   4.265  15.119  0.00  0.00    +0.000 OA
ATOM     16  H   UNK A   2       6.653   4.001  14.837  0.00  0.00    +0.000 HD
ENDBRANCH  13  15
ENDBRANCH  12  13
BRANCH   1  17
ATOM     17  CA  ILE A   1       3.614   2.574  19.413  0.00  0.00    +0.000 C 
BRANCH  17  18
ATOM     18  N   ILE A   1       4.784   2.153  20.208  0.00  0.00    +0.000 NA
ATOM     19  H1  ILE A   1       5.505   1.803  19.578  0.00  0.00    +0.000 HD
ATOM     20  H2  ILE A   1       4.528   1.352  20.787  0.00  0.00    +0.000 HD
ENDBRANCH  17  18
BRANCH  17  21
ATOM     21  CB  ILE A   1       2.526   3.265  20.288  0.00  0.00    +0.000 C 
ATOM     22  CG2 ILE A   1       2.516   2.631  21.692  0.00  0.00    +0.000 C 
BRANCH  21  24
ATOM     23  CD1 ILE A   1       0.570   2.477  18.735  0.00  0.00    +0.000 C 
ATOM     24  CG1 ILE A   1       1.061   3.410  19.828  0.00  0.00    +0.000 C 
ENDBRANCH  21  24
ENDBRANCH  17  21
ENDBRANCH   1  17
TORSDOF 6
ENDMDL
MODEL 6
REMARK VINA RESULT:      -7.5      1.583      2.304
REMARK  Name = 
REMARK  8 active torsions:
REMARK  status: ('A' for Active; 'I' for Inactive)
REMARK    1  A    between atoms: CD1_1  and  CG1_2
REMARK    2  A    between atoms: CG1_2  and  CB_3
REMARK    3  A    between atoms: CB_3  and  CG2_4
REMARK    4  A    between atoms: CB_3  and  CA_5
REMARK    5  A    between atoms: CA_5  and  N_6
REMARK    6  A    between atoms: CA_5  and  C_7
REMARK    7  A    between atoms: C_18  and  C_19
REMARK    8  A    between atoms: C_19  and  O_21
REMARK                            x       y       z     vdW  Elec       q    Type
REMARK                         _______ _______ _______ _____ _____    ______ ____
ROOT
ATOM      1  C   ILE A   1       5.648   4.932  17.621  0.00  0.00    +0.000 C 
ATOM      2  O   ILE A   1       6.456   4.186  18.193  0.00  0.00    +0.000 OA
ATOM      3  N   UNK A   2       4.362   5.098  18.165  0.00  0.00    +0.000 N 
ATOM      4  C   UNK A   2       3.295   5.878  17.514  0.00  0.00    +0.000 C 
ATOM      5  C   UNK A   2       2.677   6.895  18.443  0.00  0.00    +0.000 A 
ATOM      6  C   UNK A   2       2.330   8.179  18.013  0.00  0.00    +0.000 A 
ATOM      7  C   UNK A   2       1.659   9.051  18.874  0.00  0.00    +0.000 A 
ATOM      8  C   UNK A   2       1.321   8.638  20.161  0.00  0.00    +0.000 A 
ATOM      9  C   UNK A   2       1.661   7.357  20.596  0.00  0.00    +0.000 A 
ATOM     10  C   UNK A   2       2.353   6.491  19.744  0.00  0.00    +0.000 A 
ATOM     11  C   UNK A   2       2.667   5.073  20.117  0.00  0.00    +0.000 C 
ATOM     12  C   UNK A   2       4.032   4.569  19.546  0.00  0.00    +0.000 C 
ENDROOT
BRANCH  12  13
ATOM     13  C   UNK A   2       4.012   3.032  19.742  0.00  0.00    +0.000 C 
ATOM     14  O   UNK A   2       2.984   2.359  19.781  0.00  0.00    +0.000 OA
BRANCH  13  15
ATOM     15  O   UNK A   2       5.202   2.458  20.020  0.00  0.00    +0.000 OA
ATOM     16  H   UNK A   2       5.964   3.059  19.843  0.00  0.00    +0.000 HD
ENDBRANCH  13  15
ENDBRANCH  12  13
BRANCH   1  17
ATOM     17  CA  ILE A   1       6.090   5.791  16.382  0.00  0.00    +0.000 C 
BRANCH  17  18
ATOM     18  N   ILE A   1       7.445   6.306  16.659  0.00  0.00    +0.000 NA
ATOM     19  H1  ILE A   1       7.422   6.861  17.514  0.00  0.00    +0.000 HD
ATOM     20  H2  ILE A   1       7.714   6.963  15.925  0.00  0.00    +0.000 HD
ENDBRANCH  17  18
BRANCH  17  21
ATOM     21  CB  ILE A   1       5.972   5.187  14.950  0.00  0.00    +0.000 C 
ATOM     22  CG2 ILE A   1       5.220   3.845  15.019  0.00  0.00    +0.000 C 
BRANCH  21  24
ATOM     23  CD1 ILE A   1       6.971   4.295  12.700  0.00  0.00    +0.000 C 
ATOM     24  CG1 ILE A   1       7.193   4.996  14.028  0.00  0.00    +0.000 C 
ENDBRANCH  21  24
ENDBRANCH  17  21
ENDBRANCH   1  17
TORSDOF 6
ENDMDL
MODEL 7
REMARK VINA RESULT:      -7.3      1.482      2.117
REMARK  Name = 
REMARK  8 active torsions:
REMARK  status: ('A' for Active; 'I' for Inactive)
REMARK    1  A    between atoms: CD1_1  and  CG1_2
REMARK    2  A    between atoms: CG1_2  and  CB_3
REMARK    3  A    between atoms: CB_3  and  CG2_4
REMARK    4  A    between atoms: CB_3  and  CA_5
REMARK    5  A    between atoms: CA_5  and  N_6
REMARK    6  A    between atoms: CA_5  and  C_7
REMARK    7  A    between atoms: C_18  and  C_19
REMARK    8  A    between atoms: C_19  and  O_21
REMARK                            x       y       z     vdW  Elec       q    Type
REMARK                         _______ _______ _______ _____ _____    ______ ____
ROOT
ATOM      1  C   ILE A   1       5.704   5.048  18.416  0.00  0.00    +0.000 C 
ATOM      2  O   ILE A   1       6.423   4.201  18.966  0.00  0.00    +0.000 OA
ATOM      3  N   UNK A   2       4.338   5.109  18.749  0.00  0.00    +0.000 N 
ATOM      4  C   UNK A   2       3.376   6.006  18.086  0.00  0.00    +0.000 C 
ATOM      5  C   UNK A   2       2.577   6.824  19.071  0.00  0.00    +0.000 A 
ATOM      6  C   UNK A   2       2.270   8.169  18.843  0.00  0.00    +0.000 A 
ATOM      7  C   UNK A   2       1.435   8.859  19.725  0.00  0.00    +0.000 A 
ATOM      8  C   UNK A   2       0.894   8.204  20.830  0.00  0.00    +0.000 A 
ATOM      9  C   UNK A   2       1.193   6.861  21.062  0.00  0.00    +0.000 A 
ATOM     10  C   UNK A   2       2.047   6.175  20.192  0.00  0.00    +0.000 A 
ATOM     11  C   UNK A   2       2.335   4.711  20.334  0.00  0.00    +0.000 C 
ATOM     12  C   UNK A   2       3.793   4.322  19.924  0.00  0.00    +0.000 C 
ENDROOT
BRANCH  12  13
ATOM     13  C   UNK A   2       3.785   2.776  19.813  0.00  0.00    +0.000 C 
ATOM     14  O   UNK A   2       2.776   2.109  19.598  0.00  0.00    +0.000 OA
BRANCH  13  15
ATOM     15  O   UNK A   2       4.948   2.159  20.113  0.00  0.00    +0.000 OA
ATOM     16  H   UNK A   2       4.813   1.251  20.476  0.00  0.00    +0.000 HD
ENDBRANCH  13  15
ENDBRANCH  12  13
BRANCH   1  17
ATOM     17  CA  ILE A   1       6.325   6.130  17.463  0.00  0.00    +0.000 C 
BRANCH  17  18
ATOM     18  N   ILE A   1       7.582   6.596  18.079  0.00  0.00    +0.000 NA
ATOM     19  H1  ILE A   1       7.605   6.298  19.054  0.00  0.00    +0.000 HD
ATOM     20  H2  ILE A   1       7.582   7.617  18.116  0.00  0.00    +0.000 HD
ENDBRANCH  17  18
BRANCH  17  21
ATOM     21  CB  ILE A   1       6.498   5.807  15.948  0.00  0.00    +0.000 C 
ATOM     22  CG2 ILE A   1       5.284   6.341  15.166  0.00  0.00    +0.000 C 
BRANCH  21  24
ATOM     23  CD1 ILE A   1       6.164   3.959  14.123  0.00  0.00    +0.000 C 
ATOM     24  CG1 ILE A   1       6.801   4.386  15.433  0.00  0.00    +0.000 C 
ENDBRANCH  21  24
ENDBRANCH  17  21
ENDBRANCH   1  17
TORSDOF 6
ENDMDL
MODEL 8
REMARK VINA RESULT:      -7.2      1.282      2.018
REMARK  Name = 
REMARK  8 active torsions:
REMARK  status: ('A' for Active; 'I' for Inactive)
REMARK    1  A    between atoms: CD1_1  and  CG1_2
REMARK    2  A    between atoms: CG1_2  and  CB_3
REMARK    3  A    between atoms: CB_3  and  CG2_4
REMARK    4  A    between atoms: CB_3  and  CA_5
REMARK    5  A    between atoms: CA_5  and  N_6
REMARK    6  A    between atoms: CA_5  and  C_7
REMARK    7  A    between atoms: C_18  and  C_19
REMARK    8  A    between atoms: C_19  and  O_21
REMARK                            x       y       z     vdW  Elec       q    Type
REMARK                         _______ _______ _______ _____ _____    ______ ____
ROOT
ATOM      1  C   ILE A   1       4.758   4.630  18.529  0.00  0.00    +0.000 C 
ATOM      2  O   ILE A   1       5.397   3.806  19.201  0.00  0.00    +0.000 OA
ATOM      3  N   UNK A   2       3.489   5.042  18.973  0.00  0.00    +0.000 N 
ATOM      4  C   UNK A   2       2.606   5.936  18.204  0.00  0.00    +0.000 C 
ATOM      5  C   UNK A   2       2.115   7.105  19.022  0.00  0.00    +0.000 A 
ATOM      6  C   UNK A   2       2.012   8.394  18.489  0.00  0.00    +0.000 A 
ATOM      7  C   UNK A   2       1.449   9.424  19.246  0.00  0.00    +0.000 A 
ATOM      8  C   UNK A   2       0.976   9.168  20.531  0.00  0.00    +0.000 A 
ATOM      9  C   UNK A   2       1.072   7.885  21.068  0.00  0.00    +0.000 A 
ATOM     10  C   UNK A   2       1.656   6.857  20.321  0.00  0.00    +0.000 A 
ATOM     11  C   UNK A   2       1.708   5.438  20.804  0.00  0.00    +0.000 C 
ATOM     12  C   UNK A   2       2.999   4.678  20.360  0.00  0.00    +0.000 C 
ENDROOT
BRANCH  12  13
ATOM     13  C   UNK A   2       2.711   3.183  20.652  0.00  0.00    +0.000 C 
ATOM     14  O   UNK A   2       2.390   2.366  19.792  0.00  0.00    +0.000 OA
BRANCH  13  15
ATOM     15  O   UNK A   2       2.688   2.831  21.955  0.00  0.00    +0.000 OA
ATOM     16  H   UNK A   2       3.010   3.552  22.548  0.00  0.00    +0.000 HD
ENDBRANCH  13  15
ENDBRANCH  12  13
BRANCH   1  17
ATOM     17  CA  ILE A   1       5.406   5.311  17.270  0.00  0.00    +0.000 C 
BRANCH  17  18
ATOM     18  N   ILE A   1       6.431   6.256  17.755  0.00  0.00    +0.000 NA
ATOM     19  H1  ILE A   1       6.500   6.180  18.769  0.00  0.00    +0.000 HD
ATOM     20  H2  ILE A   1       6.118   7.212  17.583  0.00  0.00    +0.000 HD
ENDBRANCH  17  18
BRANCH  17  21
ATOM     21  CB  ILE A   1       5.931   4.422  16.103  0.00  0.00    +0.000 C 
ATOM     22  CG2 ILE A   1       7.471   4.446  16.091  0.00  0.00    +0.000 C 
BRANCH  21  24
ATOM     23  CD1 ILE A   1       6.173   3.812  13.568  0.00  0.00    +0.000 C 
ATOM     24  CG1 ILE A   1       5.446   4.591  14.650  0.00  0.00    +0.000 C 
ENDBRANCH  21  24
ENDBRANCH  17  21
ENDBRANCH   1  17
TORSDOF 6
ENDMDL
MODEL 9
REMARK VINA RESULT:      -7.2      1.078      1.647
REMARK  Name = 
REMARK  8 active torsions:
REMARK  status: ('A' for Active; 'I' for Inactive)
REMARK    1  A    between atoms: CD1_1  and  CG1_2
REMARK    2  A    between atoms: CG1_2  and  CB_3
REMARK    3  A    between atoms: CB_3  and  CG2_4
REMARK    4  A    between atoms: CB_3  and  CA_5
REMARK    5  A    between atoms: CA_5  and  N_6
REMARK    6  A    between atoms: CA_5  and  C_7
REMARK    7  A    between atoms: C_18  and  C_19
REMARK    8  A    between atoms: C_19  and  O_21
REMARK                            x       y       z     vdW  Elec       q    Type
REMARK                         _______ _______ _______ _____ _____    ______ ____
ROOT
ATOM      1  C   ILE A   1       4.955   4.294  18.926  0.00  0.00    +0.000 C 
ATOM      2  O   ILE A   1       5.476   3.489  19.712  0.00  0.00    +0.000 OA
ATOM      3  N   UNK A   2       3.659   4.773  19.192  0.00  0.00    +0.000 N 
ATOM      4  C   UNK A   2       2.910   5.651  18.276  0.00  0.00    +0.000 C 
ATOM      5  C   UNK A   2       2.372   6.880  18.967  0.00  0.00    +0.000 A 
ATOM      6  C   UNK A   2       2.384   8.139  18.359  0.00  0.00    +0.000 A 
ATOM      7  C   UNK A   2       1.776   9.229  18.987  0.00  0.00    +0.000 A 
ATOM      8  C   UNK A   2       1.143   9.061  20.217  0.00  0.00    +0.000 A 
ATOM      9  C   UNK A   2       1.124   7.807  20.828  0.00  0.00    +0.000 A 
ATOM     10  C   UNK A   2       1.752   6.720  20.212  0.00  0.00    +0.000 A 
ATOM     11  C   UNK A   2       1.689   5.330  20.770  0.00  0.00    +0.000 C 
ATOM     12  C   UNK A   2       2.993   4.503  20.526  0.00  0.00    +0.000 C 
ENDROOT
BRANCH  12  13
ATOM     13  C   UNK A   2       2.613   3.038  20.857  0.00  0.00    +0.000 C 
ATOM     14  O   UNK A   2       2.801   2.512  21.952  0.00  0.00    +0.000 OA
BRANCH  13  15
ATOM     15  O   UNK A   2       2.181   2.292  19.818  0.00  0.00    +0.000 OA
ATOM     16  H   UNK A   2       2.866   2.187  19.116  0.00  0.00    +0.000 HD
ENDBRANCH  13  15
ENDBRANCH  12  13
BRANCH   1  17
ATOM     17  CA  ILE A   1       5.775   4.883  17.722  0.00  0.00    +0.000 C 
BRANCH  17  18
ATOM     18  N   ILE A   1       7.162   4.398  17.850  0.00  0.00    +0.000 NA
ATOM     19  H1  ILE A   1       7.572   4.312  16.921  0.00  0.00    +0.000 HD
ATOM     20  H2  ILE A   1       7.155   3.447  18.224  0.00  0.00    +0.000 HD
ENDBRANCH  17  18
BRANCH  17  21
ATOM     21  CB  ILE A   1       5.227   4.721  16.272  0.00  0.00    +0.000 C 
ATOM     22  CG2 ILE A   1       4.710   3.284  16.074  0.00  0.00    +0.000 C 
BRANCH  21  24
ATOM     23  CD1 ILE A   1       6.292   4.021  13.984  0.00  0.00    +0.000 C 
ATOM     24  CG1 ILE A   1       6.055   5.099  15.027  0.00  0.00    +0.000 C 
ENDBRANCH  21  24
ENDBRANCH  17  21
ENDBRANCH   1  17
TORSDOF 6
ENDMDL
