MODEL 1
REMARK VINA RESULT:      -7.4      0.000      0.000
REMARK  Name = 
REMARK  8 active torsions:
REMARK  status: ('A' for Active; 'I' for Inactive)
REMARK    1  A    between atoms: C_1  and  C_2
REMARK    2  A    between atoms: C_6  and  O_7
REMARK    3  A    between atoms: O_7  and  C_8
REMARK    4  A    between atoms: C_8  and  C_9
REMARK    5  A    between atoms: C_9  and  C_10
REMARK    6  A    between atoms: N_16  and  C_17
REMARK    7  A    between atoms: C_17  and  C_18
REMARK    8  A    between atoms: C_23  and  C_24
REMARK                            x       y       z     vdW  Elec       q    Type
REMARK                         _______ _______ _______ _____ _____    ______ ____
ROOT
ATOM      1  C   UNL     1       2.061   7.564  19.362  0.00  0.00    +0.000 C 
ATOM      2  O   UNL     1       1.631   8.219  20.312  0.00  0.00    +0.000 OA
ATOM      3  N   UNL     1       2.260   6.181  19.420  0.00  0.00    +0.000 N 
ATOM      4  C   UNL     1       1.861   5.523  20.662  0.00  0.00    +0.000 C 
ATOM      5  C   UNL     1       0.965   4.304  20.513  0.00  0.00    +0.000 C 
ATOM      6  C   UNL     1       1.322   3.202  19.516  0.00  0.00    +0.000 C 
ATOM      7  N   UNL     1       2.682   3.061  19.000  0.00  0.00    +0.000 NA
ATOM      8  C   UNL     1       2.999   4.148  18.061  0.00  0.00    +0.000 C 
ATOM      9  C   UNL     1       3.325   5.537  18.635  0.00  0.00    +0.000 C 
ENDROOT
BRANCH   1  10
ATOM     10  C   UNL     1       2.380   8.242  18.050  0.00  0.00    +0.000 C 
BRANCH  10  11
ATOM     11  C   UNL     1       1.862   9.670  18.062  0.00  0.00    +0.000 C 
BRANCH  11  12
ATOM     12  O   UNL     1       0.475   9.613  17.741  0.00  0.00    +0.000 OA
BRANCH  12  18
ATOM     13  C   UNL     1      -4.011  11.567  18.037  0.00  0.00    +0.000 C 
ATOM     14  C   UNL     1      -2.610  11.395  18.560  0.00  0.00    +0.000 A 
ATOM     15  C   UNL     1      -2.234  12.072  19.729  0.00  0.00    +0.000 A 
ATOM     16  C   UNL     1      -0.948  11.939  20.244  0.00  0.00    +0.000 A 
ATOM     17  C   UNL     1      -0.020  11.124  19.598  0.00  0.00    +0.000 A 
ATOM     18  C   UNL     1      -0.372  10.437  18.433  0.00  0.00    +0.000 A 
ATOM     19  C   UNL     1      -1.674  10.569  17.900  0.00  0.00    +0.000 A 
ATOM     20  C   UNL     1      -2.068   9.845  16.637  0.00  0.00    +0.000 C 
ENDBRANCH  12  18
ENDBRANCH  11  12
ENDBRANCH  10  11
ENDBRANCH   1  10
BRANCH   7  21
ATOM     21  C   UNL     1       3.742   2.852  20.008  0.00  0.00    +0.000 C 
BRANCH  21  22
ATOM     22  C   UNL     1       4.549   1.580  19.763  0.00  0.00    +0.000 C 
ATOM     23  N   UNL     1       4.253   0.914  18.607  0.00  0.00    +0.000 N 
ATOM     24  O   UNL     1       5.451   1.200  20.503  0.00  0.00    +0.000 OA
ATOM     25  H   UNL     1       3.358   1.096  18.172  0.00  0.00    +0.000 HD
ATOM     26  H   UNL     1       4.696   0.015  18.470  0.00  0.00    +0.000 HD
ENDBRANCH  21  22
ENDBRANCH   7  21
TORSDOF 6
ENDMDL
MODEL 2
REMARK VINA RESULT:      -7.1      5.869      7.745
REMARK  Name = 
REMARK  8 active torsions:
REMARK  status: ('A' for Active; 'I' for Inactive)
REMARK    1  A    between atoms: C_1  and  C_2
REMARK    2  A    between atoms: C_6  and  O_7
REMARK    3  A    between atoms: O_7  and  C_8
REMARK    4  A    between atoms: C_8  and  C_9
REMARK    5  A    between atoms: C_9  and  C_10
REMARK    6  A    between atoms: N_16  and  C_17
REMARK    7  A    between atoms: C_17  and  C_18
REMARK    8  A    between atoms: C_23  and  C_24
REMARK                            x       y       z     vdW  Elec       q    Type
REMARK                         _______ _______ _______ _____ _____    ______ ____
ROOT
ATOM      1  C   UNL     1       7.436   6.614  18.302  0.00  0.00    +0.000 C 
ATOM      2  O   UNL     1       8.337   6.087  18.957  0.00  0.00    +0.000 OA
ATOM      3  N   UNL     1       6.154   6.064  18.194  0.00  0.00    +0.000 N 
ATOM      4  C   UNL     1       5.906   4.848  18.965  0.00  0.00    +0.000 C 
ATOM      5  C   UNL     1       4.660   4.855  19.836  0.00  0.00    +0.000 C 
ATOM      6  C   UNL     1       3.317   5.302  19.258  0.00  0.00    +0.000 C 
ATOM      7  N   UNL     1       3.087   5.330  17.815  0.00  0.00    +0.000 NA
ATOM      8  C   UNL     1       3.835   6.432  17.189  0.00  0.00    +0.000 C 
ATOM      9  C   UNL     1       5.349   6.260  16.979  0.00  0.00    +0.000 C 
ENDROOT
BRANCH   1  10
ATOM     10  C   UNL     1       7.678   7.921  17.586  0.00  0.00    +0.000 C 
BRANCH  10  11
ATOM     11  C   UNL     1       8.610   8.799  18.403  0.00  0.00    +0.000 C 
BRANCH  11  12
ATOM     12  O   UNL     1       8.337  10.149  18.039  0.00  0.00    +0.000 OA
BRANCH  12  18
ATOM     13  C   UNL     1       9.508  14.909  18.066  0.00  0.00    +0.000 C 
ATOM     14  C   UNL     1       9.750  13.489  18.502  0.00  0.00    +0.000 A 
ATOM     15  C   UNL     1      10.821  13.216  19.365  0.00  0.00    +0.000 A 
ATOM     16  C   UNL     1      11.077  11.917  19.790  0.00  0.00    +0.000 A 
ATOM     17  C   UNL     1      10.264  10.870  19.361  0.00  0.00    +0.000 A 
ATOM     18  C   UNL     1       9.187  11.116  18.502  0.00  0.00    +0.000 A 
ATOM     19  C   UNL     1       8.922  12.433  18.062  0.00  0.00    +0.000 A 
ATOM     20  C   UNL     1       7.773  12.715  17.126  0.00  0.00    +0.000 C 
ENDBRANCH  12  18
ENDBRANCH  11  12
ENDBRANCH  10  11
ENDBRANCH   1  10
BRANCH   7  21
ATOM     21  C   UNL     1       3.262   4.047  17.103  0.00  0.00    +0.000 C 
BRANCH  21  22
ATOM     22  C   UNL     1       2.337   2.951  17.624  0.00  0.00    +0.000 C 
ATOM     23  N   UNL     1       2.950   1.772  17.942  0.00  0.00    +0.000 N 
ATOM     24  O   UNL     1       1.136   3.115  17.814  0.00  0.00    +0.000 OA
ATOM     25  H   UNL     1       3.858   1.586  17.537  0.00  0.00    +0.000 HD
ATOM     26  H   UNL     1       2.351   0.995  18.189  0.00  0.00    +0.000 HD
ENDBRANCH  21  22
ENDBRANCH   7  21
TORSDOF 6
ENDMDL
MODEL 3
REMARK VINA RESULT:      -7.1      2.824      4.547
REMARK  Name = 
REMARK  8 active torsions:
REMARK  status: ('A' for Active; 'I' for Inactive)
REMARK    1  A    between atoms: C_1  and  C_2
REMARK    2  A    between atoms: C_6  and  O_7
REMARK    3  A    between atoms: O_7  and  C_8
REMARK    4  A    between atoms: C_8  and  C_9
REMARK    5  A    between atoms: C_9  and  C_10
REMARK    6  A    between atoms: N_16  and  C_17
REMARK    7  A    between atoms: C_17  and  C_18
REMARK    8  A    between atoms: C_23  and  C_24
REMARK                            x       y       z     vdW  Elec       q    Type
REMARK                         _______ _______ _______ _____ _____    ______ ____
ROOT
ATOM      1  C   UNL     1       2.759   3.621  20.162  0.00  0.00    +0.000 C 
ATOM      2  O   UNL     1       2.437   2.433  20.208  0.00  0.00    +0.000 OA
ATOM      3  N   UNL     1       3.739   4.109  19.291  0.00  0.00    +0.000 N 
ATOM      4  C   UNL     1       4.327   3.138  18.372  0.00  0.00    +0.000 C 
ATOM      5  C   UNL     1       4.355   3.540  16.905  0.00  0.00    +0.000 C 
ATOM      6  C   UNL     1       4.871   4.918  16.493  0.00  0.00    +0.000 C 
ATOM      7  N   UNL     1       5.716   5.707  17.386  0.00  0.00    +0.000 NA
ATOM      8  C   UNL     1       4.934   6.231  18.517  0.00  0.00    +0.000 C 
ATOM      9  C   UNL     1       4.567   5.268  19.660  0.00  0.00    +0.000 C 
ENDROOT
BRANCH   1  10
ATOM     10  C   UNL     1       2.075   4.632  21.050  0.00  0.00    +0.000 C 
BRANCH  10  11
ATOM     11  C   UNL     1       1.384   5.688  20.204  0.00  0.00    +0.000 C 
BRANCH  11  12
ATOM     12  O   UNL     1       1.691   6.953  20.783  0.00  0.00    +0.000 OA
BRANCH  12  18
ATOM     13  C   UNL     1      -0.075  11.511  20.421  0.00  0.00    +0.000 C 
ATOM     14  C   UNL     1       0.656  10.330  19.841  0.00  0.00    +0.000 A 
ATOM     15  C   UNL     1       1.159  10.417  18.535  0.00  0.00    +0.000 A 
ATOM     16  C   UNL     1       1.840   9.347  17.964  0.00  0.00    +0.000 A 
ATOM     17  C   UNL     1       2.031   8.174  18.692  0.00  0.00    +0.000 A 
ATOM     18  C   UNL     1       1.542   8.064  19.997  0.00  0.00    +0.000 A 
ATOM     19  C   UNL     1       0.845   9.144  20.584  0.00  0.00    +0.000 A 
ATOM     20  C   UNL     1       0.299   9.039  21.986  0.00  0.00    +0.000 C 
ENDBRANCH  12  18
ENDBRANCH  11  12
ENDBRANCH  10  11
ENDBRANCH   1  10
BRANCH   7  21
ATOM     21  C   UNL     1       6.981   5.074  17.814  0.00  0.00    +0.000 C 
BRANCH  21  22
ATOM     22  C   UNL     1       7.820   5.977  18.714  0.00  0.00    +0.000 C 
ATOM     23  N   UNL     1       8.250   5.404  19.877  0.00  0.00    +0.000 N 
ATOM     24  O   UNL     1       8.153   7.117  18.404  0.00  0.00    +0.000 OA
ATOM     25  H   UNL     1       7.755   4.589  20.215  0.00  0.00    +0.000 HD
ATOM     26  H   UNL     1       8.717   6.008  20.540  0.00  0.00    +0.000 HD
ENDBRANCH  21  22
ENDBRANCH   7  21
TORSDOF 6
ENDMDL
MODEL 4
REMARK VINA RESULT:      -7.0      2.270      2.589
REMARK  Name = 
REMARK  8 active torsions:
REMARK  status: ('A' for Active; 'I' for Inactive)
REMARK    1  A    between atoms: C_1  and  C_2
REMARK    2  A    between atoms: C_6  and  O_7
REMARK    3  A    between atoms: O_7  and  C_8
REMARK    4  A    between atoms: C_8  and  C_9
REMARK    5  A    between atoms: C_9  and  C_10
REMARK    6  A    between atoms: N_16  and  C_17
REMARK    7  A    between atoms: C_17  and  C_18
REMARK    8  A    between atoms: C_23  and  C_24
REMARK                            x       y       z     vdW  Elec       q    Type
REMARK                         _______ _______ _______ _____ _____    ______ ____
ROOT
ATOM      1  C   UNL     1       2.250   7.433  19.212  0.00  0.00    +0.000 C 
ATOM      2  O   UNL     1       1.841   7.529  20.369  0.00  0.00    +0.000 OA
ATOM      3  N   UNL     1       3.138   6.433  18.800  0.00  0.00    +0.000 N 
ATOM      4  C   UNL     1       3.512   5.447  19.811  0.00  0.00    +0.000 C 
ATOM      5  C   UNL     1       3.372   3.989  19.403  0.00  0.00    +0.000 C 
ATOM      6  C   UNL     1       3.938   3.503  18.069  0.00  0.00    +0.000 C 
ATOM      7  N   UNL     1       4.960   4.268  17.358  0.00  0.00    +0.000 NA
ATOM      8  C   UNL     1       4.387   5.493  16.780  0.00  0.00    +0.000 C 
ATOM      9  C   UNL     1       4.102   6.679  17.717  0.00  0.00    +0.000 C 
ENDROOT
BRANCH   1  10
ATOM     10  C   UNL     1       1.780   8.402  18.153  0.00  0.00    +0.000 C 
BRANCH  10  11
ATOM     11  C   UNL     1       1.124   9.608  18.805  0.00  0.00    +0.000 C 
BRANCH  11  12
ATOM     12  O   UNL     1       0.130  10.080  17.899  0.00  0.00    +0.000 OA
BRANCH  12  18
ATOM     13  C   UNL     1      -4.628  11.207  17.553  0.00  0.00    +0.000 C 
ATOM     14  C   UNL     1      -3.290  11.330  18.230  0.00  0.00    +0.000 A 
ATOM     15  C   UNL     1      -3.175  12.147  19.364  0.00  0.00    +0.000 A 
ATOM     16  C   UNL     1      -1.955  12.286  20.018  0.00  0.00    +0.000 A 
ATOM     17  C   UNL     1      -0.831  11.608  19.549  0.00  0.00    +0.000 A 
ATOM     18  C   UNL     1      -0.921  10.786  18.422  0.00  0.00    +0.000 A 
ATOM     19  C   UNL     1      -2.155  10.641  17.749  0.00  0.00    +0.000 A 
ATOM     20  C   UNL     1      -2.267   9.768  16.523  0.00  0.00    +0.000 C 
ENDBRANCH  12  18
ENDBRANCH  11  12
ENDBRANCH  10  11
ENDBRANCH   1  10
BRANCH   7  21
ATOM     21  C   UNL     1       6.215   4.520  18.097  0.00  0.00    +0.000 C 
BRANCH  21  22
ATOM     22  C   UNL     1       7.330   5.057  17.203  0.00  0.00    +0.000 C 
ATOM     23  N   UNL     1       7.710   6.344  17.455  0.00  0.00    +0.000 N 
ATOM     24  O   UNL     1       7.903   4.377  16.358  0.00  0.00    +0.000 OA
ATOM     25  H   UNL     1       7.064   6.941  17.954  0.00  0.00    +0.000 HD
ATOM     26  H   UNL     1       8.371   6.761  16.812  0.00  0.00    +0.000 HD
ENDBRANCH  21  22
ENDBRANCH   7  21
TORSDOF 6
ENDMDL
MODEL 5
REMARK VINA RESULT:      -7.0      3.298      4.628
REMARK  Name = 
REMARK  8 active torsions:
REMARK  status: ('A' for Active; 'I' for Inactive)
REMARK    1  A    between atoms: C_1  and  C_2
REMARK    2  A    between atoms: C_6  and  O_7
REMARK    3  A    between atoms: O_7  and  C_8
REMARK    4  A    between atoms: C_8  and  C_9
REMARK    5  A    between atoms: C_9  and  C_10
REMARK    6  A    between atoms: N_16  and  C_17
REMARK    7  A    between atoms: C_17  and  C_18
REMARK    8  A    between atoms: C_23  and  C_24
REMARK                            x       y       z     vdW  Elec       q    Type
REMARK                         _______ _______ _______ _____ _____    ______ ____
ROOT
ATOM      1  C   UNL     1       2.676   4.401  17.717  0.00  0.00    +0.000 C 
ATOM      2  O   UNL     1       2.246   3.250  17.628  0.00  0.00    +0.000 OA
ATOM      3  N   UNL     1       3.990   4.749  17.387  0.00  0.00    +0.000 N 
ATOM      4  C   UNL     1       4.828   3.677  16.856  0.00  0.00    +0.000 C 
ATOM      5  C   UNL     1       5.564   3.984  15.561  0.00  0.00    +0.000 C 
ATOM      6  C   UNL     1       6.352   5.285  15.413  0.00  0.00    +0.000 C 
ATOM      7  N   UNL     1       6.774   6.052  16.583  0.00  0.00    +0.000 NA
ATOM      8  C   UNL     1       5.621   6.708  17.220  0.00  0.00    +0.000 C 
ATOM      9  C   UNL     1       4.675   5.852  18.079  0.00  0.00    +0.000 C 
ENDROOT
BRANCH   1  10
ATOM     10  C   UNL     1       1.772   5.520  18.177  0.00  0.00    +0.000 C 
BRANCH  10  11
ATOM     11  C   UNL     1       2.014   5.815  19.647  0.00  0.00    +0.000 C 
BRANCH  11  12
ATOM     12  O   UNL     1       2.440   7.172  19.735  0.00  0.00    +0.000 OA
BRANCH  12  18
ATOM     13  C   UNL     1      -0.055  11.270  18.731  0.00  0.00    +0.000 C 
ATOM     14  C   UNL     1       0.299  10.134  19.652  0.00  0.00    +0.000 A 
ATOM     15  C   UNL     1      -0.317  10.063  20.910  0.00  0.00    +0.000 A 
ATOM     16  C   UNL     1      -0.016   9.028  21.790  0.00  0.00    +0.000 A 
ATOM     17  C   UNL     1       0.904   8.048  21.425  0.00  0.00    +0.000 A 
ATOM     18  C   UNL     1       1.530   8.096  20.175  0.00  0.00    +0.000 A 
ATOM     19  C   UNL     1       1.234   9.145  19.276  0.00  0.00    +0.000 A 
ATOM     20  C   UNL     1       1.909   9.220  17.929  0.00  0.00    +0.000 C 
ENDBRANCH  12  18
ENDBRANCH  11  12
ENDBRANCH  10  11
ENDBRANCH   1  10
BRANCH   7  21
ATOM     21  C   UNL     1       7.630   5.339  17.553  0.00  0.00    +0.000 C 
BRANCH  21  22
ATOM     22  C   UNL     1       8.017   6.204  18.749  0.00  0.00    +0.000 C 
ATOM     23  N   UNL     1       7.998   5.571  19.959  0.00  0.00    +0.000 N 
ATOM     24  O   UNL     1       8.386   7.370  18.647  0.00  0.00    +0.000 OA
ATOM     25  H   UNL     1       7.452   4.723  20.041  0.00  0.00    +0.000 HD
ATOM     26  H   UNL     1       8.146   6.144  20.779  0.00  0.00    +0.000 HD
ENDBRANCH  21  22
ENDBRANCH   7  21
TORSDOF 6
ENDMDL
MODEL 6
REMARK VINA RESULT:      -7.0      1.754      2.442
REMARK  Name = 
REMARK  8 active torsions:
REMARK  status: ('A' for Active; 'I' for Inactive)
REMARK    1  A    between atoms: C_1  and  C_2
REMARK    2  A    between atoms: C_6  and  O_7
REMARK    3  A    between atoms: O_7  and  C_8
REMARK    4  A    between atoms: C_8  and  C_9
REMARK    5  A    between atoms: C_9  and  C_10
REMARK    6  A    between atoms: N_16  and  C_17
REMARK    7  A    between atoms: C_17  and  C_18
REMARK    8  A    between atoms: C_23  and  C_24
REMARK                            x       y       z     vdW  Elec       q    Type
REMARK                         _______ _______ _______ _____ _____    ______ ____
ROOT
ATOM      1  C   UNL     1       2.516   8.300  18.131  0.00  0.00    +0.000 C 
ATOM      2  O   UNL     1       2.706   9.093  17.208  0.00  0.00    +0.000 OA
ATOM      3  N   UNL     1       3.163   7.062  18.214  0.00  0.00    +0.000 N 
ATOM      4  C   UNL     1       4.144   6.775  17.171  0.00  0.00    +0.000 C 
ATOM      5  C   UNL     1       5.510   6.308  17.651  0.00  0.00    +0.000 C 
ATOM      6  C   UNL     1       5.622   5.195  18.692  0.00  0.00    +0.000 C 
ATOM      7  N   UNL     1       4.511   4.280  18.943  0.00  0.00    +0.000 NA
ATOM      8  C   UNL     1       3.420   4.966  19.652  0.00  0.00    +0.000 C 
ATOM      9  C   UNL     1       2.506   5.909  18.850  0.00  0.00    +0.000 C 
ENDROOT
BRANCH   1  10
ATOM     10  C   UNL     1       1.570   8.649  19.255  0.00  0.00    +0.000 C 
BRANCH  10  11
ATOM     11  C   UNL     1       1.003  10.043  19.045  0.00  0.00    +0.000 C 
BRANCH  11  12
ATOM     12  O   UNL     1      -0.230   9.890  18.347  0.00  0.00    +0.000 OA
BRANCH  12  18
ATOM     13  C   UNL     1      -4.734  11.510  17.289  0.00  0.00    +0.000 C 
ATOM     14  C   UNL     1      -3.514  11.486  18.170  0.00  0.00    +0.000 A 
ATOM     15  C   UNL     1      -3.498  12.276  19.329  0.00  0.00    +0.000 A 
ATOM     16  C   UNL     1      -2.389  12.281  20.169  0.00  0.00    +0.000 A 
ATOM     17  C   UNL     1      -1.280  11.494  19.864  0.00  0.00    +0.000 A 
ATOM     18  C   UNL     1      -1.273  10.696  18.716  0.00  0.00    +0.000 A 
ATOM     19  C   UNL     1      -2.393  10.687  17.855  0.00  0.00    +0.000 A 
ATOM     20  C   UNL     1      -2.398   9.842  16.605  0.00  0.00    +0.000 C 
ENDBRANCH  12  18
ENDBRANCH  11  12
ENDBRANCH  10  11
ENDBRANCH   1  10
BRANCH   7  21
ATOM     21  C   UNL     1       4.034   3.501  17.781  0.00  0.00    +0.000 C 
BRANCH  21  22
ATOM     22  C   UNL     1       3.299   2.226  18.184  0.00  0.00    +0.000 C 
ATOM     23  N   UNL     1       4.094   1.214  18.641  0.00  0.00    +0.000 N 
ATOM     24  O   UNL     1       2.077   2.119  18.170  0.00  0.00    +0.000 OA
ATOM     25  H   UNL     1       5.076   1.235  18.397  0.00  0.00    +0.000 HD
ATOM     26  H   UNL     1       3.647   0.323  18.816  0.00  0.00    +0.000 HD
ENDBRANCH  21  22
ENDBRANCH   7  21
TORSDOF 6
ENDMDL
MODEL 7
REMARK VINA RESULT:      -6.8      1.718      2.439
REMARK  Name = 
REMARK  8 active torsions:
REMARK  status: ('A' for Active; 'I' for Inactive)
REMARK    1  A    between atoms: C_1  and  C_2
REMARK    2  A    between atoms: C_6  and  O_7
REMARK    3  A    between atoms: O_7  and  C_8
REMARK    4  A    between atoms: C_8  and  C_9
REMARK    5  A    between atoms: C_9  and  C_10
REMARK    6  A    between atoms: N_16  and  C_17
REMARK    7  A    between atoms: C_17  and  C_18
REMARK    8  A    between atoms: C_23  and  C_24
REMARK                            x       y       z     vdW  Elec       q    Type
REMARK                         _______ _______ _______ _____ _____    ______ ____
ROOT
ATOM      1  C   UNL     1       1.451   8.079  20.590  0.00  0.00    +0.000 C 
ATOM      2  O   UNL     1       1.202   8.224  21.788  0.00  0.00    +0.000 OA
ATOM      3  N   UNL     1       1.879   6.864  20.045  0.00  0.00    +0.000 N 
ATOM      4  C   UNL     1       1.953   5.733  20.966  0.00  0.00    +0.000 C 
ATOM      5  C   UNL     1       1.260   4.458  20.513  0.00  0.00    +0.000 C 
ATOM      6  C   UNL     1       1.499   3.908  19.107  0.00  0.00    +0.000 C 
ATOM      7  N   UNL     1       2.667   4.311  18.327  0.00  0.00    +0.000 NA
ATOM      8  C   UNL     1       2.530   5.702  17.865  0.00  0.00    +0.000 C 
ATOM      9  C   UNL     1       2.774   6.834  18.877  0.00  0.00    +0.000 C 
ENDROOT
BRANCH   1  10
ATOM     10  C   UNL     1       1.279   9.232  19.630  0.00  0.00    +0.000 C 
BRANCH  10  11
ATOM     11  C   UNL     1       0.174  10.154  20.115  0.00  0.00    +0.000 C 
BRANCH  11  12
ATOM     12  O   UNL     1      -0.152  11.020  19.031  0.00  0.00    +0.000 OA
BRANCH  12  18
ATOM     13  C   UNL     1      -4.894  12.247  18.836  0.00  0.00    +0.000 C 
ATOM     14  C   UNL     1      -3.713  11.462  18.332  0.00  0.00    +0.000 A 
ATOM     15  C   UNL     1      -3.890  10.587  17.250  0.00  0.00    +0.000 A 
ATOM     16  C   UNL     1      -2.823   9.844  16.755  0.00  0.00    +0.000 A 
ATOM     17  C   UNL     1      -1.561   9.967  17.333  0.00  0.00    +0.000 A 
ATOM     18  C   UNL     1      -1.358  10.835  18.410  0.00  0.00    +0.000 A 
ATOM     19  C   UNL     1      -2.437  11.591  18.922  0.00  0.00    +0.000 A 
ATOM     20  C   UNL     1      -2.239  12.522  20.092  0.00  0.00    +0.000 C 
ENDBRANCH  12  18
ENDBRANCH  11  12
ENDBRANCH  10  11
ENDBRANCH   1  10
BRANCH   7  21
ATOM     21  C   UNL     1       3.984   4.041  18.939  0.00  0.00    +0.000 C 
BRANCH  21  22
ATOM     22  C   UNL     1       5.107   3.947  17.909  0.00  0.00    +0.000 C 
ATOM     23  N   UNL     1       6.366   4.152  18.399  0.00  0.00    +0.000 N 
ATOM     24  O   UNL     1       4.922   3.646  16.735  0.00  0.00    +0.000 OA
ATOM     25  H   UNL     1       6.458   4.644  19.277  0.00  0.00    +0.000 HD
ATOM     26  H   UNL     1       7.118   4.201  17.723  0.00  0.00    +0.000 HD
ENDBRANCH  21  22
ENDBRANCH   7  21
TORSDOF 6
ENDMDL
MODEL 8
REMARK VINA RESULT:      -6.8      2.002      3.018
REMARK  Name = 
REMARK  8 active torsions:
REMARK  status: ('A' for Active; 'I' for Inactive)
REMARK    1  A    between atoms: C_1  and  C_2
REMARK    2  A    between atoms: C_6  and  O_7
REMARK    3  A    between atoms: O_7  and  C_8
REMARK    4  A    between atoms: C_8  and  C_9
REMARK    5  A    between atoms: C_9  and  C_10
REMARK    6  A    between atoms: N_16  and  C_17
REMARK    7  A    between atoms: C_17  and  C_18
REMARK    8  A    between atoms: C_23  and  C_24
REMARK                            x       y       z     vdW  Elec       q    Type
REMARK                         _______ _______ _______ _____ _____    ______ ____
ROOT
ATOM      1  C   UNL     1       2.569   8.033  18.158  0.00  0.00    +0.000 C 
ATOM      2  O   UNL     1       2.765   8.819  17.231  0.00  0.00    +0.000 OA
ATOM      3  N   UNL     1       3.198   6.785  18.241  0.00  0.00    +0.000 N 
ATOM      4  C   UNL     1       4.168   6.480  17.193  0.00  0.00    +0.000 C 
ATOM      5  C   UNL     1       5.529   5.994  17.666  0.00  0.00    +0.000 C 
ATOM      6  C   UNL     1       5.631   4.883  18.710  0.00  0.00    +0.000 C 
ATOM      7  N   UNL     1       4.508   3.985  18.971  0.00  0.00    +0.000 NA
ATOM      8  C   UNL     1       3.431   4.691  19.685  0.00  0.00    +0.000 C 
ATOM      9  C   UNL     1       2.528   5.644  18.885  0.00  0.00    +0.000 C 
ENDROOT
BRANCH   1  10
ATOM     10  C   UNL     1       1.635   8.400  19.286  0.00  0.00    +0.000 C 
BRANCH  10  11
ATOM     11  C   UNL     1       1.209   9.852  19.158  0.00  0.00    +0.000 C 
BRANCH  11  12
ATOM     12  O   UNL     1      -0.185   9.904  19.450  0.00  0.00    +0.000 OA
BRANCH  12  18
ATOM     13  C   UNL     1      -2.381  13.463  22.008  0.00  0.00    +0.000 C 
ATOM     14  C   UNL     1      -1.657  12.145  21.935  0.00  0.00    +0.000 A 
ATOM     15  C   UNL     1      -1.405  11.442  23.122  0.00  0.00    +0.000 A 
ATOM     16  C   UNL     1      -0.739  10.221  23.096  0.00  0.00    +0.000 A 
ATOM     17  C   UNL     1      -0.317   9.683  21.882  0.00  0.00    +0.000 A 
ATOM     18  C   UNL     1      -0.559  10.363  20.684  0.00  0.00    +0.000 A 
ATOM     19  C   UNL     1      -1.232  11.606  20.701  0.00  0.00    +0.000 A 
ATOM     20  C   UNL     1      -1.490  12.360  19.420  0.00  0.00    +0.000 C 
ENDBRANCH  12  18
ENDBRANCH  11  12
ENDBRANCH  10  11
ENDBRANCH   1  10
BRANCH   7  21
ATOM     21  C   UNL     1       4.012   3.210  17.815  0.00  0.00    +0.000 C 
BRANCH  21  22
ATOM     22  C   UNL     1       3.351   1.897  18.222  0.00  0.00    +0.000 C 
ATOM     23  N   UNL     1       2.000   1.839  18.027  0.00  0.00    +0.000 N 
ATOM     24  O   UNL     1       3.977   0.926  18.636  0.00  0.00    +0.000 OA
ATOM     25  H   UNL     1       1.495   2.711  17.942  0.00  0.00    +0.000 HD
ATOM     26  H   UNL     1       1.519   1.023  18.384  0.00  0.00    +0.000 HD
ENDBRANCH  21  22
ENDBRANCH   7  21
TORSDOF 6
ENDMDL
MODEL 9
REMARK VINA RESULT:      -6.8      1.506      2.183
REMARK  Name = 
REMARK  8 active torsions:
REMARK  status: ('A' for Active; 'I' for Inactive)
REMARK    1  A    between atoms: C_1  and  C_2
REMARK    2  A    between atoms: C_6  and  O_7
REMARK    3  A    between atoms: O_7  and  C_8
REMARK    4  A    between atoms: C_8  and  C_9
REMARK    5  A    between atoms: C_9  and  C_10
REMARK    6  A    between atoms: N_16  and  C_17
REMARK    7  A    between atoms: C_17  and  C_18
REMARK    8  A    between atoms: C_23  and  C_24
REMARK                            x       y       z     vdW  Elec       q    Type
REMARK                         _______ _______ _______ _____ _____    ______ ____
ROOT
ATOM      1  C   UNL     1       2.081   7.727  19.340  0.00  0.00    +0.000 C 
ATOM      2  O   UNL     1       1.644   8.216  20.382  0.00  0.00    +0.000 OA
ATOM      3  N   UNL     1       2.444   6.380  19.227  0.00  0.00    +0.000 N 
ATOM      4  C   UNL     1       2.211   5.548  20.405  0.00  0.00    +0.000 C 
ATOM      5  C   UNL     1       1.455   4.250  20.165  0.00  0.00    +0.000 C 
ATOM      6  C   UNL     1       1.869   3.315  19.029  0.00  0.00    +0.000 C 
ATOM      7  N   UNL     1       3.198   3.400  18.427  0.00  0.00    +0.000 NA
ATOM      8  C   UNL     1       3.320   4.613  17.603  0.00  0.00    +0.000 C 
ATOM      9  C   UNL     1       3.520   5.962  18.315  0.00  0.00    +0.000 C 
ENDROOT
BRANCH   1  10
ATOM     10  C   UNL     1       2.228   8.576  18.100  0.00  0.00    +0.000 C 
BRANCH  10  11
ATOM     11  C   UNL     1       1.063   9.545  17.991  0.00  0.00    +0.000 C 
BRANCH  11  12
ATOM     12  O   UNL     1       1.543  10.822  18.401  0.00  0.00    +0.000 OA
BRANCH  12  18
ATOM     13  C   UNL     1       0.381  15.536  19.079  0.00  0.00    +0.000 C 
ATOM     14  C   UNL     1       0.073  14.069  19.214  0.00  0.00    +0.000 A 
ATOM     15  C   UNL     1      -1.130  13.681  19.821  0.00  0.00    +0.000 A 
ATOM     16  C   UNL     1      -1.451  12.334  19.965  0.00  0.00    +0.000 A 
ATOM     17  C   UNL     1      -0.574  11.356  19.501  0.00  0.00    +0.000 A 
ATOM     18  C   UNL     1       0.630  11.717  18.889  0.00  0.00    +0.000 A 
ATOM     19  C   UNL     1       0.966  13.082  18.743  0.00  0.00    +0.000 A 
ATOM     20  C   UNL     1       2.267  13.491  18.097  0.00  0.00    +0.000 C 
ENDBRANCH  12  18
ENDBRANCH  11  12
ENDBRANCH  10  11
ENDBRANCH   1  10
BRANCH   7  21
ATOM     21  C   UNL     1       4.342   3.216  19.344  0.00  0.00    +0.000 C 
BRANCH  21  22
ATOM     22  C   UNL     1       4.623   1.749  19.653  0.00  0.00    +0.000 C 
ATOM     23  N   UNL     1       4.292   0.870  18.660  0.00  0.00    +0.000 N 
ATOM     24  O   UNL     1       5.166   1.368  20.685  0.00  0.00    +0.000 OA
ATOM     25  H   UNL     1       3.626   1.172  17.962  0.00  0.00    +0.000 HD
ATOM     26  H   UNL     1       4.369  -0.116  18.876  0.00  0.00    +0.000 HD
ENDBRANCH  21  22
ENDBRANCH   7  21
TORSDOF 6
ENDMDL
