MODEL 1
REMARK VINA RESULT:      -7.0      0.000      0.000
REMARK  Name = 
REMARK  5 active torsions:
REMARK  status: ('A' for Active; 'I' for Inactive)
REMARK    1  A    between atoms: C_1  and  C_2
REMARK    2  A    between atoms: C_4  and  C_5
REMARK    3  A    between atoms: C_6  and  C_7
REMARK    4  A    between atoms: C_14  and  C_15
REMARK    5  A    between atoms: C_15  and  O_16
REMARK                            x       y       z     vdW  Elec       q    Type
REMARK                         _______ _______ _______ _____ _____    ______ ____
ROOT
ATOM      1  C   UNL     1       5.457   4.237  17.141  0.00  0.00    +0.000 C 
ATOM      2  O   UNL     1       5.701   3.583  16.122  0.00  0.00    +0.000 OA
ATOM      3  N   UNL     1       4.430   3.834  18.011  0.00  0.00    +0.000 N 
ATOM      4  C   UNL     1       3.917   2.463  17.829  0.00  0.00    +0.000 C 
ATOM      5  C   UNL     1       2.437   2.234  18.156  0.00  0.00    +0.000 C 
ATOM      6  O   UNL     1       2.182   2.413  19.543  0.00  0.00    +0.000 OA
ATOM      7  C   UNL     1       1.737   3.714  19.904  0.00  0.00    +0.000 C 
ATOM      8  C   UNL     1       2.603   4.880  19.423  0.00  0.00    +0.000 C 
ATOM      9  C   UNL     1       4.077   4.510  19.265  0.00  0.00    +0.000 C 
ENDROOT
BRANCH   1  15
ATOM     10  C   UNL     1       8.599   9.026  18.329  0.00  0.00    +0.000 C 
ATOM     11  C   UNL     1       7.750   7.846  17.986  0.00  0.00    +0.000 A 
ATOM     12  C   UNL     1       6.773   7.861  17.069  0.00  0.00    +0.000 A 
ATOM     13  C   UNL     1       5.984   6.656  16.788  0.00  0.00    +0.000 A 
ATOM     14  C   UNL     1       4.868   6.862  15.793  0.00  0.00    +0.000 C 
ATOM     15  C   UNL     1       6.275   5.479  17.403  0.00  0.00    +0.000 A 
ATOM     16  C   UNL     1       7.525   5.448  18.230  0.00  0.00    +0.000 A 
ATOM     17  O   UNL     1       8.072   4.411  18.599  0.00  0.00    +0.000 OA
ATOM     18  N   UNL     1       8.064   6.659  18.592  0.00  0.00    +0.000 N 
ATOM     19  H   UNL     1       8.854   6.609  19.227  0.00  0.00    +0.000 HD
ENDBRANCH   1  15
BRANCH   8  20
ATOM     20  C   UNL     1       2.044   5.592  18.185  0.00  0.00    +0.000 C 
BRANCH  20  21
ATOM     21  O   UNL     1       2.408   6.971  18.168  0.00  0.00    +0.000 OA
ATOM     22  H   UNL     1       3.198   7.073  17.613  0.00  0.00    +0.000 HD
ENDBRANCH  20  21
ENDBRANCH   8  20
TORSDOF 3
ENDMDL
MODEL 2
REMARK VINA RESULT:      -6.8      2.103      5.633
REMARK  Name = 
REMARK  5 active torsions:
REMARK  status: ('A' for Active; 'I' for Inactive)
REMARK    1  A    between atoms: C_1  and  C_2
REMARK    2  A    between atoms: C_4  and  C_5
REMARK    3  A    between atoms: C_6  and  C_7
REMARK    4  A    between atoms: C_14  and  C_15
REMARK    5  A    between atoms: C_15  and  O_16
REMARK                            x       y       z     vdW  Elec       q    Type
REMARK                         _______ _______ _______ _____ _____    ______ ____
ROOT
ATOM      1  C   UNL     1       4.268   3.314  17.527  0.00  0.00    +0.000 C 
ATOM      2  O   UNL     1       4.294   2.376  16.724  0.00  0.00    +0.000 OA
ATOM      3  N   UNL     1       5.024   4.474  17.284  0.00  0.00    +0.000 N 
ATOM      4  C   UNL     1       5.551   4.639  15.917  0.00  0.00    +0.000 C 
ATOM      5  C   UNL     1       6.889   5.374  15.779  0.00  0.00    +0.000 C 
ATOM      6  O   UNL     1       6.770   6.737  16.168  0.00  0.00    +0.000 OA
ATOM      7  C   UNL     1       7.119   7.005  17.519  0.00  0.00    +0.000 C 
ATOM      8  C   UNL     1       6.424   6.145  18.577  0.00  0.00    +0.000 C 
ATOM      9  C   UNL     1       5.041   5.661  18.147  0.00  0.00    +0.000 C 
ENDROOT
BRANCH   1  15
ATOM     10  C   UNL     1       1.030   2.555  22.339  0.00  0.00    +0.000 C 
ATOM     11  C   UNL     1       1.797   2.777  21.076  0.00  0.00    +0.000 A 
ATOM     12  C   UNL     1       1.339   3.477  20.029  0.00  0.00    +0.000 A 
ATOM     13  C   UNL     1       2.156   3.650  18.823  0.00  0.00    +0.000 A 
ATOM     14  C   UNL     1       1.464   4.389  17.704  0.00  0.00    +0.000 C 
ATOM     15  C   UNL     1       3.425   3.164  18.770  0.00  0.00    +0.000 A 
ATOM     16  C   UNL     1       3.981   2.608  20.047  0.00  0.00    +0.000 A 
ATOM     17  O   UNL     1       5.179   2.406  20.237  0.00  0.00    +0.000 OA
ATOM     18  N   UNL     1       3.081   2.304  21.039  0.00  0.00    +0.000 N 
ATOM     19  H   UNL     1       3.474   1.844  21.854  0.00  0.00    +0.000 HD
ENDBRANCH   1  15
BRANCH   8  20
ATOM     20  C   UNL     1       7.300   5.006  19.116  0.00  0.00    +0.000 C 
BRANCH  20  21
ATOM     21  O   UNL     1       7.955   5.380  20.326  0.00  0.00    +0.000 OA
ATOM     22  H   UNL     1       7.503   6.158  20.691  0.00  0.00    +0.000 HD
ENDBRANCH  20  21
ENDBRANCH   8  20
TORSDOF 3
ENDMDL
MODEL 3
REMARK VINA RESULT:      -6.6      0.986      1.015
REMARK  Name = 
REMARK  5 active torsions:
REMARK  status: ('A' for Active; 'I' for Inactive)
REMARK    1  A    between atoms: C_1  and  C_2
REMARK    2  A    between atoms: C_4  and  C_5
REMARK    3  A    between atoms: C_6  and  C_7
REMARK    4  A    between atoms: C_14  and  C_15
REMARK    5  A    between atoms: C_15  and  O_16
REMARK                            x       y       z     vdW  Elec       q    Type
REMARK                         _______ _______ _______ _____ _____    ______ ____
ROOT
ATOM      1  C   UNL     1       4.854   4.386  17.070  0.00  0.00    +0.000 C 
ATOM      2  O   UNL     1       4.662   3.990  15.915  0.00  0.00    +0.000 OA
ATOM      3  N   UNL     1       4.204   3.761  18.148  0.00  0.00    +0.000 N 
ATOM      4  C   UNL     1       3.581   2.454  17.870  0.00  0.00    +0.000 C 
ATOM      5  C   UNL     1       2.320   2.109  18.669  0.00  0.00    +0.000 C 
ATOM      6  O   UNL     1       2.612   1.957  20.053  0.00  0.00    +0.000 OA
ATOM      7  C   UNL     1       2.410   3.125  20.836  0.00  0.00    +0.000 C 
ATOM      8  C   UNL     1       3.101   4.397  20.339  0.00  0.00    +0.000 C 
ATOM      9  C   UNL     1       4.385   4.120  19.559  0.00  0.00    +0.000 C 
ENDROOT
BRANCH   1  15
ATOM     10  C   UNL     1       8.505   8.856  18.018  0.00  0.00    +0.000 C 
ATOM     11  C   UNL     1       7.515   7.763  17.777  0.00  0.00    +0.000 A 
ATOM     12  C   UNL     1       6.222   7.966  17.491  0.00  0.00    +0.000 A 
ATOM     13  C   UNL     1       5.314   6.836  17.266  0.00  0.00    +0.000 A 
ATOM     14  C   UNL     1       3.875   7.231  17.040  0.00  0.00    +0.000 C 
ATOM     15  C   UNL     1       5.781   5.559  17.275  0.00  0.00    +0.000 A 
ATOM     16  C   UNL     1       7.269   5.393  17.353  0.00  0.00    +0.000 A 
ATOM     17  O   UNL     1       7.853   4.346  17.081  0.00  0.00    +0.000 OA
ATOM     18  N   UNL     1       7.998   6.482  17.765  0.00  0.00    +0.000 N 
ATOM     19  H   UNL     1       8.990   6.314  17.898  0.00  0.00    +0.000 HD
ENDBRANCH   1  15
BRANCH   8  20
ATOM     20  C   UNL     1       2.162   5.357  19.597  0.00  0.00    +0.000 C 
BRANCH  20  21
ATOM     21  O   UNL     1       2.204   6.666  20.160  0.00  0.00    +0.000 OA
ATOM     22  H   UNL     1       3.103   6.830  20.489  0.00  0.00    +0.000 HD
ENDBRANCH  20  21
ENDBRANCH   8  20
TORSDOF 3
ENDMDL
MODEL 4
REMARK VINA RESULT:      -6.5      1.354      1.958
REMARK  Name = 
REMARK  5 active torsions:
REMARK  status: ('A' for Active; 'I' for Inactive)
REMARK    1  A    between atoms: C_1  and  C_2
REMARK    2  A    between atoms: C_4  and  C_5
REMARK    3  A    between atoms: C_6  and  C_7
REMARK    4  A    between atoms: C_14  and  C_15
REMARK    5  A    between atoms: C_15  and  O_16
REMARK                            x       y       z     vdW  Elec       q    Type
REMARK                         _______ _______ _______ _____ _____    ______ ____
ROOT
ATOM      1  C   UNL     1       5.012   4.523  16.956  0.00  0.00    +0.000 C 
ATOM      2  O   UNL     1       4.956   4.103  15.795  0.00  0.00    +0.000 OA
ATOM      3  N   UNL     1       4.291   3.880  17.976  0.00  0.00    +0.000 N 
ATOM      4  C   UNL     1       3.766   2.538  17.662  0.00  0.00    +0.000 C 
ATOM      5  C   UNL     1       2.451   2.138  18.340  0.00  0.00    +0.000 C 
ATOM      6  O   UNL     1       2.611   2.021  19.748  0.00  0.00    +0.000 OA
ATOM      7  C   UNL     1       2.273   3.188  20.486  0.00  0.00    +0.000 C 
ATOM      8  C   UNL     1       2.945   4.487  20.036  0.00  0.00    +0.000 C 
ATOM      9  C   UNL     1       4.312   4.267  19.391  0.00  0.00    +0.000 C 
ENDROOT
BRANCH   1  15
ATOM     10  C   UNL     1       8.236   9.321  17.852  0.00  0.00    +0.000 C 
ATOM     11  C   UNL     1       7.474   8.054  17.636  0.00  0.00    +0.000 A 
ATOM     12  C   UNL     1       7.952   6.831  17.902  0.00  0.00    +0.000 A 
ATOM     13  C   UNL     1       7.138   5.635  17.663  0.00  0.00    +0.000 A 
ATOM     14  C   UNL     1       7.851   4.333  17.934  0.00  0.00    +0.000 C 
ATOM     15  C   UNL     1       5.854   5.747  17.230  0.00  0.00    +0.000 A 
ATOM     16  C   UNL     1       5.283   7.132  17.181  0.00  0.00    +0.000 A 
ATOM     17  O   UNL     1       4.079   7.371  17.098  0.00  0.00    +0.000 OA
ATOM     18  N   UNL     1       6.174   8.176  17.221  0.00  0.00    +0.000 N 
ATOM     19  H   UNL     1       5.769   9.098  17.093  0.00  0.00    +0.000 HD
ENDBRANCH   1  15
BRANCH   8  20
ATOM     20  C   UNL     1       2.036   5.386  19.187  0.00  0.00    +0.000 C 
BRANCH  20  21
ATOM     21  O   UNL     1       2.382   6.762  19.333  0.00  0.00    +0.000 OA
ATOM     22  H   UNL     1       1.599   7.244  19.644  0.00  0.00    +0.000 HD
ENDBRANCH  20  21
ENDBRANCH   8  20
TORSDOF 3
ENDMDL
MODEL 5
REMARK VINA RESULT:      -6.4      2.479      5.527
REMARK  Name = 
REMARK  5 active torsions:
REMARK  status: ('A' for Active; 'I' for Inactive)
REMARK    1  A    between atoms: C_1  and  C_2
REMARK    2  A    between atoms: C_4  and  C_5
REMARK    3  A    between atoms: C_6  and  C_7
REMARK    4  A    between atoms: C_14  and  C_15
REMARK    5  A    between atoms: C_15  and  O_16
REMARK                            x       y       z     vdW  Elec       q    Type
REMARK                         _______ _______ _______ _____ _____    ______ ____
ROOT
ATOM      1  C   UNL     1       3.178   5.428  17.794  0.00  0.00    +0.000 C 
ATOM      2  O   UNL     1       2.528   4.446  17.422  0.00  0.00    +0.000 OA
ATOM      3  N   UNL     1       4.486   5.631  17.322  0.00  0.00    +0.000 N 
ATOM      4  C   UNL     1       4.892   4.831  16.151  0.00  0.00    +0.000 C 
ATOM      5  C   UNL     1       6.371   4.440  16.064  0.00  0.00    +0.000 C 
ATOM      6  O   UNL     1       7.198   5.583  15.884  0.00  0.00    +0.000 OA
ATOM      7  C   UNL     1       7.734   6.125  17.083  0.00  0.00    +0.000 C 
ATOM      8  C   UNL     1       6.727   6.434  18.193  0.00  0.00    +0.000 C 
ATOM      9  C   UNL     1       5.335   6.777  17.665  0.00  0.00    +0.000 C 
ENDROOT
BRANCH   1  15
ATOM     10  C   UNL     1       0.823   9.217  21.578  0.00  0.00    +0.000 C 
ATOM     11  C   UNL     1       1.424   8.198  20.666  0.00  0.00    +0.000 A 
ATOM     12  C   UNL     1       1.517   6.892  20.951  0.00  0.00    +0.000 A 
ATOM     13  C   UNL     1       2.120   5.953  19.999  0.00  0.00    +0.000 A 
ATOM     14  C   UNL     1       2.227   4.536  20.505  0.00  0.00    +0.000 C 
ATOM     15  C   UNL     1       2.534   6.378  18.775  0.00  0.00    +0.000 A 
ATOM     16  C   UNL     1       2.186   7.789  18.405  0.00  0.00    +0.000 A 
ATOM     17  O   UNL     1       2.226   8.221  17.255  0.00  0.00    +0.000 OA
ATOM     18  N   UNL     1       1.817   8.629  19.427  0.00  0.00    +0.000 N 
ATOM     19  H   UNL     1       1.677   9.599  19.162  0.00  0.00    +0.000 HD
ENDBRANCH   1  15
BRANCH   8  20
ATOM     20  C   UNL     1       6.686   5.372  19.300  0.00  0.00    +0.000 C 
BRANCH  20  21
ATOM     21  O   UNL     1       7.767   5.532  20.216  0.00  0.00    +0.000 OA
ATOM     22  H   UNL     1       8.597   5.345  19.748  0.00  0.00    +0.000 HD
ENDBRANCH  20  21
ENDBRANCH   8  20
TORSDOF 3
ENDMDL
MODEL 6
REMARK VINA RESULT:      -6.4      1.631      2.040
REMARK  Name = 
REMARK  5 active torsions:
REMARK  status: ('A' for Active; 'I' for Inactive)
REMARK    1  A    between atoms: C_1  and  C_2
REMARK    2  A    between atoms: C_4  and  C_5
REMARK    3  A    between atoms: C_6  and  C_7
REMARK    4  A    between atoms: C_14  and  C_15
REMARK    5  A    between atoms: C_15  and  O_16
REMARK                            x       y       z     vdW  Elec       q    Type
REMARK                         _______ _______ _______ _____ _____    ______ ____
ROOT
ATOM      1  C   UNL     1       3.435   4.167  17.420  0.00  0.00    +0.000 C 
ATOM      2  O   UNL     1       2.919   3.829  16.349  0.00  0.00    +0.000 OA
ATOM      3  N   UNL     1       2.971   3.628  18.631  0.00  0.00    +0.000 N 
ATOM      4  C   UNL     1       2.109   2.435  18.530  0.00  0.00    +0.000 C 
ATOM      5  C   UNL     1       1.034   2.270  19.610  0.00  0.00    +0.000 C 
ATOM      6  O   UNL     1       1.617   2.048  20.888  0.00  0.00    +0.000 OA
ATOM      7  C   UNL     1       1.786   3.218  21.677  0.00  0.00    +0.000 C 
ATOM      8  C   UNL     1       2.525   4.380  21.010  0.00  0.00    +0.000 C 
ATOM      9  C   UNL     1       3.531   3.927  19.954  0.00  0.00    +0.000 C 
ENDROOT
BRANCH   1  15
ATOM     10  C   UNL     1       7.848   8.006  17.395  0.00  0.00    +0.000 C 
ATOM     11  C   UNL     1       6.675   7.082  17.421  0.00  0.00    +0.000 A 
ATOM     12  C   UNL     1       5.401   7.483  17.528  0.00  0.00    +0.000 A 
ATOM     13  C   UNL     1       4.304   6.509  17.544  0.00  0.00    +0.000 A 
ATOM     14  C   UNL     1       2.938   7.116  17.755  0.00  0.00    +0.000 C 
ATOM     15  C   UNL     1       4.552   5.182  17.381  0.00  0.00    +0.000 A 
ATOM     16  C   UNL     1       5.958   4.806  17.019  0.00  0.00    +0.000 A 
ATOM     17  O   UNL     1       6.272   3.709  16.559  0.00  0.00    +0.000 OA
ATOM     18  N   UNL     1       6.932   5.750  17.233  0.00  0.00    +0.000 N 
ATOM     19  H   UNL     1       7.883   5.437  17.068  0.00  0.00    +0.000 HD
ENDBRANCH   1  15
BRANCH   8  20
ATOM     20  C   UNL     1       1.594   5.486  20.494  0.00  0.00    +0.000 C 
BRANCH  20  21
ATOM     21  O   UNL     1       1.923   6.751  21.063  0.00  0.00    +0.000 OA
ATOM     22  H   UNL     1       1.639   6.753  21.991  0.00  0.00    +0.000 HD
ENDBRANCH  20  21
ENDBRANCH   8  20
TORSDOF 3
ENDMDL
MODEL 7
REMARK VINA RESULT:      -6.1      2.417      3.713
REMARK  Name = 
REMARK  5 active torsions:
REMARK  status: ('A' for Active; 'I' for Inactive)
REMARK    1  A    between atoms: C_1  and  C_2
REMARK    2  A    between atoms: C_4  and  C_5
REMARK    3  A    between atoms: C_6  and  C_7
REMARK    4  A    between atoms: C_14  and  C_15
REMARK    5  A    between atoms: C_15  and  O_16
REMARK                            x       y       z     vdW  Elec       q    Type
REMARK                         _______ _______ _______ _____ _____    ______ ____
ROOT
ATOM      1  C   UNL     1       4.736   5.117  18.481  0.00  0.00    +0.000 C 
ATOM      2  O   UNL     1       5.601   5.569  19.238  0.00  0.00    +0.000 OA
ATOM      3  N   UNL     1       3.432   4.888  18.953  0.00  0.00    +0.000 N 
ATOM      4  C   UNL     1       3.083   5.509  20.244  0.00  0.00    +0.000 C 
ATOM      5  C   UNL     1       2.079   4.754  21.122  0.00  0.00    +0.000 C 
ATOM      6  O   UNL     1       0.795   4.707  20.512  0.00  0.00    +0.000 OA
ATOM      7  C   UNL     1       0.538   3.533  19.753  0.00  0.00    +0.000 C 
ATOM      8  C   UNL     1       1.582   3.174  18.694  0.00  0.00    +0.000 C 
ATOM      9  C   UNL     1       2.318   4.391  18.136  0.00  0.00    +0.000 C 
ENDROOT
BRANCH   1  15
ATOM     10  C   UNL     1       6.411   3.837  13.024  0.00  0.00    +0.000 C 
ATOM     11  C   UNL     1       5.982   4.237  14.398  0.00  0.00    +0.000 A 
ATOM     12  C   UNL     1       5.569   5.467  14.732  0.00  0.00    +0.000 A 
ATOM     13  C   UNL     1       5.162   5.778  16.107  0.00  0.00    +0.000 A 
ATOM     14  C   UNL     1       4.807   7.227  16.337  0.00  0.00    +0.000 C 
ATOM     15  C   UNL     1       5.129   4.806  17.057  0.00  0.00    +0.000 A 
ATOM     16  C   UNL     1       5.360   3.402  16.583  0.00  0.00    +0.000 A 
ATOM     17  O   UNL     1       5.077   2.405  17.246  0.00  0.00    +0.000 OA
ATOM     18  N   UNL     1       5.929   3.247  15.343  0.00  0.00    +0.000 N 
ATOM     19  H   UNL     1       6.159   2.292  15.088  0.00  0.00    +0.000 HD
ENDBRANCH   1  15
BRANCH   8  20
ATOM     20  C   UNL     1       2.543   2.060  19.131  0.00  0.00    +0.000 C 
BRANCH  20  21
ATOM     21  O   UNL     1       2.824   1.164  18.058  0.00  0.00    +0.000 OA
ATOM     22  H   UNL     1       2.931   1.684  17.244  0.00  0.00    +0.000 HD
ENDBRANCH  20  21
ENDBRANCH   8  20
TORSDOF 3
ENDMDL
MODEL 8
REMARK VINA RESULT:      -6.0      2.593      5.289
REMARK  Name = 
REMARK  5 active torsions:
REMARK  status: ('A' for Active; 'I' for Inactive)
REMARK    1  A    between atoms: C_1  and  C_2
REMARK    2  A    between atoms: C_4  and  C_5
REMARK    3  A    between atoms: C_6  and  C_7
REMARK    4  A    between atoms: C_14  and  C_15
REMARK    5  A    between atoms: C_15  and  O_16
REMARK                            x       y       z     vdW  Elec       q    Type
REMARK                         _______ _______ _______ _____ _____    ______ ____
ROOT
ATOM      1  C   UNL     1       3.056   5.437  17.910  0.00  0.00    +0.000 C 
ATOM      2  O   UNL     1       2.366   4.483  17.533  0.00  0.00    +0.000 OA
ATOM      3  N   UNL     1       4.337   5.639  17.372  0.00  0.00    +0.000 N 
ATOM      4  C   UNL     1       4.659   4.888  16.144  0.00  0.00    +0.000 C 
ATOM      5  C   UNL     1       6.123   4.477  15.953  0.00  0.00    +0.000 C 
ATOM      6  O   UNL     1       6.960   5.614  15.777  0.00  0.00    +0.000 OA
ATOM      7  C   UNL     1       7.575   6.092  16.965  0.00  0.00    +0.000 C 
ATOM      8  C   UNL     1       6.640   6.365  18.145  0.00  0.00    +0.000 C 
ATOM      9  C   UNL     1       5.227   6.755  17.716  0.00  0.00    +0.000 C 
ENDROOT
BRANCH   1  15
ATOM     10  C   UNL     1       0.720   8.862  22.037  0.00  0.00    +0.000 C 
ATOM     11  C   UNL     1       1.308   8.044  20.935  0.00  0.00    +0.000 A 
ATOM     12  C   UNL     1       1.659   8.532  19.737  0.00  0.00    +0.000 A 
ATOM     13  C   UNL     1       2.234   7.661  18.707  0.00  0.00    +0.000 A 
ATOM     14  C   UNL     1       2.496   8.347  17.388  0.00  0.00    +0.000 C 
ATOM     15  C   UNL     1       2.487   6.351  18.969  0.00  0.00    +0.000 A 
ATOM     16  C   UNL     1       2.309   5.908  20.391  0.00  0.00    +0.000 A 
ATOM     17  O   UNL     1       2.769   4.859  20.840  0.00  0.00    +0.000 OA
ATOM     18  N   UNL     1       1.581   6.731  21.215  0.00  0.00    +0.000 N 
ATOM     19  H   UNL     1       1.398   6.363  22.143  0.00  0.00    +0.000 HD
ENDBRANCH   1  15
BRANCH   8  20
ATOM     20  C   UNL     1       6.643   5.254  19.203  0.00  0.00    +0.000 C 
BRANCH  20  21
ATOM     21  O   UNL     1       7.631   5.491  20.205  0.00  0.00    +0.000 OA
ATOM     22  H   UNL     1       7.198   5.898  20.973  0.00  0.00    +0.000 HD
ENDBRANCH  20  21
ENDBRANCH   8  20
TORSDOF 3
ENDMDL
MODEL 9
REMARK VINA RESULT:      -5.8      1.542      1.573
REMARK  Name = 
REMARK  5 active torsions:
REMARK  status: ('A' for Active; 'I' for Inactive)
REMARK    1  A    between atoms: C_1  and  C_2
REMARK    2  A    between atoms: C_4  and  C_5
REMARK    3  A    between atoms: C_6  and  C_7
REMARK    4  A    between atoms: C_14  and  C_15
REMARK    5  A    between atoms: C_15  and  O_16
REMARK                            x       y       z     vdW  Elec       q    Type
REMARK                         _______ _______ _______ _____ _____    ______ ____
ROOT
ATOM      1  C   UNL     1       5.461   4.074  18.885  0.00  0.00    +0.000 C 
ATOM      2  O   UNL     1       5.959   2.980  18.601  0.00  0.00    +0.000 OA
ATOM      3  N   UNL     1       4.204   4.139  19.508  0.00  0.00    +0.000 N 
ATOM      4  C   UNL     1       3.694   2.882  20.087  0.00  0.00    +0.000 C 
ATOM      5  C   UNL     1       2.173   2.689  20.082  0.00  0.00    +0.000 C 
ATOM      6  O   UNL     1       1.530   3.633  20.929  0.00  0.00    +0.000 OA
ATOM      7  C   UNL     1       1.070   4.807  20.273  0.00  0.00    +0.000 C 
ATOM      8  C   UNL     1       2.101   5.552  19.424  0.00  0.00    +0.000 C 
ATOM      9  C   UNL     1       3.534   5.377  19.924  0.00  0.00    +0.000 C 
ENDROOT
BRANCH   1  15
ATOM     10  C   UNL     1       8.398   8.979  17.646  0.00  0.00    +0.000 C 
ATOM     11  C   UNL     1       7.606   7.738  17.901  0.00  0.00    +0.000 A 
ATOM     12  C   UNL     1       6.748   7.198  17.026  0.00  0.00    +0.000 A 
ATOM     13  C   UNL     1       6.009   5.974  17.353  0.00  0.00    +0.000 A 
ATOM     14  C   UNL     1       5.020   5.543  16.296  0.00  0.00    +0.000 C 
ATOM     15  C   UNL     1       6.232   5.322  18.525  0.00  0.00    +0.000 A 
ATOM     16  C   UNL     1       7.372   5.822  19.360  0.00  0.00    +0.000 A 
ATOM     17  O   UNL     1       7.879   5.177  20.277  0.00  0.00    +0.000 OA
ATOM     18  N   UNL     1       7.854   7.076  19.074  0.00  0.00    +0.000 N 
ATOM     19  H   UNL     1       8.561   7.425  19.712  0.00  0.00    +0.000 HD
ENDBRANCH   1  15
BRANCH   8  20
ATOM     20  C   UNL     1       1.970   5.281  17.919  0.00  0.00    +0.000 C 
BRANCH  20  21
ATOM     21  O   UNL     1       1.121   4.164  17.663  0.00  0.00    +0.000 OA
ATOM     22  H   UNL     1       1.629   3.500  17.171  0.00  0.00    +0.000 HD
ENDBRANCH  20  21
ENDBRANCH   8  20
TORSDOF 3
ENDMDL
