MODEL 1
REMARK VINA RESULT:      -8.3      0.000      0.000
REMARK  Name = 
REMARK  8 active torsions:
REMARK  status: ('A' for Active; 'I' for Inactive)
REMARK    1  A    between atoms: C_1  and  O_2
REMARK    2  A    between atoms: O_2  and  C_3
REMARK    3  A    between atoms: C_7  and  C_8
REMARK    4  A    between atoms: N_9  and  N_10
REMARK    5  A    between atoms: C_11  and  C_13
REMARK    6  A    between atoms: C_13  and  N_14
REMARK    7  A    between atoms: C_15  and  C_17
REMARK    8  A    between atoms: C_27  and  O_28
REMARK                            x       y       z     vdW  Elec       q    Type
REMARK                         _______ _______ _______ _____ _____    ______ ____
ROOT
ATOM      1  N   UNL     1       8.872   8.689  19.031  0.00  0.00    +0.000 N 
ATOM      2  C   UNL     1       8.117   7.922  18.151  0.00  0.00    +0.000 C 
ATOM      3  O   UNL     1       7.412   8.387  17.254  0.00  0.00    +0.000 OA
ATOM      4  H   UNL     1       9.267   8.278  19.876  0.00  0.00    +0.000 HD
ENDROOT
BRANCH   1   6
ATOM      5  C   UNL     1       9.855  10.586  18.201  0.00  0.00    +0.000 C 
ATOM      6  N   UNL     1       8.880  10.024  18.833  0.00  0.00    +0.000 NA
BRANCH   5  11
ATOM      7  C   UNL     1      10.923  14.172  17.467  0.00  0.00    +0.000 A 
ATOM      8  C   UNL     1       9.710  14.827  17.711  0.00  0.00    +0.000 A 
ATOM      9  C   UNL     1       8.569  14.122  18.101  0.00  0.00    +0.000 A 
ATOM     10  C   UNL     1       8.625  12.739  18.255  0.00  0.00    +0.000 A 
ATOM     11  C   UNL     1       9.828  12.061  18.020  0.00  0.00    +0.000 A 
ATOM     12  C   UNL     1      10.980  12.778  17.621  0.00  0.00    +0.000 A 
BRANCH   7  14
ATOM     13  C   UNL     1      11.624  16.412  16.968  0.00  0.00    +0.000 C 
ATOM     14  O   UNL     1      11.925  15.027  17.094  0.00  0.00    +0.000 OA
ENDBRANCH   7  14
BRANCH  12  15
ATOM     15  O   UNL     1      12.162  12.125  17.376  0.00  0.00    +0.000 OA
ATOM     16  H   UNL     1      12.866  12.478  17.969  0.00  0.00    +0.000 HD
ENDBRANCH  12  15
ENDBRANCH   5  11
ENDBRANCH   1   6
BRANCH   2  17
ATOM     17  C   UNL     1       8.153   6.425  18.421  0.00  0.00    +0.000 C 
BRANCH  17  18
ATOM     18  N   UNL     1       6.809   5.883  18.552  0.00  0.00    +0.000 N 
ATOM     19  C   UNL     1       6.423   4.811  17.781  0.00  0.00    +0.000 C 
ATOM     20  O   UNL     1       7.211   4.282  16.999  0.00  0.00    +0.000 OA
ATOM     21  H   UNL     1       6.268   6.183  19.350  0.00  0.00    +0.000 HD
BRANCH  19  22
ATOM     22  C   UNL     1       5.026   4.299  17.900  0.00  0.00    +0.000 A 
ATOM     23  C   UNL     1       4.223   3.932  16.816  0.00  0.00    +0.000 A 
ATOM     24  C   UNL     1       2.910   3.490  17.040  0.00  0.00    +0.000 A 
ATOM     25  C   UNL     1       2.395   3.400  18.336  0.00  0.00    +0.000 A 
ATOM     26  C   UNL     1       3.202   3.718  19.415  0.00  0.00    +0.000 A 
ATOM     27  C   UNL     1       4.505   4.173  19.197  0.00  0.00    +0.000 A 
ATOM     28  O   UNL     1       2.833   3.571  20.713  0.00  0.00    +0.000 OA
ATOM     29  C   UNL     1       1.438   3.421  20.921  0.00  0.00    +0.000 C 
ATOM     30  C   UNL     1       0.595   2.887  19.765  0.00  0.00    +0.000 C 
ATOM     31  O   UNL     1       1.105   2.994  18.443  0.00  0.00    +0.000 OA
ENDBRANCH  19  22
ENDBRANCH  17  18
ENDBRANCH   2  17
TORSDOF 7
ENDMDL
MODEL 2
REMARK VINA RESULT:      -8.2      5.936      8.623
REMARK  Name = 
REMARK  8 active torsions:
REMARK  status: ('A' for Active; 'I' for Inactive)
REMARK    1  A    between atoms: C_1  and  O_2
REMARK    2  A    between atoms: O_2  and  C_3
REMARK    3  A    between atoms: C_7  and  C_8
REMARK    4  A    between atoms: N_9  and  N_10
REMARK    5  A    between atoms: C_11  and  C_13
REMARK    6  A    between atoms: C_13  and  N_14
REMARK    7  A    between atoms: C_15  and  C_17
REMARK    8  A    between atoms: C_27  and  O_28
REMARK                            x       y       z     vdW  Elec       q    Type
REMARK                         _______ _______ _______ _____ _____    ______ ____
ROOT
ATOM      1  N   UNL     1       2.805   5.908  20.007  0.00  0.00    +0.000 N 
ATOM      2  C   UNL     1       2.445   4.624  20.406  0.00  0.00    +0.000 C 
ATOM      3  O   UNL     1       1.443   4.361  21.072  0.00  0.00    +0.000 OA
ATOM      4  H   UNL     1       3.737   6.099  19.644  0.00  0.00    +0.000 HD
ENDROOT
BRANCH   1   6
ATOM      5  C   UNL     1       2.017   8.036  19.692  0.00  0.00    +0.000 C 
ATOM      6  N   UNL     1       1.955   6.909  20.317  0.00  0.00    +0.000 NA
BRANCH   5  11
ATOM      7  C   UNL     1      -0.028  10.505  21.758  0.00  0.00    +0.000 A 
ATOM      8  C   UNL     1      -0.730  11.140  20.727  0.00  0.00    +0.000 A 
ATOM      9  C   UNL     1      -0.542  10.779  19.390  0.00  0.00    +0.000 A 
ATOM     10  C   UNL     1       0.358   9.768  19.062  0.00  0.00    +0.000 A 
ATOM     11  C   UNL     1       1.071   9.116  20.076  0.00  0.00    +0.000 A 
ATOM     12  C   UNL     1       0.880   9.487  21.428  0.00  0.00    +0.000 A 
BRANCH   7  14
ATOM     13  C   UNL     1      -1.526  11.771  23.139  0.00  0.00    +0.000 C 
ATOM     14  O   UNL     1      -0.342  10.994  22.997  0.00  0.00    +0.000 OA
ENDBRANCH   7  14
BRANCH  12  15
ATOM     15  O   UNL     1       1.580   8.863  22.431  0.00  0.00    +0.000 OA
ATOM     16  H   UNL     1       2.339   8.366  22.046  0.00  0.00    +0.000 HD
ENDBRANCH  12  15
ENDBRANCH   5  11
ENDBRANCH   1   6
BRANCH   2  17
ATOM     17  C   UNL     1       3.439   3.538  20.023  0.00  0.00    +0.000 C 
BRANCH  17  18
ATOM     18  N   UNL     1       4.409   4.031  19.058  0.00  0.00    +0.000 N 
ATOM     19  C   UNL     1       4.204   3.827  17.713  0.00  0.00    +0.000 C 
ATOM     20  O   UNL     1       3.193   3.255  17.311  0.00  0.00    +0.000 OA
ATOM     21  H   UNL     1       5.100   4.686  19.395  0.00  0.00    +0.000 HD
BRANCH  19  22
ATOM     22  C   UNL     1       5.234   4.303  16.743  0.00  0.00    +0.000 A 
ATOM     23  C   UNL     1       6.229   5.239  17.042  0.00  0.00    +0.000 A 
ATOM     24  C   UNL     1       7.131   5.640  16.043  0.00  0.00    +0.000 A 
ATOM     25  C   UNL     1       7.054   5.107  14.754  0.00  0.00    +0.000 A 
ATOM     26  C   UNL     1       6.099   4.146  14.466  0.00  0.00    +0.000 A 
ATOM     27  C   UNL     1       5.190   3.756  15.452  0.00  0.00    +0.000 A 
ATOM     28  O   UNL     1       6.004   3.497  13.278  0.00  0.00    +0.000 OA
ATOM     29  C   UNL     1       6.702   4.112  12.207  0.00  0.00    +0.000 C 
ATOM     30  C   UNL     1       7.878   5.024  12.549  0.00  0.00    +0.000 C 
ATOM     31  O   UNL     1       7.950   5.585  13.853  0.00  0.00    +0.000 OA
ENDBRANCH  19  22
ENDBRANCH  17  18
ENDBRANCH   2  17
TORSDOF 7
ENDMDL
MODEL 3
REMARK VINA RESULT:      -8.1      1.552      1.925
REMARK  Name = 
REMARK  8 active torsions:
REMARK  status: ('A' for Active; 'I' for Inactive)
REMARK    1  A    between atoms: C_1  and  O_2
REMARK    2  A    between atoms: O_2  and  C_3
REMARK    3  A    between atoms: C_7  and  C_8
REMARK    4  A    between atoms: N_9  and  N_10
REMARK    5  A    between atoms: C_11  and  C_13
REMARK    6  A    between atoms: C_13  and  N_14
REMARK    7  A    between atoms: C_15  and  C_17
REMARK    8  A    between atoms: C_27  and  O_28
REMARK                            x       y       z     vdW  Elec       q    Type
REMARK                         _______ _______ _______ _____ _____    ______ ____
ROOT
ATOM      1  N   UNL     1       9.112   9.370  18.946  0.00  0.00    +0.000 N 
ATOM      2  C   UNL     1       8.261   8.556  18.205  0.00  0.00    +0.000 C 
ATOM      3  O   UNL     1       7.503   8.964  17.324  0.00  0.00    +0.000 OA
ATOM      4  H   UNL     1       9.559   9.024  19.793  0.00  0.00    +0.000 HD
ENDROOT
BRANCH   1   6
ATOM      5  C   UNL     1      10.273  11.312  18.585  0.00  0.00    +0.000 C 
ATOM      6  N   UNL     1       9.150  10.679  18.619  0.00  0.00    +0.000 NA
BRANCH   5  11
ATOM      7  C   UNL     1       9.430  15.031  18.535  0.00  0.00    +0.000 A 
ATOM      8  C   UNL     1      10.294  15.448  17.516  0.00  0.00    +0.000 A 
ATOM      9  C   UNL     1      11.135  14.545  16.862  0.00  0.00    +0.000 A 
ATOM     10  C   UNL     1      11.124  13.199  17.219  0.00  0.00    +0.000 A 
ATOM     11  C   UNL     1      10.266  12.756  18.234  0.00  0.00    +0.000 A 
ATOM     12  C   UNL     1       9.418  13.674  18.897  0.00  0.00    +0.000 A 
BRANCH   7  14
ATOM     13  C   UNL     1       7.446  16.376  18.439  0.00  0.00    +0.000 C 
ATOM     14  O   UNL     1       8.687  16.055  19.057  0.00  0.00    +0.000 OA
ENDBRANCH   7  14
BRANCH  12  15
ATOM     15  O   UNL     1       8.581  13.256  19.901  0.00  0.00    +0.000 OA
ATOM     16  H   UNL     1       9.035  13.343  20.770  0.00  0.00    +0.000 HD
ENDBRANCH  12  15
ENDBRANCH   5  11
ENDBRANCH   1   6
BRANCH   2  17
ATOM     17  C   UNL     1       8.266   7.091  18.616  0.00  0.00    +0.000 C 
BRANCH  17  18
ATOM     18  N   UNL     1       7.018   6.439  18.251  0.00  0.00    +0.000 N 
ATOM     19  C   UNL     1       6.523   5.419  19.030  0.00  0.00    +0.000 C 
ATOM     20  O   UNL     1       7.108   5.067  20.052  0.00  0.00    +0.000 OA
ATOM     21  H   UNL     1       6.451   6.893  17.550  0.00  0.00    +0.000 HD
BRANCH  19  22
ATOM     22  C   UNL     1       5.263   4.736  18.614  0.00  0.00    +0.000 A 
ATOM     23  C   UNL     1       4.927   4.435  17.290  0.00  0.00    +0.000 A 
ATOM     24  C   UNL     1       3.700   3.815  17.007  0.00  0.00    +0.000 A 
ATOM     25  C   UNL     1       2.811   3.483  18.033  0.00  0.00    +0.000 A 
ATOM     26  C   UNL     1       3.161   3.737  19.349  0.00  0.00    +0.000 A 
ATOM     27  C   UNL     1       4.374   4.368  19.635  0.00  0.00    +0.000 A 
ATOM     28  O   UNL     1       2.415   3.365  20.421  0.00  0.00    +0.000 OA
ATOM     29  C   UNL     1       1.071   3.026  20.121  0.00  0.00    +0.000 C 
ATOM     30  C   UNL     1       0.748   2.565  18.702  0.00  0.00    +0.000 C 
ATOM     31  O   UNL     1       1.638   2.918  17.651  0.00  0.00    +0.000 OA
ENDBRANCH  19  22
ENDBRANCH  17  18
ENDBRANCH   2  17
TORSDOF 7
ENDMDL
MODEL 4
REMARK VINA RESULT:      -7.8      1.795      2.035
REMARK  Name = 
REMARK  8 active torsions:
REMARK  status: ('A' for Active; 'I' for Inactive)
REMARK    1  A    between atoms: C_1  and  O_2
REMARK    2  A    between atoms: O_2  and  C_3
REMARK    3  A    between atoms: C_7  and  C_8
REMARK    4  A    between atoms: N_9  and  N_10
REMARK    5  A    between atoms: C_11  and  C_13
REMARK    6  A    between atoms: C_13  and  N_14
REMARK    7  A    between atoms: C_15  and  C_17
REMARK    8  A    between atoms: C_27  and  O_28
REMARK                            x       y       z     vdW  Elec       q    Type
REMARK                         _______ _______ _______ _____ _____    ______ ____
ROOT
ATOM      1  N   UNL     1       7.861   8.562  17.343  0.00  0.00    +0.000 N 
ATOM      2  C   UNL     1       7.843   7.239  17.773  0.00  0.00    +0.000 C 
ATOM      3  O   UNL     1       8.248   6.863  18.874  0.00  0.00    +0.000 OA
ATOM      4  H   UNL     1       7.714   8.794  16.362  0.00  0.00    +0.000 HD
ENDROOT
BRANCH   1   6
ATOM      5  C   UNL     1       8.969  10.509  17.825  0.00  0.00    +0.000 C 
ATOM      6  N   UNL     1       8.285   9.491  18.226  0.00  0.00    +0.000 NA
BRANCH   5  11
ATOM      7  C   UNL     1      10.078  13.764  19.474  0.00  0.00    +0.000 A 
ATOM      8  C   UNL     1      10.303  13.297  20.774  0.00  0.00    +0.000 A 
ATOM      9  C   UNL     1      10.095  11.957  21.111  0.00  0.00    +0.000 A 
ATOM     10  C   UNL     1       9.657  11.056  20.144  0.00  0.00    +0.000 A 
ATOM     11  C   UNL     1       9.428  11.499  18.834  0.00  0.00    +0.000 A 
ATOM     12  C   UNL     1       9.636  12.856  18.498  0.00  0.00    +0.000 A 
BRANCH   7  14
ATOM     13  C   UNL     1       9.239  16.009  19.378  0.00  0.00    +0.000 C 
ATOM     14  O   UNL     1      10.334  15.101  19.336  0.00  0.00    +0.000 OA
ENDBRANCH   7  14
BRANCH  12  15
ATOM     15  O   UNL     1       9.405  13.306  17.222  0.00  0.00    +0.000 OA
ATOM     16  H   UNL     1       8.436  13.313  17.043  0.00  0.00    +0.000 HD
ENDBRANCH  12  15
ENDBRANCH   5  11
ENDBRANCH   1   6
BRANCH   2  17
ATOM     17  C   UNL     1       7.350   6.241  16.737  0.00  0.00    +0.000 C 
BRANCH  17  18
ATOM     18  N   UNL     1       6.343   5.355  17.300  0.00  0.00    +0.000 N 
ATOM     19  C   UNL     1       5.008   5.608  17.084  0.00  0.00    +0.000 C 
ATOM     20  O   UNL     1       4.652   6.562  16.395  0.00  0.00    +0.000 OA
ATOM     21  H   UNL     1       6.662   4.467  17.661  0.00  0.00    +0.000 HD
BRANCH  19  22
ATOM     22  C   UNL     1       3.991   4.711  17.707  0.00  0.00    +0.000 A 
ATOM     23  C   UNL     1       3.134   3.870  16.991  0.00  0.00    +0.000 A 
ATOM     24  C   UNL     1       2.192   3.087  17.677  0.00  0.00    +0.000 A 
ATOM     25  C   UNL     1       2.105   3.129  19.071  0.00  0.00    +0.000 A 
ATOM     26  C   UNL     1       2.984   3.925  19.787  0.00  0.00    +0.000 A 
ATOM     27  C   UNL     1       3.913   4.717  19.108  0.00  0.00    +0.000 A 
ATOM     28  O   UNL     1       3.048   3.962  21.143  0.00  0.00    +0.000 OA
ATOM     29  C   UNL     1       1.919   3.418  21.806  0.00  0.00    +0.000 C 
ATOM     30  C   UNL     1       1.071   2.394  21.056  0.00  0.00    +0.000 C 
ATOM     31  O   UNL     1       1.140   2.361  19.636  0.00  0.00    +0.000 OA
ENDBRANCH  19  22
ENDBRANCH  17  18
ENDBRANCH   2  17
TORSDOF 7
ENDMDL
MODEL 5
REMARK VINA RESULT:      -7.7      5.921      8.446
REMARK  Name = 
REMARK  8 active torsions:
REMARK  status: ('A' for Active; 'I' for Inactive)
REMARK    1  A    between atoms: C_1  and  O_2
REMARK    2  A    between atoms: O_2  and  C_3
REMARK    3  A    between atoms: C_7  and  C_8
REMARK    4  A    between atoms: N_9  and  N_10
REMARK    5  A    between atoms: C_11  and  C_13
REMARK    6  A    between atoms: C_13  and  N_14
REMARK    7  A    between atoms: C_15  and  C_17
REMARK    8  A    between atoms: C_27  and  O_28
REMARK                            x       y       z     vdW  Elec       q    Type
REMARK                         _______ _______ _______ _____ _____    ______ ____
ROOT
ATOM      1  N   UNL     1       2.717   5.549  20.485  0.00  0.00    +0.000 N 
ATOM      2  C   UNL     1       2.111   4.310  20.307  0.00  0.00    +0.000 C 
ATOM      3  O   UNL     1       0.908   4.097  20.464  0.00  0.00    +0.000 OA
ATOM      4  H   UNL     1       3.730   5.630  20.548  0.00  0.00    +0.000 HD
ENDROOT
BRANCH   1   6
ATOM      5  C   UNL     1       1.952   7.669  20.072  0.00  0.00    +0.000 C 
ATOM      6  N   UNL     1       1.911   6.591  20.780  0.00  0.00    +0.000 NA
BRANCH   5  11
ATOM      7  C   UNL     1      -0.210  10.805  19.870  0.00  0.00    +0.000 A 
ATOM      8  C   UNL     1      -0.609  10.894  21.209  0.00  0.00    +0.000 A 
ATOM      9  C   UNL     1      -0.190   9.956  22.156  0.00  0.00    +0.000 A 
ATOM     10  C   UNL     1       0.642   8.906  21.776  0.00  0.00    +0.000 A 
ATOM     11  C   UNL     1       1.058   8.797  20.442  0.00  0.00    +0.000 A 
ATOM     12  C   UNL     1       0.629   9.746  19.485  0.00  0.00    +0.000 A 
BRANCH   7  14
ATOM     13  C   UNL     1      -0.572  13.153  19.538  0.00  0.00    +0.000 C 
ATOM     14  O   UNL     1      -0.720  11.809  19.093  0.00  0.00    +0.000 OA
ENDBRANCH   7  14
BRANCH  12  15
ATOM     15  O   UNL     1       1.019   9.644  18.173  0.00  0.00    +0.000 OA
ATOM     16  H   UNL     1       0.897  10.512  17.722  0.00  0.00    +0.000 HD
ENDBRANCH  12  15
ENDBRANCH   5  11
ENDBRANCH   1   6
BRANCH   2  17
ATOM     17  C   UNL     1       3.069   3.176  19.971  0.00  0.00    +0.000 C 
BRANCH  17  18
ATOM     18  N   UNL     1       4.136   3.634  19.094  0.00  0.00    +0.000 N 
ATOM     19  C   UNL     1       3.849   4.009  17.802  0.00  0.00    +0.000 C 
ATOM     20  O   UNL     1       2.693   3.991  17.384  0.00  0.00    +0.000 OA
ATOM     21  H   UNL     1       5.022   3.853  19.525  0.00  0.00    +0.000 HD
BRANCH  19  22
ATOM     22  C   UNL     1       4.965   4.434  16.907  0.00  0.00    +0.000 A 
ATOM     23  C   UNL     1       5.973   5.332  17.271  0.00  0.00    +0.000 A 
ATOM     24  C   UNL     1       6.961   5.686  16.338  0.00  0.00    +0.000 A 
ATOM     25  C   UNL     1       6.957   5.144  15.050  0.00  0.00    +0.000 A 
ATOM     26  C   UNL     1       5.987   4.220  14.701  0.00  0.00    +0.000 A 
ATOM     27  C   UNL     1       4.993   3.876  15.620  0.00  0.00    +0.000 A 
ATOM     28  O   UNL     1       5.952   3.563  13.513  0.00  0.00    +0.000 OA
ATOM     29  C   UNL     1       6.750   4.139  12.492  0.00  0.00    +0.000 C 
ATOM     30  C   UNL     1       7.935   5.006  12.912  0.00  0.00    +0.000 C 
ATOM     31  O   UNL     1       7.934   5.577  14.214  0.00  0.00    +0.000 OA
ENDBRANCH  19  22
ENDBRANCH  17  18
ENDBRANCH   2  17
TORSDOF 7
ENDMDL
MODEL 6
REMARK VINA RESULT:      -7.5      1.481      1.515
REMARK  Name = 
REMARK  8 active torsions:
REMARK  status: ('A' for Active; 'I' for Inactive)
REMARK    1  A    between atoms: C_1  and  O_2
REMARK    2  A    between atoms: O_2  and  C_3
REMARK    3  A    between atoms: C_7  and  C_8
REMARK    4  A    between atoms: N_9  and  N_10
REMARK    5  A    between atoms: C_11  and  C_13
REMARK    6  A    between atoms: C_13  and  N_14
REMARK    7  A    between atoms: C_15  and  C_17
REMARK    8  A    between atoms: C_27  and  O_28
REMARK                            x       y       z     vdW  Elec       q    Type
REMARK                         _______ _______ _______ _____ _____    ______ ____
ROOT
ATOM      1  N   UNL     1       8.999   8.858  19.088  0.00  0.00    +0.000 N 
ATOM      2  C   UNL     1       8.100   8.337  18.163  0.00  0.00    +0.000 C 
ATOM      3  O   UNL     1       7.300   9.015  17.516  0.00  0.00    +0.000 OA
ATOM      4  H   UNL     1       9.487   8.248  19.742  0.00  0.00    +0.000 HD
ENDROOT
BRANCH   1   6
ATOM      5  C   UNL     1       9.852  10.752  20.055  0.00  0.00    +0.000 C 
ATOM      6  N   UNL     1       9.034  10.201  19.223  0.00  0.00    +0.000 NA
BRANCH   5  11
ATOM      7  C   UNL     1       9.921  14.469  19.200  0.00  0.00    +0.000 A 
ATOM      8  C   UNL     1       9.844  15.002  20.492  0.00  0.00    +0.000 A 
ATOM      9  C   UNL     1       9.767  14.176  21.616  0.00  0.00    +0.000 A 
ATOM     10  C   UNL     1       9.767  12.791  21.464  0.00  0.00    +0.000 A 
ATOM     11  C   UNL     1       9.847  12.233  20.181  0.00  0.00    +0.000 A 
ATOM     12  C   UNL     1       9.920  13.073  19.046  0.00  0.00    +0.000 A 
BRANCH   7  14
ATOM     13  C   UNL     1      10.739  16.610  18.493  0.00  0.00    +0.000 C 
ATOM     14  O   UNL     1       9.988  15.431  18.229  0.00  0.00    +0.000 OA
ENDBRANCH   7  14
BRANCH  12  15
ATOM     15  O   UNL     1       9.987  12.540  17.782  0.00  0.00    +0.000 OA
ATOM     16  H   UNL     1       9.508  13.124  17.150  0.00  0.00    +0.000 HD
ENDBRANCH  12  15
ENDBRANCH   5  11
ENDBRANCH   1   6
BRANCH   2  17
ATOM     17  C   UNL     1       8.110   6.820  18.052  0.00  0.00    +0.000 C 
BRANCH  17  18
ATOM     18  N   UNL     1       6.773   6.272  18.222  0.00  0.00    +0.000 N 
ATOM     19  C   UNL     1       6.488   5.004  17.772  0.00  0.00    +0.000 C 
ATOM     20  O   UNL     1       7.360   4.311  17.250  0.00  0.00    +0.000 OA
ATOM     21  H   UNL     1       6.151   6.764  18.847  0.00  0.00    +0.000 HD
BRANCH  19  22
ATOM     22  C   UNL     1       5.099   4.479  17.917  0.00  0.00    +0.000 A 
ATOM     23  C   UNL     1       4.309   4.027  16.855  0.00  0.00    +0.000 A 
ATOM     24  C   UNL     1       3.002   3.579  17.102  0.00  0.00    +0.000 A 
ATOM     25  C   UNL     1       2.480   3.569  18.398  0.00  0.00    +0.000 A 
ATOM     26  C   UNL     1       3.275   3.972  19.458  0.00  0.00    +0.000 A 
ATOM     27  C   UNL     1       4.571   4.433  19.217  0.00  0.00    +0.000 A 
ATOM     28  O   UNL     1       2.899   3.908  20.761  0.00  0.00    +0.000 OA
ATOM     29  C   UNL     1       1.505   3.750  20.970  0.00  0.00    +0.000 C 
ATOM     30  C   UNL     1       0.678   3.125  19.848  0.00  0.00    +0.000 C 
ATOM     31  O   UNL     1       1.195   3.151  18.524  0.00  0.00    +0.000 OA
ENDBRANCH  19  22
ENDBRANCH  17  18
ENDBRANCH   2  17
TORSDOF 7
ENDMDL
MODEL 7
REMARK VINA RESULT:      -7.4      5.879      8.592
REMARK  Name = 
REMARK  8 active torsions:
REMARK  status: ('A' for Active; 'I' for Inactive)
REMARK    1  A    between atoms: C_1  and  O_2
REMARK    2  A    between atoms: O_2  and  C_3
REMARK    3  A    between atoms: C_7  and  C_8
REMARK    4  A    between atoms: N_9  and  N_10
REMARK    5  A    between atoms: C_11  and  C_13
REMARK    6  A    between atoms: C_13  and  N_14
REMARK    7  A    between atoms: C_15  and  C_17
REMARK    8  A    between atoms: C_27  and  O_28
REMARK                            x       y       z     vdW  Elec       q    Type
REMARK                         _______ _______ _______ _____ _____    ______ ____
ROOT
ATOM      1  N   UNL     1       2.178   5.832  19.286  0.00  0.00    +0.000 N 
ATOM      2  C   UNL     1       1.798   4.586  19.772  0.00  0.00    +0.000 C 
ATOM      3  O   UNL     1       0.892   4.406  20.587  0.00  0.00    +0.000 OA
ATOM      4  H   UNL     1       3.056   5.951  18.783  0.00  0.00    +0.000 HD
ENDROOT
BRANCH   1   6
ATOM      5  C   UNL     1       1.876   7.657  20.638  0.00  0.00    +0.000 C 
ATOM      6  N   UNL     1       1.451   6.897  19.687  0.00  0.00    +0.000 NA
BRANCH   5  11
ATOM      7  C   UNL     1      -0.163  10.879  20.564  0.00  0.00    +0.000 A 
ATOM      8  C   UNL     1      -0.528  10.950  21.914  0.00  0.00    +0.000 A 
ATOM      9  C   UNL     1      -0.127   9.972  22.827  0.00  0.00    +0.000 A 
ATOM     10  C   UNL     1       0.654   8.901  22.402  0.00  0.00    +0.000 A 
ATOM     11  C   UNL     1       1.036   8.809  21.057  0.00  0.00    +0.000 A 
ATOM     12  C   UNL     1       0.624   9.799  20.134  0.00  0.00    +0.000 A 
BRANCH   7  14
ATOM     13  C   UNL     1      -1.926  11.784  19.213  0.00  0.00    +0.000 C 
ATOM     14  O   UNL     1      -0.649  11.923  19.825  0.00  0.00    +0.000 OA
ENDBRANCH   7  14
BRANCH  12  15
ATOM     15  O   UNL     1       0.982   9.716  18.812  0.00  0.00    +0.000 OA
ATOM     16  H   UNL     1       0.185   9.523  18.264  0.00  0.00    +0.000 HD
ENDBRANCH  12  15
ENDBRANCH   5  11
ENDBRANCH   1   6
BRANCH   2  17
ATOM     17  C   UNL     1       2.651   3.425  19.281  0.00  0.00    +0.000 C 
BRANCH  17  18
ATOM     18  N   UNL     1       3.499   3.831  18.171  0.00  0.00    +0.000 N 
ATOM     19  C   UNL     1       4.857   3.959  18.355  0.00  0.00    +0.000 C 
ATOM     20  O   UNL     1       5.370   3.707  19.444  0.00  0.00    +0.000 OA
ATOM     21  H   UNL     1       3.091   3.809  17.248  0.00  0.00    +0.000 HD
BRANCH  19  22
ATOM     22  C   UNL     1       5.703   4.419  17.215  0.00  0.00    +0.000 A 
ATOM     23  C   UNL     1       6.644   5.450  17.294  0.00  0.00    +0.000 A 
ATOM     24  C   UNL     1       7.367   5.821  16.149  0.00  0.00    +0.000 A 
ATOM     25  C   UNL     1       7.166   5.167  14.931  0.00  0.00    +0.000 A 
ATOM     26  C   UNL     1       6.268   4.115  14.860  0.00  0.00    +0.000 A 
ATOM     27  C   UNL     1       5.535   3.751  15.992  0.00  0.00    +0.000 A 
ATOM     28  O   UNL     1       6.072   3.353  13.754  0.00  0.00    +0.000 OA
ATOM     29  C   UNL     1       6.566   3.916  12.549  0.00  0.00    +0.000 C 
ATOM     30  C   UNL     1       7.693   4.941  12.646  0.00  0.00    +0.000 C 
ATOM     31  O   UNL     1       7.889   5.624  13.877  0.00  0.00    +0.000 OA
ENDBRANCH  19  22
ENDBRANCH  17  18
ENDBRANCH   2  17
TORSDOF 7
ENDMDL
MODEL 8
REMARK VINA RESULT:      -7.4      1.656      2.054
REMARK  Name = 
REMARK  8 active torsions:
REMARK  status: ('A' for Active; 'I' for Inactive)
REMARK    1  A    between atoms: C_1  and  O_2
REMARK    2  A    between atoms: O_2  and  C_3
REMARK    3  A    between atoms: C_7  and  C_8
REMARK    4  A    between atoms: N_9  and  N_10
REMARK    5  A    between atoms: C_11  and  C_13
REMARK    6  A    between atoms: C_13  and  N_14
REMARK    7  A    between atoms: C_15  and  C_17
REMARK    8  A    between atoms: C_27  and  O_28
REMARK                            x       y       z     vdW  Elec       q    Type
REMARK                         _______ _______ _______ _____ _____    ______ ____
ROOT
ATOM      1  N   UNL     1       9.021   9.217  19.060  0.00  0.00    +0.000 N 
ATOM      2  C   UNL     1       8.198   8.712  18.058  0.00  0.00    +0.000 C 
ATOM      3  O   UNL     1       7.573   9.409  17.257  0.00  0.00    +0.000 OA
ATOM      4  H   UNL     1       9.346   8.620  19.818  0.00  0.00    +0.000 HD
ENDROOT
BRANCH   1   6
ATOM      5  C   UNL     1      10.362  11.070  18.927  0.00  0.00    +0.000 C 
ATOM      6  N   UNL     1       9.192  10.556  19.100  0.00  0.00    +0.000 NA
BRANCH   5  11
ATOM      7  C   UNL     1       9.912  14.796  18.245  0.00  0.00    +0.000 A 
ATOM      8  C   UNL     1      10.836  15.309  19.164  0.00  0.00    +0.000 A 
ATOM      9  C   UNL     1      11.585  14.467  19.989  0.00  0.00    +0.000 A 
ATOM     10  C   UNL     1      11.422  13.087  19.907  0.00  0.00    +0.000 A 
ATOM     11  C   UNL     1      10.506  12.548  18.994  0.00  0.00    +0.000 A 
ATOM     12  C   UNL     1       9.747  13.404  18.163  0.00  0.00    +0.000 A 
BRANCH   7  14
ATOM     13  C   UNL     1       8.192  16.464  18.139  0.00  0.00    +0.000 C 
ATOM     14  O   UNL     1       9.275  15.771  17.528  0.00  0.00    +0.000 OA
ENDBRANCH   7  14
BRANCH  12  15
ATOM     15  O   UNL     1       8.838  12.890  17.272  0.00  0.00    +0.000 OA
ATOM     16  H   UNL     1       8.727  11.924  17.430  0.00  0.00    +0.000 HD
ENDBRANCH  12  15
ENDBRANCH   5  11
ENDBRANCH   1   6
BRANCH   2  17
ATOM     17  C   UNL     1       8.049   7.198  18.061  0.00  0.00    +0.000 C 
BRANCH  17  18
ATOM     18  N   UNL     1       6.659   6.808  18.236  0.00  0.00    +0.000 N 
ATOM     19  C   UNL     1       6.350   5.533  18.651  0.00  0.00    +0.000 C 
ATOM     20  O   UNL     1       7.238   4.722  18.905  0.00  0.00    +0.000 OA
ATOM     21  H   UNL     1       5.972   7.548  18.243  0.00  0.00    +0.000 HD
BRANCH  19  22
ATOM     22  C   UNL     1       4.916   5.142  18.782  0.00  0.00    +0.000 A 
ATOM     23  C   UNL     1       3.885   6.020  19.131  0.00  0.00    +0.000 A 
ATOM     24  C   UNL     1       2.572   5.538  19.254  0.00  0.00    +0.000 A 
ATOM     25  C   UNL     1       2.278   4.191  19.024  0.00  0.00    +0.000 A 
ATOM     26  C   UNL     1       3.289   3.328  18.634  0.00  0.00    +0.000 A 
ATOM     27  C   UNL     1       4.599   3.799  18.524  0.00  0.00    +0.000 A 
ATOM     28  O   UNL     1       3.092   2.029  18.291  0.00  0.00    +0.000 OA
ATOM     29  C   UNL     1       1.849   1.487  18.706  0.00  0.00    +0.000 C 
ATOM     30  C   UNL     1       0.691   2.453  18.948  0.00  0.00    +0.000 C 
ATOM     31  O   UNL     1       0.986   3.820  19.204  0.00  0.00    +0.000 OA
ENDBRANCH  19  22
ENDBRANCH  17  18
ENDBRANCH   2  17
TORSDOF 7
ENDMDL
MODEL 9
REMARK VINA RESULT:      -7.4      5.952      7.650
REMARK  Name = 
REMARK  8 active torsions:
REMARK  status: ('A' for Active; 'I' for Inactive)
REMARK    1  A    between atoms: C_1  and  O_2
REMARK    2  A    between atoms: O_2  and  C_3
REMARK    3  A    between atoms: C_7  and  C_8
REMARK    4  A    between atoms: N_9  and  N_10
REMARK    5  A    between atoms: C_11  and  C_13
REMARK    6  A    between atoms: C_13  and  N_14
REMARK    7  A    between atoms: C_15  and  C_17
REMARK    8  A    between atoms: C_27  and  O_28
REMARK                            x       y       z     vdW  Elec       q    Type
REMARK                         _______ _______ _______ _____ _____    ______ ____
ROOT
ATOM      1  N   UNL     1       0.880  10.004  20.095  0.00  0.00    +0.000 N 
ATOM      2  C   UNL     1       1.073   9.405  21.335  0.00  0.00    +0.000 C 
ATOM      3  O   UNL     1       1.316  10.022  22.373  0.00  0.00    +0.000 OA
ATOM      4  H   UNL     1       0.890   9.450  19.240  0.00  0.00    +0.000 HD
ENDROOT
BRANCH   1   6
ATOM      5  C   UNL     1       1.414  11.972  19.049  0.00  0.00    +0.000 C 
ATOM      6  N   UNL     1       0.893  11.353  20.054  0.00  0.00    +0.000 NA
BRANCH   5  11
ATOM      7  C   UNL     1       0.282  15.607  18.819  0.00  0.00    +0.000 A 
ATOM      8  C   UNL     1       1.504  16.243  19.065  0.00  0.00    +0.000 A 
ATOM      9  C   UNL     1       2.669  15.510  19.305  0.00  0.00    +0.000 A 
ATOM     10  C   UNL     1       2.630  14.118  19.301  0.00  0.00    +0.000 A 
ATOM     11  C   UNL     1       1.419  13.458  19.054  0.00  0.00    +0.000 A 
ATOM     12  C   UNL     1       0.241  14.203  18.815  0.00  0.00    +0.000 A 
BRANCH   7  14
ATOM     13  C   UNL     1      -0.554  17.539  17.669  0.00  0.00    +0.000 C 
ATOM     14  O   UNL     1      -0.745  16.486  18.608  0.00  0.00    +0.000 OA
ENDBRANCH   7  14
BRANCH  12  15
ATOM     15  O   UNL     1      -0.954  13.569  18.583  0.00  0.00    +0.000 OA
ATOM     16  H   UNL     1      -1.696  14.207  18.697  0.00  0.00    +0.000 HD
ENDBRANCH  12  15
ENDBRANCH   5  11
ENDBRANCH   1   6
BRANCH   2  17
ATOM     17  C   UNL     1       1.042   7.884  21.318  0.00  0.00    +0.000 C 
BRANCH  17  18
ATOM     18  N   UNL     1       1.950   7.352  20.313  0.00  0.00    +0.000 N 
ATOM     19  C   UNL     1       2.012   5.996  20.092  0.00  0.00    +0.000 C 
ATOM     20  O   UNL     1       1.287   5.223  20.716  0.00  0.00    +0.000 OA
ATOM     21  H   UNL     1       2.358   8.013  19.668  0.00  0.00    +0.000 HD
BRANCH  19  22
ATOM     22  C   UNL     1       2.981   5.469  19.087  0.00  0.00    +0.000 A 
ATOM     23  C   UNL     1       2.630   4.681  17.987  0.00  0.00    +0.000 A 
ATOM     24  C   UNL     1       3.628   4.214  17.118  0.00  0.00    +0.000 A 
ATOM     25  C   UNL     1       4.972   4.534  17.331  0.00  0.00    +0.000 A 
ATOM     26  C   UNL     1       5.319   5.351  18.394  0.00  0.00    +0.000 A 
ATOM     27  C   UNL     1       4.331   5.807  19.270  0.00  0.00    +0.000 A 
ATOM     28  O   UNL     1       6.578   5.800  18.631  0.00  0.00    +0.000 OA
ATOM     29  C   UNL     1       7.600   5.092  17.948  0.00  0.00    +0.000 C 
ATOM     30  C   UNL     1       7.224   4.350  16.668  0.00  0.00    +0.000 C 
ATOM     31  O   UNL     1       5.861   4.004  16.455  0.00  0.00    +0.000 OA
ENDBRANCH  19  22
ENDBRANCH  17  18
ENDBRANCH   2  17
TORSDOF 7
ENDMDL
