MODEL 1
REMARK VINA RESULT:      -6.8      0.000      0.000
REMARK  Name = 
REMARK  5 active torsions:
REMARK  status: ('A' for Active; 'I' for Inactive)
REMARK    1  A    between atoms: C_1  and  C_2
REMARK    2  A    between atoms: C_2  and  C_3
REMARK    3  A    between atoms: C_2  and  N_4
REMARK    4  A    between atoms: C_6  and  N_7
REMARK    5  A    between atoms: C_11  and  C_12
REMARK                            x       y       z     vdW  Elec       q    Type
REMARK                         _______ _______ _______ _____ _____    ______ ____
ROOT
ATOM      1  N   UNL     1       2.469   7.460  18.031  0.00  0.00    +0.000 N 
ATOM      2  C   UNL     1       1.892   8.056  19.096  0.00  0.00    +0.000 A 
ATOM      3  N   UNL     1       1.790   7.534  20.303  0.00  0.00    +0.000 NA
ATOM      4  N   UNL     1       1.181   8.380  21.206  0.00  0.00    +0.000 NA
ATOM      5  C   UNL     1       0.888   9.547  20.671  0.00  0.00    +0.000 A 
ATOM      6  S   UNL     1       1.243   9.648  18.993  0.00  0.00    +0.000 S 
ATOM      7  H   UNL     1       2.421   7.896  17.117  0.00  0.00    +0.000 HD
ENDROOT
BRANCH   1  10
ATOM      8  N   UNL     1       4.921   4.921  17.176  0.00  0.00    +0.000 N 
ATOM      9  C   UNL     1       4.547   6.317  17.219  0.00  0.00    +0.000 C 
ATOM     10  C   UNL     1       3.404   6.357  18.239  0.00  0.00    +0.000 C 
ATOM     11  C   UNL     1       2.732   4.998  18.044  0.00  0.00    +0.000 C 
ATOM     12  C   UNL     1       3.864   4.114  17.574  0.00  0.00    +0.000 C 
ATOM     13  O   UNL     1       3.812   2.896  17.506  0.00  0.00    +0.000 OA
BRANCH   8  15
ATOM     14  C   UNL     1       6.181   5.056  15.050  0.00  0.00    +0.000 C 
ATOM     15  C   UNL     1       6.080   4.415  16.434  0.00  0.00    +0.000 C 
ATOM     16  C   UNL     1       7.379   4.593  17.214  0.00  0.00    +0.000 C 
ENDBRANCH   8  15
ENDBRANCH   1  10
BRANCH   5  17
ATOM     17  C   UNL     1       0.322  10.668  21.486  0.00  0.00    +0.000 A 
ATOM     18  C   UNL     1       0.069  11.978  21.013  0.00  0.00    +0.000 A 
ATOM     19  C   UNL     1      -0.475  12.629  22.088  0.00  0.00    +0.000 A 
ATOM     20  O   UNL     1      -0.545  11.779  23.142  0.00  0.00    +0.000 OA
ATOM     21  N   UNL     1      -0.037  10.543  22.774  0.00  0.00    +0.000 NA
ENDBRANCH   5  17
TORSDOF 3
ENDMDL
MODEL 2
REMARK VINA RESULT:      -6.6      4.633      8.543
REMARK  Name = 
REMARK  5 active torsions:
REMARK  status: ('A' for Active; 'I' for Inactive)
REMARK    1  A    between atoms: C_1  and  C_2
REMARK    2  A    between atoms: C_2  and  C_3
REMARK    3  A    between atoms: C_2  and  N_4
REMARK    4  A    between atoms: C_6  and  N_7
REMARK    5  A    between atoms: C_11  and  C_12
REMARK                            x       y       z     vdW  Elec       q    Type
REMARK                         _______ _______ _______ _____ _____    ______ ____
ROOT
ATOM      1  N   UNL     1       6.015   4.464  19.150  0.00  0.00    +0.000 N 
ATOM      2  C   UNL     1       5.972   4.372  17.804  0.00  0.00    +0.000 A 
ATOM      3  N   UNL     1       4.888   4.149  17.086  0.00  0.00    +0.000 NA
ATOM      4  N   UNL     1       5.134   4.136  15.729  0.00  0.00    +0.000 NA
ATOM      5  C   UNL     1       6.392   4.407  15.451  0.00  0.00    +0.000 A 
ATOM      6  S   UNL     1       7.383   4.592  16.842  0.00  0.00    +0.000 S 
ATOM      7  H   UNL     1       6.906   4.546  19.625  0.00  0.00    +0.000 HD
ENDROOT
BRANCH   1  10
ATOM      8  N   UNL     1       2.505   4.246  20.056  0.00  0.00    +0.000 N 
ATOM      9  C   UNL     1       3.781   3.591  19.878  0.00  0.00    +0.000 C 
ATOM     10  C   UNL     1       4.789   4.744  19.894  0.00  0.00    +0.000 C 
ATOM     11  C   UNL     1       3.996   5.892  19.269  0.00  0.00    +0.000 C 
ATOM     12  C   UNL     1       2.567   5.570  19.638  0.00  0.00    +0.000 C 
ATOM     13  O   UNL     1       1.627   6.341  19.522  0.00  0.00    +0.000 OA
BRANCH   8  15
ATOM     14  C   UNL     1       0.888   2.682  19.023  0.00  0.00    +0.000 C 
ATOM     15  C   UNL     1       1.242   3.526  20.248  0.00  0.00    +0.000 C 
ATOM     16  C   UNL     1       1.259   2.672  21.512  0.00  0.00    +0.000 C 
ENDBRANCH   8  15
ENDBRANCH   1  10
BRANCH   5  17
ATOM     17  C   UNL     1       6.873   4.559  14.041  0.00  0.00    +0.000 A 
ATOM     18  C   UNL     1       6.427   3.795  12.936  0.00  0.00    +0.000 A 
ATOM     19  C   UNL     1       7.111   4.311  11.868  0.00  0.00    +0.000 A 
ATOM     20  O   UNL     1       7.918   5.316  12.291  0.00  0.00    +0.000 OA
ATOM     21  N   UNL     1       7.780   5.473  13.661  0.00  0.00    +0.000 NA
ENDBRANCH   5  17
TORSDOF 3
ENDMDL
MODEL 3
REMARK VINA RESULT:      -6.3      5.376      6.569
REMARK  Name = 
REMARK  5 active torsions:
REMARK  status: ('A' for Active; 'I' for Inactive)
REMARK    1  A    between atoms: C_1  and  C_2
REMARK    2  A    between atoms: C_2  and  C_3
REMARK    3  A    between atoms: C_2  and  N_4
REMARK    4  A    between atoms: C_6  and  N_7
REMARK    5  A    between atoms: C_11  and  C_12
REMARK                            x       y       z     vdW  Elec       q    Type
REMARK                         _______ _______ _______ _____ _____    ______ ____
ROOT
ATOM      1  N   UNL     1       6.216   4.422  16.489  0.00  0.00    +0.000 N 
ATOM      2  C   UNL     1       5.156   4.376  17.324  0.00  0.00    +0.000 A 
ATOM      3  N   UNL     1       3.995   4.969  17.123  0.00  0.00    +0.000 NA
ATOM      4  N   UNL     1       3.084   4.724  18.128  0.00  0.00    +0.000 NA
ATOM      5  C   UNL     1       3.560   3.903  19.039  0.00  0.00    +0.000 A 
ATOM      6  S   UNL     1       5.199   3.458  18.781  0.00  0.00    +0.000 S 
ATOM      7  H   UNL     1       7.100   4.012  16.766  0.00  0.00    +0.000 HD
ENDROOT
BRANCH   1  10
ATOM      8  N   UNL     1       5.972   3.966  12.894  0.00  0.00    +0.000 N 
ATOM      9  C   UNL     1       5.496   3.638  14.219  0.00  0.00    +0.000 C 
ATOM     10  C   UNL     1       6.015   4.788  15.089  0.00  0.00    +0.000 C 
ATOM     11  C   UNL     1       7.332   5.158  14.405  0.00  0.00    +0.000 C 
ATOM     12  C   UNL     1       7.090   4.788  12.960  0.00  0.00    +0.000 C 
ATOM     13  O   UNL     1       7.808   5.116  12.029  0.00  0.00    +0.000 OA
BRANCH   8  15
ATOM     14  C   UNL     1       6.125   1.784  11.736  0.00  0.00    +0.000 C 
ATOM     15  C   UNL     1       5.598   3.219  11.690  0.00  0.00    +0.000 C 
ATOM     16  C   UNL     1       4.091   3.239  11.451  0.00  0.00    +0.000 C 
ENDBRANCH   8  15
ENDBRANCH   1  10
BRANCH   5  17
ATOM     17  C   UNL     1       2.715   3.402  20.170  0.00  0.00    +0.000 A 
ATOM     18  C   UNL     1       1.323   3.620  20.310  0.00  0.00    +0.000 A 
ATOM     19  C   UNL     1       0.989   2.950  21.457  0.00  0.00    +0.000 A 
ATOM     20  O   UNL     1       2.097   2.369  21.981  0.00  0.00    +0.000 OA
ATOM     21  N   UNL     1       3.191   2.656  21.179  0.00  0.00    +0.000 NA
ENDBRANCH   5  17
TORSDOF 3
ENDMDL
MODEL 4
REMARK VINA RESULT:      -6.3      4.747      8.228
REMARK  Name = 
REMARK  5 active torsions:
REMARK  status: ('A' for Active; 'I' for Inactive)
REMARK    1  A    between atoms: C_1  and  C_2
REMARK    2  A    between atoms: C_2  and  C_3
REMARK    3  A    between atoms: C_2  and  N_4
REMARK    4  A    between atoms: C_6  and  N_7
REMARK    5  A    between atoms: C_11  and  C_12
REMARK                            x       y       z     vdW  Elec       q    Type
REMARK                         _______ _______ _______ _____ _____    ______ ____
ROOT
ATOM      1  N   UNL     1       3.520   6.286  17.935  0.00  0.00    +0.000 N 
ATOM      2  C   UNL     1       4.344   5.655  17.073  0.00  0.00    +0.000 A 
ATOM      3  N   UNL     1       4.610   4.363  17.073  0.00  0.00    +0.000 NA
ATOM      4  N   UNL     1       5.463   3.988  16.056  0.00  0.00    +0.000 NA
ATOM      5  C   UNL     1       5.777   4.999  15.275  0.00  0.00    +0.000 A 
ATOM      6  S   UNL     1       5.132   6.504  15.798  0.00  0.00    +0.000 S 
ATOM      7  H   UNL     1       3.445   7.297  17.920  0.00  0.00    +0.000 HD
ENDROOT
BRANCH   1  10
ATOM      8  N   UNL     1       2.131   3.496  19.800  0.00  0.00    +0.000 N 
ATOM      9  C   UNL     1       3.132   4.533  19.684  0.00  0.00    +0.000 C 
ATOM     10  C   UNL     1       2.525   5.516  18.678  0.00  0.00    +0.000 C 
ATOM     11  C   UNL     1       1.716   4.600  17.760  0.00  0.00    +0.000 C 
ATOM     12  C   UNL     1       1.333   3.451  18.663  0.00  0.00    +0.000 C 
ATOM     13  O   UNL     1       0.503   2.599  18.391  0.00  0.00    +0.000 OA
BRANCH   8  15
ATOM     14  C   UNL     1       3.656   2.091  21.151  0.00  0.00    +0.000 C 
ATOM     15  C   UNL     1       2.207   2.399  20.768  0.00  0.00    +0.000 C 
ATOM     16  C   UNL     1       1.362   2.672  22.009  0.00  0.00    +0.000 C 
ENDBRANCH   8  15
ENDBRANCH   1  10
BRANCH   5  17
ATOM     17  C   UNL     1       6.602   4.815  14.039  0.00  0.00    +0.000 A 
ATOM     18  C   UNL     1       6.343   3.873  13.014  0.00  0.00    +0.000 A 
ATOM     19  C   UNL     1       7.325   4.100  12.088  0.00  0.00    +0.000 A 
ATOM     20  O   UNL     1       8.129   5.104  12.518  0.00  0.00    +0.000 OA
ATOM     21  N   UNL     1       7.685   5.555  13.751  0.00  0.00    +0.000 NA
ENDBRANCH   5  17
TORSDOF 3
ENDMDL
MODEL 5
REMARK VINA RESULT:      -6.1      2.151      3.005
REMARK  Name = 
REMARK  5 active torsions:
REMARK  status: ('A' for Active; 'I' for Inactive)
REMARK    1  A    between atoms: C_1  and  C_2
REMARK    2  A    between atoms: C_2  and  C_3
REMARK    3  A    between atoms: C_2  and  N_4
REMARK    4  A    between atoms: C_6  and  N_7
REMARK    5  A    between atoms: C_11  and  C_12
REMARK                            x       y       z     vdW  Elec       q    Type
REMARK                         _______ _______ _______ _____ _____    ______ ____
ROOT
ATOM      1  N   UNL     1       2.272   7.247  20.463  0.00  0.00    +0.000 N 
ATOM      2  C   UNL     1       1.581   8.406  20.491  0.00  0.00    +0.000 A 
ATOM      3  N   UNL     1       1.128   9.053  19.434  0.00  0.00    +0.000 NA
ATOM      4  N   UNL     1       0.429  10.196  19.762  0.00  0.00    +0.000 NA
ATOM      5  C   UNL     1       0.322  10.355  21.064  0.00  0.00    +0.000 A 
ATOM      6  S   UNL     1       1.164   9.169  21.978  0.00  0.00    +0.000 S 
ATOM      7  H   UNL     1       2.662   6.867  21.319  0.00  0.00    +0.000 HD
ENDROOT
BRANCH   1  10
ATOM      8  N   UNL     1       2.551   4.220  18.475  0.00  0.00    +0.000 N 
ATOM      9  C   UNL     1       1.958   4.917  19.594  0.00  0.00    +0.000 C 
ATOM     10  C   UNL     1       2.206   6.395  19.278  0.00  0.00    +0.000 C 
ATOM     11  C   UNL     1       3.539   6.359  18.530  0.00  0.00    +0.000 C 
ATOM     12  C   UNL     1       3.534   4.997  17.875  0.00  0.00    +0.000 C 
ATOM     13  O   UNL     1       4.315   4.640  17.008  0.00  0.00    +0.000 OA
BRANCH   8  15
ATOM     14  C   UNL     1       3.522   2.010  19.022  0.00  0.00    +0.000 C 
ATOM     15  C   UNL     1       2.435   2.774  18.265  0.00  0.00    +0.000 C 
ATOM     16  C   UNL     1       1.048   2.254  18.631  0.00  0.00    +0.000 C 
ENDBRANCH   8  15
ENDBRANCH   1  10
BRANCH   5  17
ATOM     17  C   UNL     1      -0.489  11.464  21.659  0.00  0.00    +0.000 A 
ATOM     18  C   UNL     1      -1.054  11.461  22.957  0.00  0.00    +0.000 A 
ATOM     19  C   UNL     1      -1.661  12.683  23.067  0.00  0.00    +0.000 A 
ATOM     20  O   UNL     1      -1.484  13.381  21.917  0.00  0.00    +0.000 OA
ATOM     21  N   UNL     1      -0.753  12.616  21.022  0.00  0.00    +0.000 NA
ENDBRANCH   5  17
TORSDOF 3
ENDMDL
MODEL 6
REMARK VINA RESULT:      -6.1      3.196      8.098
REMARK  Name = 
REMARK  5 active torsions:
REMARK  status: ('A' for Active; 'I' for Inactive)
REMARK    1  A    between atoms: C_1  and  C_2
REMARK    2  A    between atoms: C_2  and  C_3
REMARK    3  A    between atoms: C_2  and  N_4
REMARK    4  A    between atoms: C_6  and  N_7
REMARK    5  A    between atoms: C_11  and  C_12
REMARK                            x       y       z     vdW  Elec       q    Type
REMARK                         _______ _______ _______ _____ _____    ______ ____
ROOT
ATOM      1  N   UNL     1       1.631   9.400  18.176  0.00  0.00    +0.000 N 
ATOM      2  C   UNL     1       2.065   8.281  18.794  0.00  0.00    +0.000 A 
ATOM      3  N   UNL     1       1.716   7.890  20.005  0.00  0.00    +0.000 NA
ATOM      4  N   UNL     1       2.290   6.690  20.370  0.00  0.00    +0.000 NA
ATOM      5  C   UNL     1       3.016   6.174  19.401  0.00  0.00    +0.000 A 
ATOM      6  S   UNL     1       3.131   7.178  18.011  0.00  0.00    +0.000 S 
ATOM      7  H   UNL     1       2.022   9.670  17.281  0.00  0.00    +0.000 HD
ENDROOT
BRANCH   1  10
ATOM      8  N   UNL     1      -1.546  11.144  17.943  0.00  0.00    +0.000 N 
ATOM      9  C   UNL     1      -0.746   9.981  17.631  0.00  0.00    +0.000 C 
ATOM     10  C   UNL     1       0.407  10.051  18.638  0.00  0.00    +0.000 C 
ATOM     11  C   UNL     1       0.600  11.556  18.824  0.00  0.00    +0.000 C 
ATOM     12  C   UNL     1      -0.779  12.119  18.569  0.00  0.00    +0.000 C 
ATOM     13  O   UNL     1      -1.121  13.262  18.823  0.00  0.00    +0.000 OA
BRANCH   8  15
ATOM     14  C   UNL     1      -2.885  10.961  15.869  0.00  0.00    +0.000 C 
ATOM     15  C   UNL     1      -2.847  11.423  17.327  0.00  0.00    +0.000 C 
ATOM     16  C   UNL     1      -3.998  10.815  18.122  0.00  0.00    +0.000 C 
ENDBRANCH   8  15
ENDBRANCH   1  10
BRANCH   5  17
ATOM     17  C   UNL     1       3.647   4.822  19.523  0.00  0.00    +0.000 A 
ATOM     18  C   UNL     1       2.960   3.620  19.822  0.00  0.00    +0.000 A 
ATOM     19  C   UNL     1       3.931   2.656  19.789  0.00  0.00    +0.000 A 
ATOM     20  O   UNL     1       5.126   3.227  19.495  0.00  0.00    +0.000 OA
ATOM     21  N   UNL     1       4.957   4.593  19.334  0.00  0.00    +0.000 NA
ENDBRANCH   5  17
TORSDOF 3
ENDMDL
MODEL 7
REMARK VINA RESULT:      -6.0      2.256      2.483
REMARK  Name = 
REMARK  5 active torsions:
REMARK  status: ('A' for Active; 'I' for Inactive)
REMARK    1  A    between atoms: C_1  and  C_2
REMARK    2  A    between atoms: C_2  and  C_3
REMARK    3  A    between atoms: C_2  and  N_4
REMARK    4  A    between atoms: C_6  and  N_7
REMARK    5  A    between atoms: C_11  and  C_12
REMARK                            x       y       z     vdW  Elec       q    Type
REMARK                         _______ _______ _______ _____ _____    ______ ____
ROOT
ATOM      1  N   UNL     1       2.578   6.523  20.444  0.00  0.00    +0.000 N 
ATOM      2  C   UNL     1       2.120   7.581  19.743  0.00  0.00    +0.000 A 
ATOM      3  N   UNL     1       2.404   7.846  18.482  0.00  0.00    +0.000 NA
ATOM      4  N   UNL     1       1.770   8.978  18.013  0.00  0.00    +0.000 NA
ATOM      5  C   UNL     1       0.976   9.511  18.918  0.00  0.00    +0.000 A 
ATOM      6  S   UNL     1       1.034   8.720  20.442  0.00  0.00    +0.000 S 
ATOM      7  H   UNL     1       2.383   6.447  21.436  0.00  0.00    +0.000 HD
ENDROOT
BRANCH   1  10
ATOM      8  N   UNL     1       4.229   4.640  17.813  0.00  0.00    +0.000 N 
ATOM      9  C   UNL     1       4.299   5.653  18.842  0.00  0.00    +0.000 C 
ATOM     10  C   UNL     1       3.089   5.353  19.733  0.00  0.00    +0.000 C 
ATOM     11  C   UNL     1       2.068   4.803  18.738  0.00  0.00    +0.000 C 
ATOM     12  C   UNL     1       2.928   4.174  17.667  0.00  0.00    +0.000 C 
ATOM     13  O   UNL     1       2.516   3.432  16.790  0.00  0.00    +0.000 OA
BRANCH   8  15
ATOM     14  C   UNL     1       5.171   5.473  15.681  0.00  0.00    +0.000 C 
ATOM     15  C   UNL     1       5.270   4.437  16.802  0.00  0.00    +0.000 C 
ATOM     16  C   UNL     1       6.668   4.429  17.415  0.00  0.00    +0.000 C 
ENDBRANCH   8  15
ENDBRANCH   1  10
BRANCH   5  17
ATOM     17  C   UNL     1       0.098  10.683  18.604  0.00  0.00    +0.000 A 
ATOM     18  C   UNL     1      -1.242  10.605  18.154  0.00  0.00    +0.000 A 
ATOM     19  C   UNL     1      -1.639  11.911  18.042  0.00  0.00    +0.000 A 
ATOM     20  O   UNL     1      -0.614  12.727  18.394  0.00  0.00    +0.000 OA
ATOM     21  N   UNL     1       0.487  11.961  18.742  0.00  0.00    +0.000 NA
ENDBRANCH   5  17
TORSDOF 3
ENDMDL
MODEL 8
REMARK VINA RESULT:      -5.9      2.651      3.710
REMARK  Name = 
REMARK  5 active torsions:
REMARK  status: ('A' for Active; 'I' for Inactive)
REMARK    1  A    between atoms: C_1  and  C_2
REMARK    2  A    between atoms: C_2  and  C_3
REMARK    3  A    between atoms: C_2  and  N_4
REMARK    4  A    between atoms: C_6  and  N_7
REMARK    5  A    between atoms: C_11  and  C_12
REMARK                            x       y       z     vdW  Elec       q    Type
REMARK                         _______ _______ _______ _____ _____    ______ ____
ROOT
ATOM      1  N   UNL     1       1.840   7.662  21.265  0.00  0.00    +0.000 N 
ATOM      2  C   UNL     1       1.080   8.777  21.217  0.00  0.00    +0.000 A 
ATOM      3  N   UNL     1       0.480   9.249  20.142  0.00  0.00    +0.000 NA
ATOM      4  N   UNL     1      -0.257  10.388  20.392  0.00  0.00    +0.000 NA
ATOM      5  C   UNL     1      -0.241  10.718  21.666  0.00  0.00    +0.000 A 
ATOM      6  S   UNL     1       0.767   9.712  22.629  0.00  0.00    +0.000 S 
ATOM      7  H   UNL     1       2.338   7.423  22.114  0.00  0.00    +0.000 HD
ENDROOT
BRANCH   1  10
ATOM      8  N   UNL     1       2.066   4.399  19.686  0.00  0.00    +0.000 N 
ATOM      9  C   UNL     1       1.539   5.228  20.747  0.00  0.00    +0.000 C 
ATOM     10  C   UNL     1       1.710   6.655  20.214  0.00  0.00    +0.000 C 
ATOM     11  C   UNL     1       2.980   6.548  19.370  0.00  0.00    +0.000 C 
ATOM     12  C   UNL     1       2.971   5.110  18.907  0.00  0.00    +0.000 C 
ATOM     13  O   UNL     1       3.693   4.656  18.034  0.00  0.00    +0.000 OA
BRANCH   8  15
ATOM     14  C   UNL     1       1.702   2.389  21.083  0.00  0.00    +0.000 C 
ATOM     15  C   UNL     1       1.984   2.936  19.683  0.00  0.00    +0.000 C 
ATOM     16  C   UNL     1       0.955   2.423  18.680  0.00  0.00    +0.000 C 
ENDBRANCH   8  15
ENDBRANCH   1  10
BRANCH   5  17
ATOM     17  C   UNL     1      -1.058  11.854  22.198  0.00  0.00    +0.000 A 
ATOM     18  C   UNL     1      -2.116  11.736  23.132  0.00  0.00    +0.000 A 
ATOM     19  C   UNL     1      -2.529  13.024  23.342  0.00  0.00    +0.000 A 
ATOM     20  O   UNL     1      -1.781  13.868  22.588  0.00  0.00    +0.000 OA
ATOM     21  N   UNL     1      -0.857  13.137  21.857  0.00  0.00    +0.000 NA
ENDBRANCH   5  17
TORSDOF 3
ENDMDL
MODEL 9
REMARK VINA RESULT:      -5.9      2.659      8.382
REMARK  Name = 
REMARK  5 active torsions:
REMARK  status: ('A' for Active; 'I' for Inactive)
REMARK    1  A    between atoms: C_1  and  C_2
REMARK    2  A    between atoms: C_2  and  C_3
REMARK    3  A    between atoms: C_2  and  N_4
REMARK    4  A    between atoms: C_6  and  N_7
REMARK    5  A    between atoms: C_11  and  C_12
REMARK                            x       y       z     vdW  Elec       q    Type
REMARK                         _______ _______ _______ _____ _____    ______ ____
ROOT
ATOM      1  N   UNL     1       1.811   8.560  19.745  0.00  0.00    +0.000 N 
ATOM      2  C   UNL     1       2.020   7.234  19.883  0.00  0.00    +0.000 A 
ATOM      3  N   UNL     1       1.458   6.461  20.792  0.00  0.00    +0.000 NA
ATOM      4  N   UNL     1       1.831   5.138  20.679  0.00  0.00    +0.000 NA
ATOM      5  C   UNL     1       2.624   4.933  19.648  0.00  0.00    +0.000 A 
ATOM      6  S   UNL     1       3.052   6.370  18.809  0.00  0.00    +0.000 S 
ATOM      7  H   UNL     1       2.355   9.094  19.076  0.00  0.00    +0.000 HD
ENDROOT
BRANCH   1  10
ATOM      8  N   UNL     1      -0.473  11.200  20.750  0.00  0.00    +0.000 N 
ATOM      9  C   UNL     1       0.236  10.510  19.695  0.00  0.00    +0.000 C 
ATOM     10  C   UNL     1       0.617   9.168  20.329  0.00  0.00    +0.000 C 
ATOM     11  C   UNL     1       0.829   9.539  21.797  0.00  0.00    +0.000 C 
ATOM     12  C   UNL     1      -0.096  10.716  21.996  0.00  0.00    +0.000 C 
ATOM     13  O   UNL     1      -0.398  11.187  23.081  0.00  0.00    +0.000 OA
BRANCH   8  15
ATOM     14  C   UNL     1      -0.346  13.426  19.676  0.00  0.00    +0.000 C 
ATOM     15  C   UNL     1      -1.159  12.482  20.562  0.00  0.00    +0.000 C 
ATOM     16  C   UNL     1      -2.571  12.299  20.013  0.00  0.00    +0.000 C 
ENDBRANCH   8  15
ENDBRANCH   1  10
BRANCH   5  17
ATOM     17  C   UNL     1       3.070   3.559  19.257  0.00  0.00    +0.000 A 
ATOM     18  C   UNL     1       2.667   2.868  18.089  0.00  0.00    +0.000 A 
ATOM     19  C   UNL     1       3.353   1.684  18.140  0.00  0.00    +0.000 A 
ATOM     20  O   UNL     1       4.117   1.653  19.260  0.00  0.00    +0.000 OA
ATOM     21  N   UNL     1       3.938   2.827  19.974  0.00  0.00    +0.000 NA
ENDBRANCH   5  17
TORSDOF 3
ENDMDL
