MODEL 1
REMARK VINA RESULT:      -7.7      0.000      0.000
REMARK  Name = 
REMARK  8 active torsions:
REMARK  status: ('A' for Active; 'I' for Inactive)
REMARK    1  A    between atoms: C_1  and  C_2
REMARK    2  A    between atoms: C_2  and  C_3
REMARK    3  A    between atoms: C_3  and  C_4
REMARK    4  A    between atoms: C_4  and  N_5
REMARK    5  A    between atoms: N_8  and  C_9
REMARK    6  A    between atoms: C_12  and  S_13
REMARK    7  A    between atoms: S_13  and  O_16
REMARK    8  A    between atoms: O_16  and  C_17
REMARK                            x       y       z     vdW  Elec       q    Type
REMARK                         _______ _______ _______ _____ _____    ______ ____
ROOT
ATOM      1  C   UNL     1       2.876   6.973  18.355  0.00  0.00    +0.000 A 
ATOM      2  C   UNL     1       2.424   6.914  19.678  0.00  0.00    +0.000 A 
ATOM      3  C   UNL     1       1.694   7.970  20.218  0.00  0.00    +0.000 A 
ATOM      4  C   UNL     1       1.385   9.074  19.425  0.00  0.00    +0.000 A 
ATOM      5  C   UNL     1       1.845   9.160  18.108  0.00  0.00    +0.000 A 
ATOM      6  C   UNL     1       2.609   8.113  17.588  0.00  0.00    +0.000 A 
ENDROOT
BRANCH   1  10
ATOM      7  N   UNL     1       5.134   4.737  16.643  0.00  0.00    +0.000 N 
ATOM      8  C   UNL     1       4.150   3.773  17.071  0.00  0.00    +0.000 C 
ATOM      9  C   UNL     1       3.411   4.522  18.164  0.00  0.00    +0.000 C 
ATOM     10  N   UNL     1       3.593   5.906  17.788  0.00  0.00    +0.000 N 
ATOM     11  C   UNL     1       4.737   6.036  16.975  0.00  0.00    +0.000 C 
ATOM     12  O   UNL     1       5.326   7.058  16.659  0.00  0.00    +0.000 OA
BRANCH   7  13
ATOM     13  C   UNL     1       6.398   4.386  16.035  0.00  0.00    +0.000 C 
BRANCH  13  14
ATOM     14  C   UNL     1       6.495   4.864  14.588  0.00  0.00    +0.000 C 
BRANCH  14  16
ATOM     15  C   UNL     1       6.631   3.727  12.347  0.00  0.00    +0.000 C 
ATOM     16  C   UNL     1       5.823   3.888  13.623  0.00  0.00    +0.000 C 
ENDBRANCH  14  16
ENDBRANCH  13  14
ENDBRANCH   7  13
ENDBRANCH   1  10
BRANCH   4  17
ATOM     17  S   UNL     1       0.508  10.433  20.172  0.00  0.00    +0.000 S 
ATOM     18  O   UNL     1      -0.599   9.827  20.910  0.00  0.00    +0.000 OA
ATOM     19  O   UNL     1       1.499  11.229  20.852  0.00  0.00    +0.000 OA
BRANCH  17  20
ATOM     20  O   UNL     1      -0.105  11.289  18.916  0.00  0.00    +0.000 OA
BRANCH  20  21
ATOM     21  C   UNL     1      -1.418  11.113  18.536  0.00  0.00    +0.000 A 
ATOM     22  C   UNL     1      -1.683  10.096  17.613  0.00  0.00    +0.000 A 
ATOM     23  C   UNL     1      -2.987   9.885  17.151  0.00  0.00    +0.000 A 
ATOM     24  C   UNL     1      -4.032  10.675  17.623  0.00  0.00    +0.000 A 
ATOM     25  C   UNL     1      -3.775  11.681  18.550  0.00  0.00    +0.000 A 
ATOM     26  C   UNL     1      -2.475  11.898  19.005  0.00  0.00    +0.000 A 
ENDBRANCH  20  21
ENDBRANCH  17  20
ENDBRANCH   4  17
TORSDOF 7
ENDMDL
MODEL 2
REMARK VINA RESULT:      -7.6      1.073      2.187
REMARK  Name = 
REMARK  8 active torsions:
REMARK  status: ('A' for Active; 'I' for Inactive)
REMARK    1  A    between atoms: C_1  and  C_2
REMARK    2  A    between atoms: C_2  and  C_3
REMARK    3  A    between atoms: C_3  and  C_4
REMARK    4  A    between atoms: C_4  and  N_5
REMARK    5  A    between atoms: N_8  and  C_9
REMARK    6  A    between atoms: C_12  and  S_13
REMARK    7  A    between atoms: S_13  and  O_16
REMARK    8  A    between atoms: O_16  and  C_17
REMARK                            x       y       z     vdW  Elec       q    Type
REMARK                         _______ _______ _______ _____ _____    ______ ____
ROOT
ATOM      1  C   UNL     1       2.614   7.025  18.710  0.00  0.00    +0.000 A 
ATOM      2  C   UNL     1       2.343   8.129  17.893  0.00  0.00    +0.000 A 
ATOM      3  C   UNL     1       1.672   9.234  18.408  0.00  0.00    +0.000 A 
ATOM      4  C   UNL     1       1.299   9.254  19.751  0.00  0.00    +0.000 A 
ATOM      5  C   UNL     1       1.543   8.153  20.577  0.00  0.00    +0.000 A 
ATOM      6  C   UNL     1       2.181   7.033  20.042  0.00  0.00    +0.000 A 
ENDROOT
BRANCH   1  10
ATOM      7  N   UNL     1       4.685   4.626  16.983  0.00  0.00    +0.000 N 
ATOM      8  C   UNL     1       3.953   3.717  17.831  0.00  0.00    +0.000 C 
ATOM      9  C   UNL     1       3.394   4.641  18.897  0.00  0.00    +0.000 C 
ATOM     10  N   UNL     1       3.311   5.911  18.213  0.00  0.00    +0.000 N 
ATOM     11  C   UNL     1       4.215   5.935  17.131  0.00  0.00    +0.000 C 
ATOM     12  O   UNL     1       4.582   6.897  16.476  0.00  0.00    +0.000 OA
BRANCH   7  13
ATOM     13  C   UNL     1       5.811   4.237  16.164  0.00  0.00    +0.000 C 
BRANCH  13  14
ATOM     14  C   UNL     1       7.068   5.038  16.492  0.00  0.00    +0.000 C 
BRANCH  14  16
ATOM     15  C   UNL     1       7.545   5.816  18.838  0.00  0.00    +0.000 C 
ATOM     16  C   UNL     1       7.641   4.659  17.857  0.00  0.00    +0.000 C 
ENDBRANCH  14  16
ENDBRANCH  13  14
ENDBRANCH   7  13
ENDBRANCH   1  10
BRANCH   4  17
ATOM     17  S   UNL     1       0.382  10.658  20.354  0.00  0.00    +0.000 S 
ATOM     18  O   UNL     1      -0.753  10.099  21.087  0.00  0.00    +0.000 OA
ATOM     19  O   UNL     1       1.338  11.511  21.016  0.00  0.00    +0.000 OA
BRANCH  17  20
ATOM     20  O   UNL     1      -0.179  11.412  19.012  0.00  0.00    +0.000 OA
BRANCH  20  21
ATOM     21  C   UNL     1      -1.434  11.114  18.527  0.00  0.00    +0.000 A 
ATOM     22  C   UNL     1      -2.496  11.902  18.980  0.00  0.00    +0.000 A 
ATOM     23  C   UNL     1      -3.804  11.633  18.562  0.00  0.00    +0.000 A 
ATOM     24  C   UNL     1      -4.053  10.589  17.674  0.00  0.00    +0.000 A 
ATOM     25  C   UNL     1      -2.997   9.808  17.210  0.00  0.00    +0.000 A 
ATOM     26  C   UNL     1      -1.695  10.070  17.634  0.00  0.00    +0.000 A 
ENDBRANCH  20  21
ENDBRANCH  17  20
ENDBRANCH   4  17
TORSDOF 7
ENDMDL
MODEL 3
REMARK VINA RESULT:      -7.6      2.490      3.268
REMARK  Name = 
REMARK  8 active torsions:
REMARK  status: ('A' for Active; 'I' for Inactive)
REMARK    1  A    between atoms: C_1  and  C_2
REMARK    2  A    between atoms: C_2  and  C_3
REMARK    3  A    between atoms: C_3  and  C_4
REMARK    4  A    between atoms: C_4  and  N_5
REMARK    5  A    between atoms: N_8  and  C_9
REMARK    6  A    between atoms: C_12  and  S_13
REMARK    7  A    between atoms: S_13  and  O_16
REMARK    8  A    between atoms: O_16  and  C_17
REMARK                            x       y       z     vdW  Elec       q    Type
REMARK                         _______ _______ _______ _____ _____    ______ ____
ROOT
ATOM      1  C   UNL     1       2.319   7.626  19.074  0.00  0.00    +0.000 A 
ATOM      2  C   UNL     1       2.120   8.466  17.973  0.00  0.00    +0.000 A 
ATOM      3  C   UNL     1       1.346   9.616  18.098  0.00  0.00    +0.000 A 
ATOM      4  C   UNL     1       0.796   9.949  19.336  0.00  0.00    +0.000 A 
ATOM      5  C   UNL     1       0.967   9.112  20.442  0.00  0.00    +0.000 A 
ATOM      6  C   UNL     1       1.712   7.940  20.296  0.00  0.00    +0.000 A 
ENDROOT
BRANCH   1  10
ATOM      7  N   UNL     1       3.942   4.410  19.303  0.00  0.00    +0.000 N 
ATOM      8  C   UNL     1       4.864   5.060  18.403  0.00  0.00    +0.000 C 
ATOM      9  C   UNL     1       4.051   6.235  17.893  0.00  0.00    +0.000 C 
ATOM     10  N   UNL     1       3.116   6.474  18.970  0.00  0.00    +0.000 N 
ATOM     11  C   UNL     1       2.954   5.301  19.734  0.00  0.00    +0.000 C 
ATOM     12  O   UNL     1       2.096   5.057  20.568  0.00  0.00    +0.000 OA
BRANCH   7  13
ATOM     13  C   UNL     1       3.992   3.004  19.633  0.00  0.00    +0.000 C 
BRANCH  13  14
ATOM     14  C   UNL     1       3.672   2.116  18.433  0.00  0.00    +0.000 C 
BRANCH  14  16
ATOM     15  C   UNL     1       1.180   2.152  18.787  0.00  0.00    +0.000 C 
ATOM     16  C   UNL     1       2.314   2.458  17.823  0.00  0.00    +0.000 C 
ENDBRANCH  14  16
ENDBRANCH  13  14
ENDBRANCH   7  13
ENDBRANCH   1  10
BRANCH   4  17
ATOM     17  S   UNL     1      -0.243  11.392  19.440  0.00  0.00    +0.000 S 
ATOM     18  O   UNL     1       0.016  11.968  20.758  0.00  0.00    +0.000 OA
ATOM     19  O   UNL     1       0.002  12.155  18.241  0.00  0.00    +0.000 OA
BRANCH  17  20
ATOM     20  O   UNL     1      -1.778  10.817  19.411  0.00  0.00    +0.000 OA
BRANCH  20  21
ATOM     21  C   UNL     1      -2.488  10.803  18.231  0.00  0.00    +0.000 A 
ATOM     22  C   UNL     1      -2.060   9.914  17.240  0.00  0.00    +0.000 A 
ATOM     23  C   UNL     1      -2.707   9.873  16.000  0.00  0.00    +0.000 A 
ATOM     24  C   UNL     1      -3.797  10.705  15.753  0.00  0.00    +0.000 A 
ATOM     25  C   UNL     1      -4.235  11.584  16.741  0.00  0.00    +0.000 A 
ATOM     26  C   UNL     1      -3.584  11.632  17.973  0.00  0.00    +0.000 A 
ENDBRANCH  20  21
ENDBRANCH  17  20
ENDBRANCH   4  17
TORSDOF 7
ENDMDL
MODEL 4
REMARK VINA RESULT:      -7.6      0.919      1.484
REMARK  Name = 
REMARK  8 active torsions:
REMARK  status: ('A' for Active; 'I' for Inactive)
REMARK    1  A    between atoms: C_1  and  C_2
REMARK    2  A    between atoms: C_2  and  C_3
REMARK    3  A    between atoms: C_3  and  C_4
REMARK    4  A    between atoms: C_4  and  N_5
REMARK    5  A    between atoms: N_8  and  C_9
REMARK    6  A    between atoms: C_12  and  S_13
REMARK    7  A    between atoms: S_13  and  O_16
REMARK    8  A    between atoms: O_16  and  C_17
REMARK                            x       y       z     vdW  Elec       q    Type
REMARK                         _______ _______ _______ _____ _____    ______ ____
ROOT
ATOM      1  C   UNL     1       2.655   7.404  18.605  0.00  0.00    +0.000 A 
ATOM      2  C   UNL     1       2.085   7.560  19.874  0.00  0.00    +0.000 A 
ATOM      3  C   UNL     1       1.295   8.671  20.156  0.00  0.00    +0.000 A 
ATOM      4  C   UNL     1       1.043   9.613  19.160  0.00  0.00    +0.000 A 
ATOM      5  C   UNL     1       1.620   9.485  17.893  0.00  0.00    +0.000 A 
ATOM      6  C   UNL     1       2.442   8.387  17.631  0.00  0.00    +0.000 A 
ENDROOT
BRANCH   1  10
ATOM      7  N   UNL     1       5.123   4.980  17.576  0.00  0.00    +0.000 N 
ATOM      8  C   UNL     1       4.059   4.074  17.936  0.00  0.00    +0.000 C 
ATOM      9  C   UNL     1       3.161   4.947  18.792  0.00  0.00    +0.000 C 
ATOM     10  N   UNL     1       3.434   6.277  18.296  0.00  0.00    +0.000 N 
ATOM     11  C   UNL     1       4.703   6.309  17.683  0.00  0.00    +0.000 C 
ATOM     12  O   UNL     1       5.359   7.287  17.357  0.00  0.00    +0.000 OA
BRANCH   7  13
ATOM     13  C   UNL     1       6.464   4.558  17.238  0.00  0.00    +0.000 C 
BRANCH  13  14
ATOM     14  C   UNL     1       6.782   4.773  15.761  0.00  0.00    +0.000 C 
BRANCH  14  16
ATOM     15  C   UNL     1       6.428   3.936  13.414  0.00  0.00    +0.000 C 
ATOM     16  C   UNL     1       6.006   3.806  14.868  0.00  0.00    +0.000 C 
ENDBRANCH  14  16
ENDBRANCH  13  14
ENDBRANCH   7  13
ENDBRANCH   1  10
BRANCH   4  17
ATOM     17  S   UNL     1       0.084  11.054  19.580  0.00  0.00    +0.000 S 
ATOM     18  O   UNL     1       0.426  11.361  20.969  0.00  0.00    +0.000 OA
ATOM     19  O   UNL     1       0.320  12.017  18.533  0.00  0.00    +0.000 OA
BRANCH  17  20
ATOM     20  O   UNL     1      -1.477  10.561  19.521  0.00  0.00    +0.000 OA
BRANCH  20  21
ATOM     21  C   UNL     1      -2.180  10.634  18.338  0.00  0.00    +0.000 A 
ATOM     22  C   UNL     1      -3.270  11.509  18.296  0.00  0.00    +0.000 A 
ATOM     23  C   UNL     1      -4.054  11.606  17.142  0.00  0.00    +0.000 A 
ATOM     24  C   UNL     1      -3.741  10.845  16.018  0.00  0.00    +0.000 A 
ATOM     25  C   UNL     1      -2.649   9.981  16.050  0.00  0.00    +0.000 A 
ATOM     26  C   UNL     1      -1.872   9.877  17.203  0.00  0.00    +0.000 A 
ENDBRANCH  20  21
ENDBRANCH  17  20
ENDBRANCH   4  17
TORSDOF 7
ENDMDL
MODEL 5
REMARK VINA RESULT:      -7.4      2.140      3.253
REMARK  Name = 
REMARK  8 active torsions:
REMARK  status: ('A' for Active; 'I' for Inactive)
REMARK    1  A    between atoms: C_1  and  C_2
REMARK    2  A    between atoms: C_2  and  C_3
REMARK    3  A    between atoms: C_3  and  C_4
REMARK    4  A    between atoms: C_4  and  N_5
REMARK    5  A    between atoms: N_8  and  C_9
REMARK    6  A    between atoms: C_12  and  S_13
REMARK    7  A    between atoms: S_13  and  O_16
REMARK    8  A    between atoms: O_16  and  C_17
REMARK                            x       y       z     vdW  Elec       q    Type
REMARK                         _______ _______ _______ _____ _____    ______ ____
ROOT
ATOM      1  C   UNL     1       2.555   7.499  18.619  0.00  0.00    +0.000 A 
ATOM      2  C   UNL     1       2.377   8.493  17.650  0.00  0.00    +0.000 A 
ATOM      3  C   UNL     1       1.628   9.630  17.940  0.00  0.00    +0.000 A 
ATOM      4  C   UNL     1       1.082   9.793  19.213  0.00  0.00    +0.000 A 
ATOM      5  C   UNL     1       1.232   8.802  20.187  0.00  0.00    +0.000 A 
ATOM      6  C   UNL     1       1.952   7.648  19.874  0.00  0.00    +0.000 A 
ENDROOT
BRANCH   1  10
ATOM      7  N   UNL     1       3.927   4.225  17.967  0.00  0.00    +0.000 N 
ATOM      8  C   UNL     1       5.160   4.968  18.056  0.00  0.00    +0.000 C 
ATOM      9  C   UNL     1       4.693   6.401  17.878  0.00  0.00    +0.000 C 
ATOM     10  N   UNL     1       3.327   6.357  18.350  0.00  0.00    +0.000 N 
ATOM     11  C   UNL     1       2.830   5.041  18.259  0.00  0.00    +0.000 C 
ATOM     12  O   UNL     1       1.672   4.665  18.350  0.00  0.00    +0.000 OA
BRANCH   7  13
ATOM     13  C   UNL     1       3.843   2.845  17.542  0.00  0.00    +0.000 C 
BRANCH  13  14
ATOM     14  C   UNL     1       3.484   1.908  18.692  0.00  0.00    +0.000 C 
BRANCH  14  16
ATOM     15  C   UNL     1       2.935   2.627  21.040  0.00  0.00    +0.000 C 
ATOM     16  C   UNL     1       4.042   2.406  20.024  0.00  0.00    +0.000 C 
ENDBRANCH  14  16
ENDBRANCH  13  14
ENDBRANCH   7  13
ENDBRANCH   1  10
BRANCH   4  17
ATOM     17  S   UNL     1       0.074  11.228  19.524  0.00  0.00    +0.000 S 
ATOM     18  O   UNL     1       0.434  11.677  20.868  0.00  0.00    +0.000 OA
ATOM     19  O   UNL     1       0.246  12.098  18.386  0.00  0.00    +0.000 OA
BRANCH  17  20
ATOM     20  O   UNL     1      -1.467  10.671  19.552  0.00  0.00    +0.000 OA
BRANCH  20  21
ATOM     21  C   UNL     1      -2.243  10.729  18.415  0.00  0.00    +0.000 A 
ATOM     22  C   UNL     1      -1.882   9.894  17.354  0.00  0.00    +0.000 A 
ATOM     23  C   UNL     1      -2.600   9.928  16.153  0.00  0.00    +0.000 A 
ATOM     24  C   UNL     1      -3.692  10.781  16.015  0.00  0.00    +0.000 A 
ATOM     25  C   UNL     1      -4.062  11.607  17.073  0.00  0.00    +0.000 A 
ATOM     26  C   UNL     1      -3.342  11.581  18.267  0.00  0.00    +0.000 A 
ENDBRANCH  20  21
ENDBRANCH  17  20
ENDBRANCH   4  17
TORSDOF 7
ENDMDL
MODEL 6
REMARK VINA RESULT:      -7.4      0.698      1.204
REMARK  Name = 
REMARK  8 active torsions:
REMARK  status: ('A' for Active; 'I' for Inactive)
REMARK    1  A    between atoms: C_1  and  C_2
REMARK    2  A    between atoms: C_2  and  C_3
REMARK    3  A    between atoms: C_3  and  C_4
REMARK    4  A    between atoms: C_4  and  N_5
REMARK    5  A    between atoms: N_8  and  C_9
REMARK    6  A    between atoms: C_12  and  S_13
REMARK    7  A    between atoms: S_13  and  O_16
REMARK    8  A    between atoms: O_16  and  C_17
REMARK                            x       y       z     vdW  Elec       q    Type
REMARK                         _______ _______ _______ _____ _____    ______ ____
ROOT
ATOM      1  C   UNL     1       2.536   7.192  18.989  0.00  0.00    +0.000 A 
ATOM      2  C   UNL     1       2.304   8.284  18.145  0.00  0.00    +0.000 A 
ATOM      3  C   UNL     1       1.639   9.410  18.621  0.00  0.00    +0.000 A 
ATOM      4  C   UNL     1       1.232   9.463  19.954  0.00  0.00    +0.000 A 
ATOM      5  C   UNL     1       1.437   8.374  20.806  0.00  0.00    +0.000 A 
ATOM      6  C   UNL     1       2.070   7.233  20.309  0.00  0.00    +0.000 A 
ENDROOT
BRANCH   1  10
ATOM      7  N   UNL     1       4.598   4.723  17.352  0.00  0.00    +0.000 N 
ATOM      8  C   UNL     1       3.850   3.847  18.220  0.00  0.00    +0.000 C 
ATOM      9  C   UNL     1       3.292   4.807  19.254  0.00  0.00    +0.000 C 
ATOM     10  N   UNL     1       3.226   6.058  18.531  0.00  0.00    +0.000 N 
ATOM     11  C   UNL     1       4.139   6.040  17.457  0.00  0.00    +0.000 C 
ATOM     12  O   UNL     1       4.521   6.979  16.777  0.00  0.00    +0.000 OA
BRANCH   7  13
ATOM     13  C   UNL     1       5.727   4.300  16.554  0.00  0.00    +0.000 C 
BRANCH  13  14
ATOM     14  C   UNL     1       5.368   4.154  15.077  0.00  0.00    +0.000 C 
BRANCH  14  16
ATOM     15  C   UNL     1       6.469   3.726  12.855  0.00  0.00    +0.000 C 
ATOM     16  C   UNL     1       6.554   4.480  14.171  0.00  0.00    +0.000 C 
ENDBRANCH  14  16
ENDBRANCH  13  14
ENDBRANCH   7  13
ENDBRANCH   1  10
BRANCH   4  17
ATOM     17  S   UNL     1       0.325  10.892  20.507  0.00  0.00    +0.000 S 
ATOM     18  O   UNL     1      -0.803  10.367  21.274  0.00  0.00    +0.000 OA
ATOM     19  O   UNL     1       1.289  11.771  21.120  0.00  0.00    +0.000 OA
BRANCH  17  20
ATOM     20  O   UNL     1      -0.250  11.589  19.139  0.00  0.00    +0.000 OA
BRANCH  20  21
ATOM     21  C   UNL     1      -1.508  11.269  18.678  0.00  0.00    +0.000 A 
ATOM     22  C   UNL     1      -1.608  10.184  17.800  0.00  0.00    +0.000 A 
ATOM     23  C   UNL     1      -2.847   9.826  17.259  0.00  0.00    +0.000 A 
ATOM     24  C   UNL     1      -3.994  10.537  17.608  0.00  0.00    +0.000 A 
ATOM     25  C   UNL     1      -3.902  11.610  18.490  0.00  0.00    +0.000 A 
ATOM     26  C   UNL     1      -2.665  11.973  19.022  0.00  0.00    +0.000 A 
ENDBRANCH  20  21
ENDBRANCH  17  20
ENDBRANCH   4  17
TORSDOF 7
ENDMDL
MODEL 7
REMARK VINA RESULT:      -7.3      2.226      3.134
REMARK  Name = 
REMARK  8 active torsions:
REMARK  status: ('A' for Active; 'I' for Inactive)
REMARK    1  A    between atoms: C_1  and  C_2
REMARK    2  A    between atoms: C_2  and  C_3
REMARK    3  A    between atoms: C_3  and  C_4
REMARK    4  A    between atoms: C_4  and  N_5
REMARK    5  A    between atoms: N_8  and  C_9
REMARK    6  A    between atoms: C_12  and  S_13
REMARK    7  A    between atoms: S_13  and  O_16
REMARK    8  A    between atoms: O_16  and  C_17
REMARK                            x       y       z     vdW  Elec       q    Type
REMARK                         _______ _______ _______ _____ _____    ______ ____
ROOT
ATOM      1  C   UNL     1       2.578   7.210  18.422  0.00  0.00    +0.000 A 
ATOM      2  C   UNL     1       2.263   8.300  17.602  0.00  0.00    +0.000 A 
ATOM      3  C   UNL     1       1.610   9.410  18.130  0.00  0.00    +0.000 A 
ATOM      4  C   UNL     1       1.298   9.449  19.489  0.00  0.00    +0.000 A 
ATOM      5  C   UNL     1       1.586   8.362  20.319  0.00  0.00    +0.000 A 
ATOM      6  C   UNL     1       2.206   7.237  19.772  0.00  0.00    +0.000 A 
ENDROOT
BRANCH   1  10
ATOM      7  N   UNL     1       4.846   4.795  16.990  0.00  0.00    +0.000 N 
ATOM      8  C   UNL     1       3.680   3.955  17.118  0.00  0.00    +0.000 C 
ATOM      9  C   UNL     1       2.827   4.727  18.108  0.00  0.00    +0.000 C 
ATOM     10  N   UNL     1       3.258   6.093  17.911  0.00  0.00    +0.000 N 
ATOM     11  C   UNL     1       4.555   6.112  17.360  0.00  0.00    +0.000 C 
ATOM     12  O   UNL     1       5.321   7.059  17.267  0.00  0.00    +0.000 OA
BRANCH   7  13
ATOM     13  C   UNL     1       6.155   4.309  16.616  0.00  0.00    +0.000 C 
BRANCH  13  14
ATOM     14  C   UNL     1       6.537   4.713  15.194  0.00  0.00    +0.000 C 
BRANCH  14  16
ATOM     15  C   UNL     1       6.286   3.713  12.898  0.00  0.00    +0.000 C 
ATOM     16  C   UNL     1       5.563   4.143  14.164  0.00  0.00    +0.000 C 
ENDBRANCH  14  16
ENDBRANCH  13  14
ENDBRANCH   7  13
ENDBRANCH   1  10
BRANCH   4  17
ATOM     17  S   UNL     1       0.402  10.856  20.112  0.00  0.00    +0.000 S 
ATOM     18  O   UNL     1      -0.918  10.348  20.481  0.00  0.00    +0.000 OA
ATOM     19  O   UNL     1       1.255  11.476  21.095  0.00  0.00    +0.000 OA
BRANCH  17  20
ATOM     20  O   UNL     1       0.237  11.861  18.828  0.00  0.00    +0.000 OA
BRANCH  20  21
ATOM     21  C   UNL     1       1.003  13.003  18.742  0.00  0.00    +0.000 A 
ATOM     22  C   UNL     1       0.413  14.200  19.162  0.00  0.00    +0.000 A 
ATOM     23  C   UNL     1       1.116  15.405  19.066  0.00  0.00    +0.000 A 
ATOM     24  C   UNL     1       2.417  15.418  18.570  0.00  0.00    +0.000 A 
ATOM     25  C   UNL     1       3.014  14.228  18.161  0.00  0.00    +0.000 A 
ATOM     26  C   UNL     1       2.310  13.027  18.247  0.00  0.00    +0.000 A 
ENDBRANCH  20  21
ENDBRANCH  17  20
ENDBRANCH   4  17
TORSDOF 7
ENDMDL
MODEL 8
REMARK VINA RESULT:      -7.3      3.422      9.199
REMARK  Name = 
REMARK  8 active torsions:
REMARK  status: ('A' for Active; 'I' for Inactive)
REMARK    1  A    between atoms: C_1  and  C_2
REMARK    2  A    between atoms: C_2  and  C_3
REMARK    3  A    between atoms: C_3  and  C_4
REMARK    4  A    between atoms: C_4  and  N_5
REMARK    5  A    between atoms: N_8  and  C_9
REMARK    6  A    between atoms: C_12  and  S_13
REMARK    7  A    between atoms: S_13  and  O_16
REMARK    8  A    between atoms: O_16  and  C_17
REMARK                            x       y       z     vdW  Elec       q    Type
REMARK                         _______ _______ _______ _____ _____    ______ ____
ROOT
ATOM      1  C   UNL     1       0.745   9.591  19.389  0.00  0.00    +0.000 A 
ATOM      2  C   UNL     1       1.133   8.618  20.318  0.00  0.00    +0.000 A 
ATOM      3  C   UNL     1       2.067   7.648  19.969  0.00  0.00    +0.000 A 
ATOM      4  C   UNL     1       2.643   7.666  18.699  0.00  0.00    +0.000 A 
ATOM      5  C   UNL     1       2.253   8.617  17.751  0.00  0.00    +0.000 A 
ATOM      6  C   UNL     1       1.287   9.562  18.098  0.00  0.00    +0.000 A 
ENDROOT
BRANCH   1  10
ATOM      7  N   UNL     1      -1.267  12.193  20.875  0.00  0.00    +0.000 N 
ATOM      8  C   UNL     1      -2.049  11.961  19.685  0.00  0.00    +0.000 C 
ATOM      9  C   UNL     1      -1.070  11.226  18.788  0.00  0.00    +0.000 C 
ATOM     10  N   UNL     1      -0.179  10.592  19.733  0.00  0.00    +0.000 N 
ATOM     11  C   UNL     1      -0.206  11.286  20.959  0.00  0.00    +0.000 C 
ATOM     12  O   UNL     1       0.566  11.186  21.900  0.00  0.00    +0.000 OA
BRANCH   7  13
ATOM     13  C   UNL     1      -1.507  13.278  21.800  0.00  0.00    +0.000 C 
BRANCH  13  14
ATOM     14  C   UNL     1      -2.914  13.234  22.390  0.00  0.00    +0.000 C 
BRANCH  14  16
ATOM     15  C   UNL     1      -4.159  12.514  24.455  0.00  0.00    +0.000 C 
ATOM     16  C   UNL     1      -3.035  12.179  23.489  0.00  0.00    +0.000 C 
ENDBRANCH  14  16
ENDBRANCH  13  14
ENDBRANCH   7  13
ENDBRANCH   1  10
BRANCH   4  17
ATOM     17  S   UNL     1       3.784   6.368  18.267  0.00  0.00    +0.000 S 
ATOM     18  O   UNL     1       4.779   6.993  17.398  0.00  0.00    +0.000 OA
ATOM     19  O   UNL     1       4.175   5.745  19.507  0.00  0.00    +0.000 OA
BRANCH  17  20
ATOM     20  O   UNL     1       2.907   5.305  17.381  0.00  0.00    +0.000 OA
BRANCH  20  21
ATOM     21  C   UNL     1       2.569   4.078  17.909  0.00  0.00    +0.000 A 
ATOM     22  C   UNL     1       1.364   3.998  18.615  0.00  0.00    +0.000 A 
ATOM     23  C   UNL     1       0.976   2.795  19.214  0.00  0.00    +0.000 A 
ATOM     24  C   UNL     1       1.779   1.663  19.094  0.00  0.00    +0.000 A 
ATOM     25  C   UNL     1       2.974   1.734  18.383  0.00  0.00    +0.000 A 
ATOM     26  C   UNL     1       3.366   2.935  17.793  0.00  0.00    +0.000 A 
ENDBRANCH  20  21
ENDBRANCH  17  20
ENDBRANCH   4  17
TORSDOF 7
ENDMDL
MODEL 9
REMARK VINA RESULT:      -7.3      3.118      8.596
REMARK  Name = 
REMARK  8 active torsions:
REMARK  status: ('A' for Active; 'I' for Inactive)
REMARK    1  A    between atoms: C_1  and  C_2
REMARK    2  A    between atoms: C_2  and  C_3
REMARK    3  A    between atoms: C_3  and  C_4
REMARK    4  A    between atoms: C_4  and  N_5
REMARK    5  A    between atoms: N_8  and  C_9
REMARK    6  A    between atoms: C_12  and  S_13
REMARK    7  A    between atoms: S_13  and  O_16
REMARK    8  A    between atoms: O_16  and  C_17
REMARK                            x       y       z     vdW  Elec       q    Type
REMARK                         _______ _______ _______ _____ _____    ______ ____
ROOT
ATOM      1  C   UNL     1       1.952   7.534  19.660  0.00  0.00    +0.000 A 
ATOM      2  C   UNL     1       2.640   7.265  18.471  0.00  0.00    +0.000 A 
ATOM      3  C   UNL     1       3.166   5.998  18.235  0.00  0.00    +0.000 A 
ATOM      4  C   UNL     1       2.976   4.984  19.174  0.00  0.00    +0.000 A 
ATOM      5  C   UNL     1       2.309   5.239  20.376  0.00  0.00    +0.000 A 
ATOM      6  C   UNL     1       1.820   6.524  20.620  0.00  0.00    +0.000 A 
ENDROOT
BRANCH   1  10
ATOM      7  N   UNL     1       0.422  10.802  19.587  0.00  0.00    +0.000 N 
ATOM      8  C   UNL     1       0.797  10.765  20.979  0.00  0.00    +0.000 C 
ATOM      9  C   UNL     1       1.032   9.284  21.215  0.00  0.00    +0.000 C 
ATOM     10  N   UNL     1       1.394   8.801  19.902  0.00  0.00    +0.000 N 
ATOM     11  C   UNL     1       0.887   9.668  18.913  0.00  0.00    +0.000 C 
ATOM     12  O   UNL     1       0.798   9.472  17.712  0.00  0.00    +0.000 OA
BRANCH   7  13
ATOM     13  C   UNL     1      -0.401  11.836  18.999  0.00  0.00    +0.000 C 
BRANCH  13  14
ATOM     14  C   UNL     1      -1.881  11.650  19.322  0.00  0.00    +0.000 C 
BRANCH  14  16
ATOM     15  C   UNL     1      -2.275  11.200  16.878  0.00  0.00    +0.000 C 
ATOM     16  C   UNL     1      -2.576  10.753  18.299  0.00  0.00    +0.000 C 
ENDBRANCH  14  16
ENDBRANCH  13  14
ENDBRANCH   7  13
ENDBRANCH   1  10
BRANCH   4  17
ATOM     17  S   UNL     1       3.722   3.396  18.868  0.00  0.00    +0.000 S 
ATOM     18  O   UNL     1       3.175   2.503  19.888  0.00  0.00    +0.000 OA
ATOM     19  O   UNL     1       3.527   3.122  17.466  0.00  0.00    +0.000 OA
BRANCH  17  20
ATOM     20  O   UNL     1       5.320   3.611  19.160  0.00  0.00    +0.000 OA
BRANCH  20  21
ATOM     21  C   UNL     1       6.039   4.531  18.429  0.00  0.00    +0.000 A 
ATOM     22  C   UNL     1       6.714   5.526  19.143  0.00  0.00    +0.000 A 
ATOM     23  C   UNL     1       7.431   6.518  18.465  0.00  0.00    +0.000 A 
ATOM     24  C   UNL     1       7.493   6.508  17.073  0.00  0.00    +0.000 A 
ATOM     25  C   UNL     1       6.832   5.513  16.358  0.00  0.00    +0.000 A 
ATOM     26  C   UNL     1       6.110   4.529  17.032  0.00  0.00    +0.000 A 
ENDBRANCH  20  21
ENDBRANCH  17  20
ENDBRANCH   4  17
TORSDOF 7
ENDMDL
