MODEL 1
REMARK VINA RESULT:      -9.1      0.000      0.000
REMARK  Name = 
REMARK  5 active torsions:
REMARK  status: ('A' for Active; 'I' for Inactive)
REMARK    1  A    between atoms: C_1  and  C_2
REMARK    2  A    between atoms: C_9  and  C_10
REMARK    3  A    between atoms: N_12  and  C_13
REMARK    4  A    between atoms: C_13  and  C_14
REMARK    5  A    between atoms: C_24  and  O_25
REMARK                            x       y       z     vdW  Elec       q    Type
REMARK                         _______ _______ _______ _____ _____    ______ ____
ROOT
ATOM      1  C   UNL     1      -1.508  13.679  20.872  0.00  0.00    +0.000 C 
ATOM      2  C   UNL     1      -0.553  12.752  21.606  0.00  0.00    +0.000 C 
ATOM      3  C   UNL     1      -1.002  12.443  23.024  0.00  0.00    +0.000 C 
ATOM      4  O   UNL     1      -1.244  11.027  23.116  0.00  0.00    +0.000 OA
ATOM      5  C   UNL     1      -0.867  10.408  21.886  0.00  0.00    +0.000 C 
ATOM      6  C   UNL     1       0.225   9.353  22.103  0.00  0.00    +0.000 C 
ATOM      7  N   UNL     1       0.823   8.928  20.809  0.00  0.00    +0.000 N 
ATOM      8  C   UNL     1       1.535   7.731  20.730  0.00  0.00    +0.000 A 
ATOM      9  C   UNL     1       2.242   7.317  19.660  0.00  0.00    +0.000 A 
ATOM     10  C   UNL     1       2.260   8.234  18.505  0.00  0.00    +0.000 A 
ATOM     11  O   UNL     1       2.890   7.984  17.470  0.00  0.00    +0.000 OA
ATOM     12  C   UNL     1       1.521   9.527  18.574  0.00  0.00    +0.000 A 
ATOM     13  C   UNL     1       0.864   9.829  19.712  0.00  0.00    +0.000 A 
ATOM     14  C   UNL     1       0.246  11.217  19.836  0.00  0.00    +0.000 C 
ATOM     15  O   UNL     1       0.422  12.114  19.018  0.00  0.00    +0.000 OA
ATOM     16  N   UNL     1      -0.425  11.450  21.011  0.00  0.00    +0.000 N 
ENDROOT
BRANCH   9  17
ATOM     17  C   UNL     1       2.980   6.014  19.670  0.00  0.00    +0.000 C 
ATOM     18  O   UNL     1       2.524   5.030  20.257  0.00  0.00    +0.000 OA
ATOM     19  N   UNL     1       4.174   5.980  18.989  0.00  0.00    +0.000 N 
ATOM     20  H   UNL     1       4.461   6.798  18.455  0.00  0.00    +0.000 HD
BRANCH  19  21
ATOM     21  C   UNL     1       4.978   4.781  18.874  0.00  0.00    +0.000 C 
BRANCH  21  22
ATOM     22  C   UNL     1       5.609   4.597  17.522  0.00  0.00    +0.000 A 
ATOM     23  C   UNL     1       4.817   4.325  16.401  0.00  0.00    +0.000 A 
ATOM     24  C   UNL     1       5.406   4.267  15.142  0.00  0.00    +0.000 A 
ATOM     25  C   UNL     1       6.771   4.458  15.047  0.00  0.00    +0.000 A 
ATOM     26  F   UNL     1       7.334   4.425  13.828  0.00  0.00    +0.000 F 
ATOM     27  N   UNL     1       7.578   4.690  16.099  0.00  0.00    +0.000 NA
ATOM     28  C   UNL     1       6.978   4.752  17.309  0.00  0.00    +0.000 A 
ATOM     29  F   UNL     1       7.772   5.012  18.356  0.00  0.00    +0.000 F 
ENDBRANCH  21  22
ENDBRANCH  19  21
ENDBRANCH   9  17
BRANCH  12  30
ATOM     30  O   UNL     1       1.617  10.328  17.454  0.00  0.00    +0.000 OA
ATOM     31  H   UNL     1       0.763  10.803  17.392  0.00  0.00    +0.000 HD
ENDBRANCH  12  30
TORSDOF 4
ENDMDL
MODEL 2
REMARK VINA RESULT:      -8.2      1.338      1.642
REMARK  Name = 
REMARK  5 active torsions:
REMARK  status: ('A' for Active; 'I' for Inactive)
REMARK    1  A    between atoms: C_1  and  C_2
REMARK    2  A    between atoms: C_9  and  C_10
REMARK    3  A    between atoms: N_12  and  C_13
REMARK    4  A    between atoms: C_13  and  C_14
REMARK    5  A    between atoms: C_24  and  O_25
REMARK                            x       y       z     vdW  Elec       q    Type
REMARK                         _______ _______ _______ _____ _____    ______ ____
ROOT
ATOM      1  C   UNL     1      -0.865  12.313  21.526  0.00  0.00    +0.000 C 
ATOM      2  C   UNL     1       0.070  11.205  21.984  0.00  0.00    +0.000 C 
ATOM      3  C   UNL     1      -0.419  10.498  23.237  0.00  0.00    +0.000 C 
ATOM      4  O   UNL     1      -0.663   9.119  22.905  0.00  0.00    +0.000 OA
ATOM      5  C   UNL     1      -0.249   8.884  21.558  0.00  0.00    +0.000 C 
ATOM      6  C   UNL     1       0.836   7.803  21.488  0.00  0.00    +0.000 C 
ATOM      7  N   UNL     1       1.472   7.770  20.144  0.00  0.00    +0.000 N 
ATOM      8  C   UNL     1       2.187   6.643  19.739  0.00  0.00    +0.000 A 
ATOM      9  C   UNL     1       2.924   6.553  18.614  0.00  0.00    +0.000 A 
ATOM     10  C   UNL     1       2.975   7.767  17.778  0.00  0.00    +0.000 A 
ATOM     11  O   UNL     1       3.635   7.826  16.734  0.00  0.00    +0.000 OA
ATOM     12  C   UNL     1       2.234   8.989  18.201  0.00  0.00    +0.000 A 
ATOM     13  C   UNL     1       1.543   8.951  19.359  0.00  0.00    +0.000 A 
ATOM     14  C   UNL     1       0.921  10.246  19.866  0.00  0.00    +0.000 C 
ATOM     15  O   UNL     1       1.119  11.342  19.351  0.00  0.00    +0.000 OA
ATOM     16  N   UNL     1       0.216  10.132  21.038  0.00  0.00    +0.000 N 
ENDROOT
BRANCH   9  17
ATOM     17  C   UNL     1       3.663   5.299  18.265  0.00  0.00    +0.000 C 
ATOM     18  O   UNL     1       3.143   4.191  18.417  0.00  0.00    +0.000 OA
ATOM     19  N   UNL     1       4.934   5.455  17.762  0.00  0.00    +0.000 N 
ATOM     20  H   UNL     1       5.281   6.395  17.581  0.00  0.00    +0.000 HD
BRANCH  19  21
ATOM     21  C   UNL     1       5.753   4.338  17.339  0.00  0.00    +0.000 C 
BRANCH  21  22
ATOM     22  C   UNL     1       6.311   4.481  15.951  0.00  0.00    +0.000 A 
ATOM     23  C   UNL     1       5.840   3.672  14.911  0.00  0.00    +0.000 A 
ATOM     24  C   UNL     1       6.287   3.894  13.612  0.00  0.00    +0.000 A 
ATOM     25  C   UNL     1       7.209   4.900  13.399  0.00  0.00    +0.000 A 
ATOM     26  F   UNL     1       7.621   5.129  12.141  0.00  0.00    +0.000 F 
ATOM     27  N   UNL     1       7.714   5.683  14.370  0.00  0.00    +0.000 NA
ATOM     28  C   UNL     1       7.254   5.453  15.621  0.00  0.00    +0.000 A 
ATOM     29  F   UNL     1       7.731   6.249  16.587  0.00  0.00    +0.000 F 
ENDBRANCH  21  22
ENDBRANCH  19  21
ENDBRANCH   9  17
BRANCH  12  30
ATOM     30  O   UNL     1       2.360  10.082  17.367  0.00  0.00    +0.000 OA
ATOM     31  H   UNL     1       3.305  10.115  17.112  0.00  0.00    +0.000 HD
ENDBRANCH  12  30
TORSDOF 4
ENDMDL
MODEL 3
REMARK VINA RESULT:      -8.2      1.090      1.296
REMARK  Name = 
REMARK  5 active torsions:
REMARK  status: ('A' for Active; 'I' for Inactive)
REMARK    1  A    between atoms: C_1  and  C_2
REMARK    2  A    between atoms: C_9  and  C_10
REMARK    3  A    between atoms: N_12  and  C_13
REMARK    4  A    between atoms: C_13  and  C_14
REMARK    5  A    between atoms: C_24  and  O_25
REMARK                            x       y       z     vdW  Elec       q    Type
REMARK                         _______ _______ _______ _____ _____    ______ ____
ROOT
ATOM      1  C   UNL     1      -2.027  13.291  21.056  0.00  0.00    +0.000 C 
ATOM      2  C   UNL     1      -0.967  12.451  21.751  0.00  0.00    +0.000 C 
ATOM      3  C   UNL     1      -1.337  12.096  23.181  0.00  0.00    +0.000 C 
ATOM      4  O   UNL     1      -1.445  10.664  23.270  0.00  0.00    +0.000 OA
ATOM      5  C   UNL     1      -1.056  10.087  22.023  0.00  0.00    +0.000 C 
ATOM      6  C   UNL     1       0.134   9.135  22.195  0.00  0.00    +0.000 C 
ATOM      7  N   UNL     1       0.724   8.772  20.879  0.00  0.00    +0.000 N 
ATOM      8  C   UNL     1       1.538   7.646  20.766  0.00  0.00    +0.000 A 
ATOM      9  C   UNL     1       2.242   7.302  19.670  0.00  0.00    +0.000 A 
ATOM     10  C   UNL     1       2.137   8.222  18.522  0.00  0.00    +0.000 A 
ATOM     11  O   UNL     1       2.751   8.036  17.465  0.00  0.00    +0.000 OA
ATOM     12  C   UNL     1       1.287   9.442  18.626  0.00  0.00    +0.000 A 
ATOM     13  C   UNL     1       0.644   9.678  19.788  0.00  0.00    +0.000 A 
ATOM     14  C   UNL     1      -0.093  11.003  19.943  0.00  0.00    +0.000 C 
ATOM     15  O   UNL     1      -0.028  11.916  19.127  0.00  0.00    +0.000 OA
ATOM     16  N   UNL     1      -0.742  11.169  21.142  0.00  0.00    +0.000 N 
ENDROOT
BRANCH   9  17
ATOM     17  C   UNL     1       3.096   6.073  19.645  0.00  0.00    +0.000 C 
ATOM     18  O   UNL     1       2.703   5.015  20.145  0.00  0.00    +0.000 OA
ATOM     19  N   UNL     1       4.322   6.189  19.033  0.00  0.00    +0.000 N 
ATOM     20  H   UNL     1       4.560   7.062  18.566  0.00  0.00    +0.000 HD
BRANCH  19  21
ATOM     21  C   UNL     1       5.238   5.076  18.894  0.00  0.00    +0.000 C 
BRANCH  21  22
ATOM     22  C   UNL     1       5.629   4.781  17.473  0.00  0.00    +0.000 A 
ATOM     23  C   UNL     1       6.949   4.962  17.048  0.00  0.00    +0.000 A 
ATOM     24  C   UNL     1       7.315   4.580  15.762  0.00  0.00    +0.000 A 
ATOM     25  C   UNL     1       6.345   4.052  14.933  0.00  0.00    +0.000 A 
ATOM     26  F   UNL     1       6.705   3.661  13.700  0.00  0.00    +0.000 F 
ATOM     27  N   UNL     1       5.056   3.888  15.285  0.00  0.00    +0.000 NA
ATOM     28  C   UNL     1       4.730   4.257  16.545  0.00  0.00    +0.000 A 
ATOM     29  F   UNL     1       3.455   4.069  16.910  0.00  0.00    +0.000 F 
ENDBRANCH  21  22
ENDBRANCH  19  21
ENDBRANCH   9  17
BRANCH  12  30
ATOM     30  O   UNL     1       1.270  10.254  17.509  0.00  0.00    +0.000 OA
ATOM     31  H   UNL     1       2.188  10.574  17.398  0.00  0.00    +0.000 HD
ENDBRANCH  12  30
TORSDOF 4
ENDMDL
MODEL 4
REMARK VINA RESULT:      -8.2      2.623      4.036
REMARK  Name = 
REMARK  5 active torsions:
REMARK  status: ('A' for Active; 'I' for Inactive)
REMARK    1  A    between atoms: C_1  and  C_2
REMARK    2  A    between atoms: C_9  and  C_10
REMARK    3  A    between atoms: N_12  and  C_13
REMARK    4  A    between atoms: C_13  and  C_14
REMARK    5  A    between atoms: C_24  and  O_25
REMARK                            x       y       z     vdW  Elec       q    Type
REMARK                         _______ _______ _______ _____ _____    ______ ____
ROOT
ATOM      1  C   UNL     1      -3.357  14.138  23.803  0.00  0.00    +0.000 C 
ATOM      2  C   UNL     1      -3.233  13.688  22.357  0.00  0.00    +0.000 C 
ATOM      3  C   UNL     1      -3.337  14.838  21.369  0.00  0.00    +0.000 C 
ATOM      4  O   UNL     1      -2.090  14.925  20.655  0.00  0.00    +0.000 OA
ATOM      5  C   UNL     1      -1.252  13.837  21.044  0.00  0.00    +0.000 C 
ATOM      6  C   UNL     1      -0.877  12.963  19.841  0.00  0.00    +0.000 C 
ATOM      7  N   UNL     1      -0.264  11.681  20.281  0.00  0.00    +0.000 N 
ATOM      8  C   UNL     1       0.491  10.925  19.384  0.00  0.00    +0.000 A 
ATOM      9  C   UNL     1       0.969   9.687  19.621  0.00  0.00    +0.000 A 
ATOM     10  C   UNL     1       0.632   9.107  20.934  0.00  0.00    +0.000 A 
ATOM     11  O   UNL     1       0.988   7.970  21.267  0.00  0.00    +0.000 OA
ATOM     12  C   UNL     1      -0.189   9.889  21.901  0.00  0.00    +0.000 A 
ATOM     13  C   UNL     1      -0.617  11.114  21.534  0.00  0.00    +0.000 A 
ATOM     14  C   UNL     1      -1.586  11.842  22.458  0.00  0.00    +0.000 C 
ATOM     15  O   UNL     1      -2.096  11.328  23.448  0.00  0.00    +0.000 OA
ATOM     16  N   UNL     1      -1.965  13.092  22.034  0.00  0.00    +0.000 N 
ENDROOT
BRANCH   9  17
ATOM     17  C   UNL     1       1.767   8.950  18.591  0.00  0.00    +0.000 C 
ATOM     18  O   UNL     1       1.974   9.438  17.477  0.00  0.00    +0.000 OA
ATOM     19  N   UNL     1       2.257   7.719  18.960  0.00  0.00    +0.000 N 
ATOM     20  H   UNL     1       2.126   7.403  19.919  0.00  0.00    +0.000 HD
BRANCH  19  21
ATOM     21  C   UNL     1       3.082   6.909  18.088  0.00  0.00    +0.000 C 
BRANCH  21  22
ATOM     22  C   UNL     1       2.983   5.433  18.352  0.00  0.00    +0.000 A 
ATOM     23  C   UNL     1       1.929   4.686  17.814  0.00  0.00    +0.000 A 
ATOM     24  C   UNL     1       1.915   3.304  17.976  0.00  0.00    +0.000 A 
ATOM     25  C   UNL     1       2.940   2.717  18.691  0.00  0.00    +0.000 A 
ATOM     26  F   UNL     1       2.937   1.381  18.826  0.00  0.00    +0.000 F 
ATOM     27  N   UNL     1       3.957   3.396  19.253  0.00  0.00    +0.000 NA
ATOM     28  C   UNL     1       3.953   4.736  19.071  0.00  0.00    +0.000 A 
ATOM     29  F   UNL     1       4.979   5.413  19.603  0.00  0.00    +0.000 F 
ENDBRANCH  21  22
ENDBRANCH  19  21
ENDBRANCH   9  17
BRANCH  12  30
ATOM     30  O   UNL     1      -0.472   9.254  23.094  0.00  0.00    +0.000 OA
ATOM     31  H   UNL     1       0.026   9.741  23.781  0.00  0.00    +0.000 HD
ENDBRANCH  12  30
TORSDOF 4
ENDMDL
MODEL 5
REMARK VINA RESULT:      -8.1      1.494      2.674
REMARK  Name = 
REMARK  5 active torsions:
REMARK  status: ('A' for Active; 'I' for Inactive)
REMARK    1  A    between atoms: C_1  and  C_2
REMARK    2  A    between atoms: C_9  and  C_10
REMARK    3  A    between atoms: N_12  and  C_13
REMARK    4  A    between atoms: C_13  and  C_14
REMARK    5  A    between atoms: C_24  and  O_25
REMARK                            x       y       z     vdW  Elec       q    Type
REMARK                         _______ _______ _______ _____ _____    ______ ____
ROOT
ATOM      1  C   UNL     1      -0.404  13.544  20.773  0.00  0.00    +0.000 C 
ATOM      2  C   UNL     1      -0.289  12.627  19.566  0.00  0.00    +0.000 C 
ATOM      3  C   UNL     1       0.137  13.361  18.305  0.00  0.00    +0.000 C 
ATOM      4  O   UNL     1       1.403  12.823  17.883  0.00  0.00    +0.000 OA
ATOM      5  C   UNL     1       1.747  11.723  18.725  0.00  0.00    +0.000 C 
ATOM      6  C   UNL     1       1.916  10.431  17.916  0.00  0.00    +0.000 C 
ATOM      7  N   UNL     1       1.977   9.244  18.810  0.00  0.00    +0.000 N 
ATOM      8  C   UNL     1       2.506   8.043  18.339  0.00  0.00    +0.000 A 
ATOM      9  C   UNL     1       2.480   6.869  19.000  0.00  0.00    +0.000 A 
ATOM     10  C   UNL     1       1.813   6.886  20.316  0.00  0.00    +0.000 A 
ATOM     11  O   UNL     1       1.699   5.871  21.014  0.00  0.00    +0.000 OA
ATOM     12  C   UNL     1       1.225   8.154  20.832  0.00  0.00    +0.000 A 
ATOM     13  C   UNL     1       1.307   9.259  20.062  0.00  0.00    +0.000 A 
ATOM     14  C   UNL     1       0.566  10.509  20.520  0.00  0.00    +0.000 C 
ATOM     15  O   UNL     1      -0.201  10.532  21.477  0.00  0.00    +0.000 OA
ATOM     16  N   UNL     1       0.709  11.601  19.701  0.00  0.00    +0.000 N 
ENDROOT
BRANCH   9  17
ATOM     17  C   UNL     1       3.071   5.627  18.409  0.00  0.00    +0.000 C 
ATOM     18  O   UNL     1       2.443   4.952  17.589  0.00  0.00    +0.000 OA
ATOM     19  N   UNL     1       4.340   5.294  18.821  0.00  0.00    +0.000 N 
ATOM     20  H   UNL     1       4.841   5.932  19.437  0.00  0.00    +0.000 HD
BRANCH  19  21
ATOM     21  C   UNL     1       5.058   4.148  18.305  0.00  0.00    +0.000 C 
BRANCH  21  22
ATOM     22  C   UNL     1       5.751   4.400  16.996  0.00  0.00    +0.000 A 
ATOM     23  C   UNL     1       5.209   3.915  15.802  0.00  0.00    +0.000 A 
ATOM     24  C   UNL     1       5.804   4.251  14.590  0.00  0.00    +0.000 A 
ATOM     25  C   UNL     1       6.937   5.042  14.613  0.00  0.00    +0.000 A 
ATOM     26  F   UNL     1       7.496   5.386  13.442  0.00  0.00    +0.000 F 
ATOM     27  N   UNL     1       7.513   5.506  15.738  0.00  0.00    +0.000 NA
ATOM     28  C   UNL     1       6.907   5.173  16.900  0.00  0.00    +0.000 A 
ATOM     29  F   UNL     1       7.460   5.657  18.020  0.00  0.00    +0.000 F 
ENDBRANCH  21  22
ENDBRANCH  19  21
ENDBRANCH   9  17
BRANCH  12  30
ATOM     30  O   UNL     1       0.602   8.066  22.061  0.00  0.00    +0.000 OA
ATOM     31  H   UNL     1       0.978   7.273  22.494  0.00  0.00    +0.000 HD
ENDBRANCH  12  30
TORSDOF 4
ENDMDL
MODEL 6
REMARK VINA RESULT:      -8.0      3.501      5.036
REMARK  Name = 
REMARK  5 active torsions:
REMARK  status: ('A' for Active; 'I' for Inactive)
REMARK    1  A    between atoms: C_1  and  C_2
REMARK    2  A    between atoms: C_9  and  C_10
REMARK    3  A    between atoms: N_12  and  C_13
REMARK    4  A    between atoms: C_13  and  C_14
REMARK    5  A    between atoms: C_24  and  O_25
REMARK                            x       y       z     vdW  Elec       q    Type
REMARK                         _______ _______ _______ _____ _____    ______ ____
ROOT
ATOM      1  C   UNL     1      -6.119  13.478  19.409  0.00  0.00    +0.000 C 
ATOM      2  C   UNL     1      -5.607  12.082  19.092  0.00  0.00    +0.000 C 
ATOM      3  C   UNL     1      -6.320  11.444  17.911  0.00  0.00    +0.000 C 
ATOM      4  O   UNL     1      -5.348  11.213  16.875  0.00  0.00    +0.000 OA
ATOM      5  C   UNL     1      -4.052  11.554  17.367  0.00  0.00    +0.000 C 
ATOM      6  C   UNL     1      -3.102  10.351  17.321  0.00  0.00    +0.000 C 
ATOM      7  N   UNL     1      -1.863  10.617  18.099  0.00  0.00    +0.000 N 
ATOM      8  C   UNL     1      -0.722   9.844  17.880  0.00  0.00    +0.000 A 
ATOM      9  C   UNL     1       0.403   9.893  18.619  0.00  0.00    +0.000 A 
ATOM     10  C   UNL     1       0.388  10.833  19.755  0.00  0.00    +0.000 A 
ATOM     11  O   UNL     1       1.348  10.957  20.526  0.00  0.00    +0.000 OA
ATOM     12  C   UNL     1      -0.826  11.656  20.020  0.00  0.00    +0.000 A 
ATOM     13  C   UNL     1      -1.894  11.500  19.210  0.00  0.00    +0.000 A 
ATOM     14  C   UNL     1      -3.184  12.223  19.579  0.00  0.00    +0.000 C 
ATOM     15  O   UNL     1      -3.345  12.830  20.633  0.00  0.00    +0.000 OA
ATOM     16  N   UNL     1      -4.224  12.037  18.702  0.00  0.00    +0.000 N 
ENDROOT
BRANCH   9  17
ATOM     17  C   UNL     1       1.578   9.018  18.309  0.00  0.00    +0.000 C 
ATOM     18  O   UNL     1       2.309   9.254  17.343  0.00  0.00    +0.000 OA
ATOM     19  N   UNL     1       1.795   7.957  19.156  0.00  0.00    +0.000 N 
ATOM     20  H   UNL     1       1.209   7.859  19.983  0.00  0.00    +0.000 HD
BRANCH  19  21
ATOM     21  C   UNL     1       2.915   7.051  19.010  0.00  0.00    +0.000 C 
BRANCH  21  22
ATOM     22  C   UNL     1       2.547   5.600  19.140  0.00  0.00    +0.000 A 
ATOM     23  C   UNL     1       1.802   5.153  20.237  0.00  0.00    +0.000 A 
ATOM     24  C   UNL     1       1.377   3.829  20.285  0.00  0.00    +0.000 A 
ATOM     25  C   UNL     1       1.731   2.989  19.249  0.00  0.00    +0.000 A 
ATOM     26  F   UNL     1       1.300   1.717  19.285  0.00  0.00    +0.000 F 
ATOM     27  N   UNL     1       2.473   3.364  18.190  0.00  0.00    +0.000 NA
ATOM     28  C   UNL     1       2.863   4.658  18.162  0.00  0.00    +0.000 A 
ATOM     29  F   UNL     1       3.576   5.044  17.096  0.00  0.00    +0.000 F 
ENDBRANCH  21  22
ENDBRANCH  19  21
ENDBRANCH   9  17
BRANCH  12  30
ATOM     30  O   UNL     1      -0.754  12.489  21.118  0.00  0.00    +0.000 OA
ATOM     31  H   UNL     1      -0.946  11.924  21.894  0.00  0.00    +0.000 HD
ENDBRANCH  12  30
TORSDOF 4
ENDMDL
MODEL 7
REMARK VINA RESULT:      -8.0      2.196      3.512
REMARK  Name = 
REMARK  5 active torsions:
REMARK  status: ('A' for Active; 'I' for Inactive)
REMARK    1  A    between atoms: C_1  and  C_2
REMARK    2  A    between atoms: C_9  and  C_10
REMARK    3  A    between atoms: N_12  and  C_13
REMARK    4  A    between atoms: C_13  and  C_14
REMARK    5  A    between atoms: C_24  and  O_25
REMARK                            x       y       z     vdW  Elec       q    Type
REMARK                         _______ _______ _______ _____ _____    ______ ____
ROOT
ATOM      1  C   UNL     1      -2.196  14.062  23.814  0.00  0.00    +0.000 C 
ATOM      2  C   UNL     1      -2.221  13.600  22.366  0.00  0.00    +0.000 C 
ATOM      3  C   UNL     1      -2.318  14.751  21.379  0.00  0.00    +0.000 C 
ATOM      4  O   UNL     1      -1.130  14.742  20.567  0.00  0.00    +0.000 OA
ATOM      5  C   UNL     1      -0.346  13.595  20.898  0.00  0.00    +0.000 C 
ATOM      6  C   UNL     1      -0.135  12.692  19.678  0.00  0.00    +0.000 C 
ATOM      7  N   UNL     1       0.415  11.369  20.079  0.00  0.00    +0.000 N 
ATOM      8  C   UNL     1       1.037  10.556  19.133  0.00  0.00    +0.000 A 
ATOM      9  C   UNL     1       1.438   9.287  19.342  0.00  0.00    +0.000 A 
ATOM     10  C   UNL     1       1.165   8.737  20.683  0.00  0.00    +0.000 A 
ATOM     11  O   UNL     1       1.461   7.578  20.997  0.00  0.00    +0.000 OA
ATOM     12  C   UNL     1       0.485   9.582  21.705  0.00  0.00    +0.000 A 
ATOM     13  C   UNL     1       0.121  10.835  21.362  0.00  0.00    +0.000 A 
ATOM     14  C   UNL     1      -0.714  11.636  22.354  0.00  0.00    +0.000 C 
ATOM     15  O   UNL     1      -1.180  11.165  23.386  0.00  0.00    +0.000 OA
ATOM     16  N   UNL     1      -1.031  12.909  21.949  0.00  0.00    +0.000 N 
ENDROOT
BRANCH   9  17
ATOM     17  C   UNL     1       2.095   8.488  18.259  0.00  0.00    +0.000 C 
ATOM     18  O   UNL     1       2.161   8.916  17.104  0.00  0.00    +0.000 OA
ATOM     19  N   UNL     1       2.620   7.271  18.626  0.00  0.00    +0.000 N 
ATOM     20  H   UNL     1       2.609   7.006  19.609  0.00  0.00    +0.000 HD
BRANCH  19  21
ATOM     21  C   UNL     1       3.322   6.408  17.699  0.00  0.00    +0.000 C 
BRANCH  21  22
ATOM     22  C   UNL     1       4.739   6.107  18.100  0.00  0.00    +0.000 A 
ATOM     23  C   UNL     1       5.809   6.684  17.407  0.00  0.00    +0.000 A 
ATOM     24  C   UNL     1       7.109   6.482  17.860  0.00  0.00    +0.000 A 
ATOM     25  C   UNL     1       7.300   5.691  18.975  0.00  0.00    +0.000 A 
ATOM     26  F   UNL     1       8.553   5.517  19.426  0.00  0.00    +0.000 F 
ATOM     27  N   UNL     1       6.306   5.089  19.655  0.00  0.00    +0.000 NA
ATOM     28  C   UNL     1       5.052   5.311  19.201  0.00  0.00    +0.000 A 
ATOM     29  F   UNL     1       4.057   4.739  19.891  0.00  0.00    +0.000 F 
ENDBRANCH  21  22
ENDBRANCH  19  21
ENDBRANCH   9  17
BRANCH  12  30
ATOM     30  O   UNL     1       0.251   8.974  22.922  0.00  0.00    +0.000 OA
ATOM     31  H   UNL     1      -0.477   9.479  23.338  0.00  0.00    +0.000 HD
ENDBRANCH  12  30
TORSDOF 4
ENDMDL
MODEL 8
REMARK VINA RESULT:      -8.0      1.346      1.592
REMARK  Name = 
REMARK  5 active torsions:
REMARK  status: ('A' for Active; 'I' for Inactive)
REMARK    1  A    between atoms: C_1  and  C_2
REMARK    2  A    between atoms: C_9  and  C_10
REMARK    3  A    between atoms: N_12  and  C_13
REMARK    4  A    between atoms: C_13  and  C_14
REMARK    5  A    between atoms: C_24  and  O_25
REMARK                            x       y       z     vdW  Elec       q    Type
REMARK                         _______ _______ _______ _____ _____    ______ ____
ROOT
ATOM      1  C   UNL     1      -1.508  14.632  21.180  0.00  0.00    +0.000 C 
ATOM      2  C   UNL     1      -0.686  13.615  21.956  0.00  0.00    +0.000 C 
ATOM      3  C   UNL     1      -1.220  13.368  23.357  0.00  0.00    +0.000 C 
ATOM      4  O   UNL     1      -1.615  11.987  23.446  0.00  0.00    +0.000 OA
ATOM      5  C   UNL     1      -1.260  11.320  22.235  0.00  0.00    +0.000 C 
ATOM      6  C   UNL     1      -0.297  10.156  22.500  0.00  0.00    +0.000 C 
ATOM      7  N   UNL     1       0.302   9.658  21.233  0.00  0.00    +0.000 N 
ATOM      8  C   UNL     1       0.884   8.392  21.187  0.00  0.00    +0.000 A 
ATOM      9  C   UNL     1       1.583   7.894  20.148  0.00  0.00    +0.000 A 
ATOM     10  C   UNL     1       1.744   8.794  18.990  0.00  0.00    +0.000 A 
ATOM     11  O   UNL     1       2.383   8.469  17.982  0.00  0.00    +0.000 OA
ATOM     12  C   UNL     1       1.146  10.159  19.023  0.00  0.00    +0.000 A 
ATOM     13  C   UNL     1       0.481  10.540  20.134  0.00  0.00    +0.000 A 
ATOM     14  C   UNL     1       0.011  11.986  20.226  0.00  0.00    +0.000 C 
ATOM     15  O   UNL     1       0.313  12.852  19.412  0.00  0.00    +0.000 OA
ATOM     16  N   UNL     1      -0.676  12.301  21.373  0.00  0.00    +0.000 N 
ENDROOT
BRANCH   9  17
ATOM     17  C   UNL     1       2.177   6.521  20.193  0.00  0.00    +0.000 C 
ATOM     18  O   UNL     1       1.619   5.607  20.807  0.00  0.00    +0.000 OA
ATOM     19  N   UNL     1       3.358   6.339  19.513  0.00  0.00    +0.000 N 
ATOM     20  H   UNL     1       3.729   7.107  18.957  0.00  0.00    +0.000 HD
BRANCH  19  21
ATOM     21  C   UNL     1       4.028   5.058  19.431  0.00  0.00    +0.000 C 
BRANCH  21  22
ATOM     22  C   UNL     1       4.970   4.936  18.267  0.00  0.00    +0.000 A 
ATOM     23  C   UNL     1       6.234   5.533  18.312  0.00  0.00    +0.000 A 
ATOM     24  C   UNL     1       7.134   5.317  17.273  0.00  0.00    +0.000 A 
ATOM     25  C   UNL     1       6.732   4.531  16.211  0.00  0.00    +0.000 A 
ATOM     26  F   UNL     1       7.610   4.303  15.220  0.00  0.00    +0.000 F 
ATOM     27  N   UNL     1       5.517   3.962  16.107  0.00  0.00    +0.000 NA
ATOM     28  C   UNL     1       4.667   4.179  17.136  0.00  0.00    +0.000 A 
ATOM     29  F   UNL     1       3.466   3.590  17.052  0.00  0.00    +0.000 F 
ENDBRANCH  21  22
ENDBRANCH  19  21
ENDBRANCH   9  17
BRANCH  12  30
ATOM     30  O   UNL     1       1.369  10.935  17.904  0.00  0.00    +0.000 OA
ATOM     31  H   UNL     1       1.413  11.859  18.225  0.00  0.00    +0.000 HD
ENDBRANCH  12  30
TORSDOF 4
ENDMDL
MODEL 9
REMARK VINA RESULT:      -7.8      4.473      9.558
REMARK  Name = 
REMARK  5 active torsions:
REMARK  status: ('A' for Active; 'I' for Inactive)
REMARK    1  A    between atoms: C_1  and  C_2
REMARK    2  A    between atoms: C_9  and  C_10
REMARK    3  A    between atoms: N_12  and  C_13
REMARK    4  A    between atoms: C_13  and  C_14
REMARK    5  A    between atoms: C_24  and  O_25
REMARK                            x       y       z     vdW  Elec       q    Type
REMARK                         _______ _______ _______ _____ _____    ______ ____
ROOT
ATOM      1  C   UNL     1       4.632   4.887  16.622  0.00  0.00    +0.000 C 
ATOM      2  C   UNL     1       3.421   4.815  17.538  0.00  0.00    +0.000 C 
ATOM      3  C   UNL     1       3.470   3.632  18.491  0.00  0.00    +0.000 C 
ATOM      4  O   UNL     1       3.508   4.144  19.835  0.00  0.00    +0.000 OA
ATOM      5  C   UNL     1       3.369   5.565  19.798  0.00  0.00    +0.000 C 
ATOM      6  C   UNL     1       2.137   6.027  20.586  0.00  0.00    +0.000 C 
ATOM      7  N   UNL     1       1.824   7.453  20.302  0.00  0.00    +0.000 N 
ATOM      8  C   UNL     1       1.013   8.176  21.177  0.00  0.00    +0.000 A 
ATOM      9  C   UNL     1       0.543   9.419  20.952  0.00  0.00    +0.000 A 
ATOM     10  C   UNL     1       0.918  10.027  19.662  0.00  0.00    +0.000 A 
ATOM     11  O   UNL     1       0.533  11.152  19.323  0.00  0.00    +0.000 OA
ATOM     12  C   UNL     1       1.770   9.266  18.705  0.00  0.00    +0.000 A 
ATOM     13  C   UNL     1       2.162   8.021  19.046  0.00  0.00    +0.000 A 
ATOM     14  C   UNL     1       2.896   7.189  18.000  0.00  0.00    +0.000 C 
ATOM     15  O   UNL     1       3.035   7.536  16.832  0.00  0.00    +0.000 OA
ATOM     16  N   UNL     1       3.284   5.941  18.421  0.00  0.00    +0.000 N 
ENDROOT
BRANCH   9  17
ATOM     17  C   UNL     1      -0.329  10.114  21.951  0.00  0.00    +0.000 C 
ATOM     18  O   UNL     1      -0.866   9.491  22.870  0.00  0.00    +0.000 OA
ATOM     19  N   UNL     1      -0.485  11.471  21.791  0.00  0.00    +0.000 N 
ATOM     20  H   UNL     1       0.048  11.946  21.065  0.00  0.00    +0.000 HD
BRANCH  19  21
ATOM     21  C   UNL     1      -1.261  12.286  22.702  0.00  0.00    +0.000 C 
BRANCH  21  22
ATOM     22  C   UNL     1      -2.678  12.519  22.257  0.00  0.00    +0.000 A 
ATOM     23  C   UNL     1      -2.967  12.754  20.909  0.00  0.00    +0.000 A 
ATOM     24  C   UNL     1      -4.293  12.858  20.500  0.00  0.00    +0.000 A 
ATOM     25  C   UNL     1      -5.285  12.747  21.454  0.00  0.00    +0.000 A 
ATOM     26  F   UNL     1      -6.564  12.823  21.054  0.00  0.00    +0.000 F 
ATOM     27  N   UNL     1      -5.055  12.553  22.766  0.00  0.00    +0.000 NA
ATOM     28  C   UNL     1      -3.758  12.444  23.135  0.00  0.00    +0.000 A 
ATOM     29  F   UNL     1      -3.525  12.221  24.435  0.00  0.00    +0.000 F 
ENDBRANCH  21  22
ENDBRANCH  19  21
ENDBRANCH   9  17
BRANCH  12  30
ATOM     30  O   UNL     1       2.049   9.908  17.515  0.00  0.00    +0.000 OA
ATOM     31  H   UNL     1       2.057  10.864  17.723  0.00  0.00    +0.000 HD
ENDBRANCH  12  30
TORSDOF 4
ENDMDL
