MODEL 1
REMARK VINA RESULT:      -7.1      0.000      0.000
REMARK  Name = 
REMARK  6 active torsions:
REMARK  status: ('A' for Active; 'I' for Inactive)
REMARK    1  A    between atoms: C_1  and  C_2
REMARK    2  A    between atoms: C_2  and  C_3
REMARK    3  A    between atoms: C_2  and  N_4
REMARK    4  A    between atoms: N_7  and  C_8
REMARK    5  A    between atoms: C_9  and  C_10
REMARK    6  A    between atoms: C_11  and  C_12
REMARK                            x       y       z     vdW  Elec       q    Type
REMARK                         _______ _______ _______ _____ _____    ______ ____
ROOT
ATOM      1  N   UNL     1       0.357  10.696  19.568  0.00  0.00    +0.000 N 
ATOM      2  C   UNL     1       1.145   9.549  19.302  0.00  0.00    +0.000 A 
ATOM      3  C   UNL     1       0.907   8.661  20.321  0.00  0.00    +0.000 A 
ATOM      4  N   UNL     1      -0.029   9.275  21.172  0.00  0.00    +0.000 N 
ATOM      5  C   UNL     1      -0.515   8.684  22.426  0.00  0.00    +0.000 C 
ATOM      6  C   UNL     1      -0.324  10.522  20.733  0.00  0.00    +0.000 A 
ATOM      7  C   UNL     1       1.532   7.367  20.430  0.00  0.00    +0.000 C 
ATOM      8  O   UNL     1       1.360   6.522  21.304  0.00  0.00    +0.000 OA
ATOM      9  C   UNL     1       2.503   7.060  19.337  0.00  0.00    +0.000 A 
ATOM     10  C   UNL     1       3.199   5.840  19.355  0.00  0.00    +0.000 A 
ATOM     11  C   UNL     1       4.111   5.528  18.341  0.00  0.00    +0.000 A 
ATOM     12  C   UNL     1       4.344   6.431  17.310  0.00  0.00    +0.000 A 
ATOM     13  C   UNL     1       3.662   7.644  17.282  0.00  0.00    +0.000 A 
ATOM     14  C   UNL     1       2.737   7.963  18.290  0.00  0.00    +0.000 A 
ATOM     15  C   UNL     1       2.016   9.262  18.198  0.00  0.00    +0.000 C 
ATOM     16  O   UNL     1       2.225   9.943  17.194  0.00  0.00    +0.000 OA
ENDROOT
BRANCH   1  18
ATOM     17  C   UNL     1      -1.286  12.128  18.262  0.00  0.00    +0.000 C 
ATOM     18  C   UNL     1       0.167  11.860  18.644  0.00  0.00    +0.000 C 
ATOM     19  C   UNL     1       0.876  13.111  19.157  0.00  0.00    +0.000 C 
ENDBRANCH   1  18
BRANCH   6  20
ATOM     20  C   UNL     1      -1.201  11.546  21.431  0.00  0.00    +0.000 C 
ATOM     21  C   UNL     1      -1.086  11.955  22.707  0.00  0.00    +0.000 C 
BRANCH  21  22
ATOM     22  C   UNL     1      -1.828  13.059  23.345  0.00  0.00    +0.000 A 
ATOM     23  C   UNL     1      -3.172  12.868  23.699  0.00  0.00    +0.000 A 
ATOM     24  C   UNL     1      -3.866  13.831  24.438  0.00  0.00    +0.000 A 
ATOM     25  C   UNL     1      -3.221  14.997  24.844  0.00  0.00    +0.000 A 
ATOM     26  C   UNL     1      -1.885  15.198  24.504  0.00  0.00    +0.000 A 
ATOM     27  C   UNL     1      -1.192  14.236  23.761  0.00  0.00    +0.000 A 
ENDBRANCH  21  22
ENDBRANCH   6  20
TORSDOF 3
ENDMDL
MODEL 2
REMARK VINA RESULT:      -6.9      0.732      1.147
REMARK  Name = 
REMARK  6 active torsions:
REMARK  status: ('A' for Active; 'I' for Inactive)
REMARK    1  A    between atoms: C_1  and  C_2
REMARK    2  A    between atoms: C_2  and  C_3
REMARK    3  A    between atoms: C_2  and  N_4
REMARK    4  A    between atoms: N_7  and  C_8
REMARK    5  A    between atoms: C_9  and  C_10
REMARK    6  A    between atoms: C_11  and  C_12
REMARK                            x       y       z     vdW  Elec       q    Type
REMARK                         _______ _______ _______ _____ _____    ______ ____
ROOT
ATOM      1  N   UNL     1       0.482  11.145  19.887  0.00  0.00    +0.000 N 
ATOM      2  C   UNL     1       1.126   9.923  19.569  0.00  0.00    +0.000 A 
ATOM      3  C   UNL     1       0.908   9.076  20.627  0.00  0.00    +0.000 A 
ATOM      4  N   UNL     1       0.126   9.789  21.552  0.00  0.00    +0.000 N 
ATOM      5  C   UNL     1      -0.285   9.265  22.862  0.00  0.00    +0.000 C 
ATOM      6  C   UNL     1      -0.091  11.053  21.117  0.00  0.00    +0.000 A 
ATOM      7  C   UNL     1       1.414   7.728  20.703  0.00  0.00    +0.000 C 
ATOM      8  O   UNL     1       1.252   6.915  21.608  0.00  0.00    +0.000 OA
ATOM      9  C   UNL     1       2.236   7.314  19.525  0.00  0.00    +0.000 A 
ATOM     10  C   UNL     1       2.810   6.032  19.502  0.00  0.00    +0.000 A 
ATOM     11  C   UNL     1       3.581   5.620  18.410  0.00  0.00    +0.000 A 
ATOM     12  C   UNL     1       3.793   6.482  17.341  0.00  0.00    +0.000 A 
ATOM     13  C   UNL     1       3.232   7.755  17.353  0.00  0.00    +0.000 A 
ATOM     14  C   UNL     1       2.448   8.176  18.441  0.00  0.00    +0.000 A 
ATOM     15  C   UNL     1       1.849   9.538  18.391  0.00  0.00    +0.000 C 
ATOM     16  O   UNL     1       2.019  10.182  17.356  0.00  0.00    +0.000 OA
ENDROOT
BRANCH   1  18
ATOM     17  C   UNL     1      -1.115  12.508  18.457  0.00  0.00    +0.000 C 
ATOM     18  C   UNL     1       0.312  12.309  18.959  0.00  0.00    +0.000 C 
ATOM     19  C   UNL     1       0.909  13.588  19.542  0.00  0.00    +0.000 C 
ENDBRANCH   1  18
BRANCH   6  20
ATOM     20  C   UNL     1      -0.790  12.167  21.875  0.00  0.00    +0.000 C 
ATOM     21  C   UNL     1      -2.114  12.273  22.093  0.00  0.00    +0.000 C 
BRANCH  21  22
ATOM     22  C   UNL     1      -2.784  13.261  22.959  0.00  0.00    +0.000 A 
ATOM     23  C   UNL     1      -2.005  14.118  23.751  0.00  0.00    +0.000 A 
ATOM     24  C   UNL     1      -2.591  15.165  24.469  0.00  0.00    +0.000 A 
ATOM     25  C   UNL     1      -3.965  15.378  24.396  0.00  0.00    +0.000 A 
ATOM     26  C   UNL     1      -4.751  14.539  23.610  0.00  0.00    +0.000 A 
ATOM     27  C   UNL     1      -4.165  13.488  22.894  0.00  0.00    +0.000 A 
ENDBRANCH  21  22
ENDBRANCH   6  20
TORSDOF 3
ENDMDL
MODEL 3
REMARK VINA RESULT:      -6.7      0.824      1.086
REMARK  Name = 
REMARK  6 active torsions:
REMARK  status: ('A' for Active; 'I' for Inactive)
REMARK    1  A    between atoms: C_1  and  C_2
REMARK    2  A    between atoms: C_2  and  C_3
REMARK    3  A    between atoms: C_2  and  N_4
REMARK    4  A    between atoms: N_7  and  C_8
REMARK    5  A    between atoms: C_9  and  C_10
REMARK    6  A    between atoms: C_11  and  C_12
REMARK                            x       y       z     vdW  Elec       q    Type
REMARK                         _______ _______ _______ _____ _____    ______ ____
ROOT
ATOM      1  N   UNL     1       0.392  10.921  19.581  0.00  0.00    +0.000 N 
ATOM      2  C   UNL     1       1.111   9.721  19.358  0.00  0.00    +0.000 A 
ATOM      3  C   UNL     1       0.859   8.905  20.433  0.00  0.00    +0.000 A 
ATOM      4  N   UNL     1      -0.017   9.614  21.273  0.00  0.00    +0.000 N 
ATOM      5  C   UNL     1      -0.494   9.120  22.572  0.00  0.00    +0.000 C 
ATOM      6  C   UNL     1      -0.260  10.849  20.773  0.00  0.00    +0.000 A 
ATOM      7  C   UNL     1       1.419   7.587  20.598  0.00  0.00    +0.000 C 
ATOM      8  O   UNL     1       1.231   6.802  21.523  0.00  0.00    +0.000 OA
ATOM      9  C   UNL     1       2.338   7.168  19.497  0.00  0.00    +0.000 A 
ATOM     10  C   UNL     1       2.970   5.915  19.565  0.00  0.00    +0.000 A 
ATOM     11  C   UNL     1       3.832   5.499  18.545  0.00  0.00    +0.000 A 
ATOM     12  C   UNL     1       4.079   6.329  17.458  0.00  0.00    +0.000 A 
ATOM     13  C   UNL     1       3.461   7.574  17.380  0.00  0.00    +0.000 A 
ATOM     14  C   UNL     1       2.585   7.998  18.394  0.00  0.00    +0.000 A 
ATOM     15  C   UNL     1       1.931   9.326  18.248  0.00  0.00    +0.000 C 
ATOM     16  O   UNL     1       2.143   9.939  17.202  0.00  0.00    +0.000 OA
ENDROOT
BRANCH   1  18
ATOM     17  C   UNL     1      -1.215  12.384  18.265  0.00  0.00    +0.000 C 
ATOM     18  C   UNL     1       0.234  12.040  18.597  0.00  0.00    +0.000 C 
ATOM     19  C   UNL     1       1.047  13.268  19.003  0.00  0.00    +0.000 C 
ENDBRANCH   1  18
BRANCH   6  20
ATOM     20  C   UNL     1      -1.060  11.956  21.435  0.00  0.00    +0.000 C 
ATOM     21  C   UNL     1      -0.579  12.898  22.267  0.00  0.00    +0.000 C 
BRANCH  21  22
ATOM     22  C   UNL     1      -1.313  14.067  22.787  0.00  0.00    +0.000 A 
ATOM     23  C   UNL     1      -1.593  15.139  21.927  0.00  0.00    +0.000 A 
ATOM     24  C   UNL     1      -2.412  16.196  22.336  0.00  0.00    +0.000 A 
ATOM     25  C   UNL     1      -2.975  16.189  23.610  0.00  0.00    +0.000 A 
ATOM     26  C   UNL     1      -2.711  15.128  24.473  0.00  0.00    +0.000 A 
ATOM     27  C   UNL     1      -1.887  14.073  24.066  0.00  0.00    +0.000 A 
ENDBRANCH  21  22
ENDBRANCH   6  20
TORSDOF 3
ENDMDL
MODEL 4
REMARK VINA RESULT:      -6.7      3.251      8.478
REMARK  Name = 
REMARK  6 active torsions:
REMARK  status: ('A' for Active; 'I' for Inactive)
REMARK    1  A    between atoms: C_1  and  C_2
REMARK    2  A    between atoms: C_2  and  C_3
REMARK    3  A    between atoms: C_2  and  N_4
REMARK    4  A    between atoms: N_7  and  C_8
REMARK    5  A    between atoms: C_9  and  C_10
REMARK    6  A    between atoms: C_11  and  C_12
REMARK                            x       y       z     vdW  Elec       q    Type
REMARK                         _______ _______ _______ _____ _____    ______ ____
ROOT
ATOM      1  N   UNL     1      -1.063  11.291  19.933  0.00  0.00    +0.000 N 
ATOM      2  C   UNL     1      -2.366  11.818  19.752  0.00  0.00    +0.000 A 
ATOM      3  C   UNL     1      -2.852  11.275  18.589  0.00  0.00    +0.000 A 
ATOM      4  N   UNL     1      -1.848  10.420  18.100  0.00  0.00    +0.000 N 
ATOM      5  C   UNL     1      -1.940   9.680  16.834  0.00  0.00    +0.000 C 
ATOM      6  C   UNL     1      -0.754  10.469  18.895  0.00  0.00    +0.000 A 
ATOM      7  C   UNL     1      -4.151  11.570  18.039  0.00  0.00    +0.000 C 
ATOM      8  O   UNL     1      -4.653  11.115  17.014  0.00  0.00    +0.000 OA
ATOM      9  C   UNL     1      -4.945  12.554  18.834  0.00  0.00    +0.000 A 
ATOM     10  C   UNL     1      -6.216  12.944  18.377  0.00  0.00    +0.000 A 
ATOM     11  C   UNL     1      -6.980  13.862  19.106  0.00  0.00    +0.000 A 
ATOM     12  C   UNL     1      -6.482  14.405  20.284  0.00  0.00    +0.000 A 
ATOM     13  C   UNL     1      -5.224  14.028  20.745  0.00  0.00    +0.000 A 
ATOM     14  C   UNL     1      -4.452  13.099  20.027  0.00  0.00    +0.000 A 
ATOM     15  C   UNL     1      -3.126  12.711  20.579  0.00  0.00    +0.000 C 
ATOM     16  O   UNL     1      -2.823  13.177  21.677  0.00  0.00    +0.000 OA
ENDROOT
BRANCH   1  18
ATOM     17  C   UNL     1      -0.152  10.255  22.067  0.00  0.00    +0.000 C 
ATOM     18  C   UNL     1      -0.209  11.474  21.151  0.00  0.00    +0.000 C 
ATOM     19  C   UNL     1       1.180  12.001  20.794  0.00  0.00    +0.000 C 
ENDBRANCH   1  18
BRANCH   6  20
ATOM     20  C   UNL     1       0.578   9.783  18.650  0.00  0.00    +0.000 C 
ATOM     21  C   UNL     1       0.972   8.602  19.161  0.00  0.00    +0.000 C 
BRANCH  21  22
ATOM     22  C   UNL     1       2.193   7.855  18.805  0.00  0.00    +0.000 A 
ATOM     23  C   UNL     1       2.531   6.706  19.535  0.00  0.00    +0.000 A 
ATOM     24  C   UNL     1       3.592   5.886  19.138  0.00  0.00    +0.000 A 
ATOM     25  C   UNL     1       4.325   6.199  17.996  0.00  0.00    +0.000 A 
ATOM     26  C   UNL     1       3.998   7.334  17.257  0.00  0.00    +0.000 A 
ATOM     27  C   UNL     1       2.938   8.156  17.657  0.00  0.00    +0.000 A 
ENDBRANCH  21  22
ENDBRANCH   6  20
TORSDOF 3
ENDMDL
MODEL 5
REMARK VINA RESULT:      -6.6      3.444      8.688
REMARK  Name = 
REMARK  6 active torsions:
REMARK  status: ('A' for Active; 'I' for Inactive)
REMARK    1  A    between atoms: C_1  and  C_2
REMARK    2  A    between atoms: C_2  and  C_3
REMARK    3  A    between atoms: C_2  and  N_4
REMARK    4  A    between atoms: N_7  and  C_8
REMARK    5  A    between atoms: C_9  and  C_10
REMARK    6  A    between atoms: C_11  and  C_12
REMARK                            x       y       z     vdW  Elec       q    Type
REMARK                         _______ _______ _______ _____ _____    ______ ____
ROOT
ATOM      1  N   UNL     1      -2.814  11.724  19.160  0.00  0.00    +0.000 N 
ATOM      2  C   UNL     1      -3.664  12.523  19.964  0.00  0.00    +0.000 A 
ATOM      3  C   UNL     1      -2.897  12.996  21.000  0.00  0.00    +0.000 A 
ATOM      4  N   UNL     1      -1.600  12.493  20.795  0.00  0.00    +0.000 N 
ATOM      5  C   UNL     1      -0.476  12.714  21.715  0.00  0.00    +0.000 C 
ATOM      6  C   UNL     1      -1.569  11.690  19.706  0.00  0.00    +0.000 A 
ATOM      7  C   UNL     1      -3.395  13.842  22.055  0.00  0.00    +0.000 C 
ATOM      8  O   UNL     1      -2.768  14.309  23.002  0.00  0.00    +0.000 OA
ATOM      9  C   UNL     1      -4.852  14.158  21.953  0.00  0.00    +0.000 A 
ATOM     10  C   UNL     1      -5.456  14.949  22.945  0.00  0.00    +0.000 A 
ATOM     11  C   UNL     1      -6.818  15.262  22.869  0.00  0.00    +0.000 A 
ATOM     12  C   UNL     1      -7.587  14.782  21.816  0.00  0.00    +0.000 A 
ATOM     13  C   UNL     1      -6.999  13.996  20.829  0.00  0.00    +0.000 A 
ATOM     14  C   UNL     1      -5.631  13.684  20.889  0.00  0.00    +0.000 A 
ATOM     15  C   UNL     1      -5.048  12.862  19.794  0.00  0.00    +0.000 C 
ATOM     16  O   UNL     1      -5.795  12.571  18.860  0.00  0.00    +0.000 OA
ENDROOT
BRANCH   1  18
ATOM     17  C   UNL     1      -2.271  11.579  16.682  0.00  0.00    +0.000 C 
ATOM     18  C   UNL     1      -3.172  11.133  17.831  0.00  0.00    +0.000 C 
ATOM     19  C   UNL     1      -3.311   9.613  17.906  0.00  0.00    +0.000 C 
ENDBRANCH   1  18
BRANCH   6  20
ATOM     20  C   UNL     1      -0.388  10.869  19.216  0.00  0.00    +0.000 C 
ATOM     21  C   UNL     1       0.248   9.902  19.902  0.00  0.00    +0.000 C 
BRANCH  21  22
ATOM     22  C   UNL     1       1.287   8.995  19.379  0.00  0.00    +0.000 A 
ATOM     23  C   UNL     1       1.652   7.866  20.129  0.00  0.00    +0.000 A 
ATOM     24  C   UNL     1       2.520   6.904  19.605  0.00  0.00    +0.000 A 
ATOM     25  C   UNL     1       3.028   7.050  18.317  0.00  0.00    +0.000 A 
ATOM     26  C   UNL     1       2.670   8.162  17.558  0.00  0.00    +0.000 A 
ATOM     27  C   UNL     1       1.805   9.128  18.084  0.00  0.00    +0.000 A 
ENDBRANCH  21  22
ENDBRANCH   6  20
TORSDOF 3
ENDMDL
MODEL 6
REMARK VINA RESULT:      -6.6      2.856      8.384
REMARK  Name = 
REMARK  6 active torsions:
REMARK  status: ('A' for Active; 'I' for Inactive)
REMARK    1  A    between atoms: C_1  and  C_2
REMARK    2  A    between atoms: C_2  and  C_3
REMARK    3  A    between atoms: C_2  and  N_4
REMARK    4  A    between atoms: N_7  and  C_8
REMARK    5  A    between atoms: C_9  and  C_10
REMARK    6  A    between atoms: C_11  and  C_12
REMARK                            x       y       z     vdW  Elec       q    Type
REMARK                         _______ _______ _______ _____ _____    ______ ____
ROOT
ATOM      1  N   UNL     1      -1.628  10.901  18.697  0.00  0.00    +0.000 N 
ATOM      2  C   UNL     1      -2.313  11.883  19.453  0.00  0.00    +0.000 A 
ATOM      3  C   UNL     1      -1.395  12.429  20.315  0.00  0.00    +0.000 A 
ATOM      4  N   UNL     1      -0.173  11.785  20.054  0.00  0.00    +0.000 N 
ATOM      5  C   UNL     1       1.066  12.033  20.803  0.00  0.00    +0.000 C 
ATOM      6  C   UNL     1      -0.332  10.832  19.104  0.00  0.00    +0.000 A 
ATOM      7  C   UNL     1      -1.699  13.462  21.274  0.00  0.00    +0.000 C 
ATOM      8  O   UNL     1      -0.930  14.001  22.065  0.00  0.00    +0.000 OA
ATOM      9  C   UNL     1      -3.129  13.893  21.280  0.00  0.00    +0.000 A 
ATOM     10  C   UNL     1      -3.551  14.871  22.196  0.00  0.00    +0.000 A 
ATOM     11  C   UNL     1      -4.884  15.294  22.219  0.00  0.00    +0.000 A 
ATOM     12  C   UNL     1      -5.807  14.739  21.340  0.00  0.00    +0.000 A 
ATOM     13  C   UNL     1      -5.402  13.767  20.430  0.00  0.00    +0.000 A 
ATOM     14  C   UNL     1      -4.063  13.342  20.392  0.00  0.00    +0.000 A 
ATOM     15  C   UNL     1      -3.679  12.320  19.381  0.00  0.00    +0.000 C 
ATOM     16  O   UNL     1      -4.551  11.967  18.588  0.00  0.00    +0.000 OA
ENDROOT
BRANCH   1  18
ATOM     17  C   UNL     1      -3.430   9.333  17.832  0.00  0.00    +0.000 C 
ATOM     18  C   UNL     1      -2.185  10.159  17.520  0.00  0.00    +0.000 C 
ATOM     19  C   UNL     1      -2.380  11.075  16.314  0.00  0.00    +0.000 C 
ENDBRANCH   1  18
BRANCH   6  20
ATOM     20  C   UNL     1       0.716   9.844  18.625  0.00  0.00    +0.000 C 
ATOM     21  C   UNL     1       1.318   8.898  19.369  0.00  0.00    +0.000 C 
BRANCH  21  22
ATOM     22  C   UNL     1       2.216   7.835  18.878  0.00  0.00    +0.000 A 
ATOM     23  C   UNL     1       2.983   8.064  17.726  0.00  0.00    +0.000 A 
ATOM     24  C   UNL     1       3.954   7.146  17.313  0.00  0.00    +0.000 A 
ATOM     25  C   UNL     1       4.180   5.989  18.055  0.00  0.00    +0.000 A 
ATOM     26  C   UNL     1       3.429   5.751  19.204  0.00  0.00    +0.000 A 
ATOM     27  C   UNL     1       2.454   6.667  19.614  0.00  0.00    +0.000 A 
ENDBRANCH  21  22
ENDBRANCH   6  20
TORSDOF 3
ENDMDL
MODEL 7
REMARK VINA RESULT:      -6.6      3.196      8.464
REMARK  Name = 
REMARK  6 active torsions:
REMARK  status: ('A' for Active; 'I' for Inactive)
REMARK    1  A    between atoms: C_1  and  C_2
REMARK    2  A    between atoms: C_2  and  C_3
REMARK    3  A    between atoms: C_2  and  N_4
REMARK    4  A    between atoms: N_7  and  C_8
REMARK    5  A    between atoms: C_9  and  C_10
REMARK    6  A    between atoms: C_11  and  C_12
REMARK                            x       y       z     vdW  Elec       q    Type
REMARK                         _______ _______ _______ _____ _____    ______ ____
ROOT
ATOM      1  N   UNL     1      -2.030  11.128  18.742  0.00  0.00    +0.000 N 
ATOM      2  C   UNL     1      -2.889  12.029  19.419  0.00  0.00    +0.000 A 
ATOM      3  C   UNL     1      -2.122  12.675  20.356  0.00  0.00    +0.000 A 
ATOM      4  N   UNL     1      -0.817  12.171  20.218  0.00  0.00    +0.000 N 
ATOM      5  C   UNL     1       0.312  12.557  21.076  0.00  0.00    +0.000 C 
ATOM      6  C   UNL     1      -0.779  11.205  19.270  0.00  0.00    +0.000 A 
ATOM      7  C   UNL     1      -2.627  13.670  21.270  0.00  0.00    +0.000 C 
ATOM      8  O   UNL     1      -2.000  14.293  22.123  0.00  0.00    +0.000 OA
ATOM      9  C   UNL     1      -4.091  13.938  21.138  0.00  0.00    +0.000 A 
ATOM     10  C   UNL     1      -4.702  14.865  21.998  0.00  0.00    +0.000 A 
ATOM     11  C   UNL     1      -6.071  15.136  21.892  0.00  0.00    +0.000 A 
ATOM     12  C   UNL     1      -6.840  14.480  20.938  0.00  0.00    +0.000 A 
ATOM     13  C   UNL     1      -6.246  13.558  20.081  0.00  0.00    +0.000 A 
ATOM     14  C   UNL     1      -4.870  13.285  20.173  0.00  0.00    +0.000 A 
ATOM     15  C   UNL     1      -4.281  12.311  19.214  0.00  0.00    +0.000 C 
ATOM     16  O   UNL     1      -5.031  11.861  18.348  0.00  0.00    +0.000 OA
ENDROOT
BRANCH   1  18
ATOM     17  C   UNL     1      -3.548   9.356  17.736  0.00  0.00    +0.000 C 
ATOM     18  C   UNL     1      -2.389  10.326  17.528  0.00  0.00    +0.000 C 
ATOM     19  C   UNL     1      -2.585  11.215  16.301  0.00  0.00    +0.000 C 
ENDBRANCH   1  18
BRANCH   6  20
ATOM     20  C   UNL     1       0.413  10.339  18.902  0.00  0.00    +0.000 C 
ATOM     21  C   UNL     1       0.846   9.255  19.571  0.00  0.00    +0.000 C 
BRANCH  21  22
ATOM     22  C   UNL     1       1.900   8.319  19.136  0.00  0.00    +0.000 A 
ATOM     23  C   UNL     1       2.147   7.165  19.895  0.00  0.00    +0.000 A 
ATOM     24  C   UNL     1       3.029   6.180  19.441  0.00  0.00    +0.000 A 
ATOM     25  C   UNL     1       3.670   6.330  18.213  0.00  0.00    +0.000 A 
ATOM     26  C   UNL     1       3.430   7.468  17.446  0.00  0.00    +0.000 A 
ATOM     27  C   UNL     1       2.551   8.456  17.903  0.00  0.00    +0.000 A 
ENDBRANCH  21  22
ENDBRANCH   6  20
TORSDOF 3
ENDMDL
MODEL 8
REMARK VINA RESULT:      -6.4      3.803      6.445
REMARK  Name = 
REMARK  6 active torsions:
REMARK  status: ('A' for Active; 'I' for Inactive)
REMARK    1  A    between atoms: C_1  and  C_2
REMARK    2  A    between atoms: C_2  and  C_3
REMARK    3  A    between atoms: C_2  and  N_4
REMARK    4  A    between atoms: N_7  and  C_8
REMARK    5  A    between atoms: C_9  and  C_10
REMARK    6  A    between atoms: C_11  and  C_12
REMARK                            x       y       z     vdW  Elec       q    Type
REMARK                         _______ _______ _______ _____ _____    ______ ____
ROOT
ATOM      1  N   UNL     1      -0.430  12.431  19.377  0.00  0.00    +0.000 N 
ATOM      2  C   UNL     1       0.653  13.331  19.219  0.00  0.00    +0.000 A 
ATOM      3  C   UNL     1       0.260  14.523  19.774  0.00  0.00    +0.000 A 
ATOM      4  N   UNL     1      -1.039  14.320  20.271  0.00  0.00    +0.000 N 
ATOM      5  C   UNL     1      -1.857  15.369  20.896  0.00  0.00    +0.000 C 
ATOM      6  C   UNL     1      -1.465  13.066  19.989  0.00  0.00    +0.000 A 
ATOM      7  C   UNL     1       1.076  15.711  19.805  0.00  0.00    +0.000 C 
ATOM      8  O   UNL     1       0.795  16.803  20.291  0.00  0.00    +0.000 OA
ATOM      9  C   UNL     1       2.411  15.555  19.151  0.00  0.00    +0.000 A 
ATOM     10  C   UNL     1       3.281  16.657  19.091  0.00  0.00    +0.000 A 
ATOM     11  C   UNL     1       4.537  16.535  18.487  0.00  0.00    +0.000 A 
ATOM     12  C   UNL     1       4.930  15.324  17.931  0.00  0.00    +0.000 A 
ATOM     13  C   UNL     1       4.075  14.227  17.982  0.00  0.00    +0.000 A 
ATOM     14  C   UNL     1       2.816  14.334  18.595  0.00  0.00    +0.000 A 
ATOM     15  C   UNL     1       1.953  13.123  18.646  0.00  0.00    +0.000 C 
ATOM     16  O   UNL     1       2.435  12.078  18.211  0.00  0.00    +0.000 OA
ENDROOT
BRANCH   1  18
ATOM     17  C   UNL     1      -0.485  10.064  20.298  0.00  0.00    +0.000 C 
ATOM     18  C   UNL     1      -0.399  10.965  19.070  0.00  0.00    +0.000 C 
ATOM     19  C   UNL     1      -1.421  10.590  17.998  0.00  0.00    +0.000 C 
ENDBRANCH   1  18
BRANCH   6  20
ATOM     20  C   UNL     1      -2.847  12.494  20.255  0.00  0.00    +0.000 C 
ATOM     21  C   UNL     1      -3.958  12.732  19.536  0.00  0.00    +0.000 C 
BRANCH  21  22
ATOM     22  C   UNL     1      -5.263  12.060  19.691  0.00  0.00    +0.000 A 
ATOM     23  C   UNL     1      -5.648  11.087  18.756  0.00  0.00    +0.000 A 
ATOM     24  C   UNL     1      -6.803  10.322  18.947  0.00  0.00    +0.000 A 
ATOM     25  C   UNL     1      -7.585  10.512  20.083  0.00  0.00    +0.000 A 
ATOM     26  C   UNL     1      -7.213  11.471  21.022  0.00  0.00    +0.000 A 
ATOM     27  C   UNL     1      -6.060  12.240  20.829  0.00  0.00    +0.000 A 
ENDBRANCH  21  22
ENDBRANCH   6  20
TORSDOF 3
ENDMDL
MODEL 9
REMARK VINA RESULT:      -6.4      2.801      8.441
REMARK  Name = 
REMARK  6 active torsions:
REMARK  status: ('A' for Active; 'I' for Inactive)
REMARK    1  A    between atoms: C_1  and  C_2
REMARK    2  A    between atoms: C_2  and  C_3
REMARK    3  A    between atoms: C_2  and  N_4
REMARK    4  A    between atoms: N_7  and  C_8
REMARK    5  A    between atoms: C_9  and  C_10
REMARK    6  A    between atoms: C_11  and  C_12
REMARK                            x       y       z     vdW  Elec       q    Type
REMARK                         _______ _______ _______ _____ _____    ______ ____
ROOT
ATOM      1  N   UNL     1      -0.793  13.004  20.673  0.00  0.00    +0.000 N 
ATOM      2  C   UNL     1      -1.910  13.515  21.380  0.00  0.00    +0.000 A 
ATOM      3  C   UNL     1      -2.215  12.596  22.352  0.00  0.00    +0.000 A 
ATOM      4  N   UNL     1      -1.274  11.559  22.229  0.00  0.00    +0.000 N 
ATOM      5  C   UNL     1      -1.279  10.339  23.047  0.00  0.00    +0.000 C 
ATOM      6  C   UNL     1      -0.444  11.793  21.184  0.00  0.00    +0.000 A 
ATOM      7  C   UNL     1      -3.306  12.735  23.284  0.00  0.00    +0.000 C 
ATOM      8  O   UNL     1      -3.630  11.962  24.181  0.00  0.00    +0.000 OA
ATOM      9  C   UNL     1      -4.118  13.976  23.098  0.00  0.00    +0.000 A 
ATOM     10  C   UNL     1      -5.229  14.204  23.928  0.00  0.00    +0.000 A 
ATOM     11  C   UNL     1      -6.002  15.359  23.776  0.00  0.00    +0.000 A 
ATOM     12  C   UNL     1      -5.684  16.287  22.792  0.00  0.00    +0.000 A 
ATOM     13  C   UNL     1      -4.588  16.071  21.961  0.00  0.00    +0.000 A 
ATOM     14  C   UNL     1      -3.798  14.919  22.112  0.00  0.00    +0.000 A 
ATOM     15  C   UNL     1      -2.622  14.751  21.216  0.00  0.00    +0.000 C 
ATOM     16  O   UNL     1      -2.373  15.677  20.445  0.00  0.00    +0.000 OA
ENDROOT
BRANCH   1  18
ATOM     17  C   UNL     1       1.450  13.991  20.001  0.00  0.00    +0.000 C 
ATOM     18  C   UNL     1      -0.009  13.740  19.629  0.00  0.00    +0.000 C 
ATOM     19  C   UNL     1      -0.157  13.097  18.252  0.00  0.00    +0.000 C 
ENDBRANCH   1  18
BRANCH   6  20
ATOM     20  C   UNL     1       0.631  10.862  20.652  0.00  0.00    +0.000 C 
ATOM     21  C   UNL     1       0.446   9.610  20.196  0.00  0.00    +0.000 C 
BRANCH  21  22
ATOM     22  C   UNL     1       1.453   8.760  19.533  0.00  0.00    +0.000 A 
ATOM     23  C   UNL     1       1.879   7.583  20.166  0.00  0.00    +0.000 A 
ATOM     24  C   UNL     1       2.716   6.675  19.509  0.00  0.00    +0.000 A 
ATOM     25  C   UNL     1       3.129   6.926  18.203  0.00  0.00    +0.000 A 
ATOM     26  C   UNL     1       2.709   8.088  17.560  0.00  0.00    +0.000 A 
ATOM     27  C   UNL     1       1.876   8.999  18.219  0.00  0.00    +0.000 A 
ENDBRANCH  21  22
ENDBRANCH   6  20
TORSDOF 3
ENDMDL
