MODEL 1
REMARK VINA RESULT:      -7.7      0.000      0.000
REMARK  Name = 
REMARK  9 active torsions:
REMARK  status: ('A' for Active; 'I' for Inactive)
REMARK    1  A    between atoms: C_1  and  O_2
REMARK    2  A    between atoms: O_2  and  C_3
REMARK    3  A    between atoms: C_6  and  O_7
REMARK    4  A    between atoms: O_7  and  C_8
REMARK    5  A    between atoms: C_8  and  C_9
REMARK    6  A    between atoms: C_9  and  C_10
REMARK    7  A    between atoms: C_13  and  C_14
REMARK    8  A    between atoms: C_14  and  N_15
REMARK    9  A    between atoms: N_18  and  C_19
REMARK                            x       y       z     vdW  Elec       q    Type
REMARK                         _______ _______ _______ _____ _____    ______ ____
ROOT
ATOM      1  C   UNL     1       2.508   5.457  18.960  0.00  0.00    +0.000 A 
ATOM      2  C   UNL     1       1.999   5.539  20.279  0.00  0.00    +0.000 A 
ATOM      3  C   UNL     1       1.615   6.775  20.814  0.00  0.00    +0.000 A 
ATOM      4  C   UNL     1       1.744   7.953  20.057  0.00  0.00    +0.000 A 
ATOM      5  C   UNL     1       2.252   7.865  18.752  0.00  0.00    +0.000 A 
ATOM      6  C   UNL     1       2.623   6.631  18.214  0.00  0.00    +0.000 A 
ENDROOT
BRANCH   1   7
ATOM      7  C   UNL     1       2.919   4.161  18.283  0.00  0.00    +0.000 C 
BRANCH   7   8
ATOM      8  C   UNL     1       4.030   3.414  18.998  0.00  0.00    +0.000 C 
BRANCH   8   9
ATOM      9  O   UNL     1       5.164   3.375  18.211  0.00  0.00    +0.000 OA
BRANCH   9  13
ATOM     10  C   UNL     1       7.167   6.916  17.315  0.00  0.00    +0.000 A 
ATOM     11  C   UNL     1       7.394   6.249  18.527  0.00  0.00    +0.000 A 
ATOM     12  C   UNL     1       6.746   5.041  18.805  0.00  0.00    +0.000 A 
ATOM     13  C   UNL     1       5.850   4.496  17.880  0.00  0.00    +0.000 A 
ATOM     14  C   UNL     1       5.639   5.155  16.653  0.00  0.00    +0.000 A 
ATOM     15  C   UNL     1       6.288   6.350  16.373  0.00  0.00    +0.000 A 
BRANCH  10  17
ATOM     16  C   UNL     1       8.213   8.971  18.063  0.00  0.00    +0.000 C 
ATOM     17  O   UNL     1       7.808   8.088  17.083  0.00  0.00    +0.000 OA
ENDBRANCH  10  17
ENDBRANCH   9  13
ENDBRANCH   8   9
ENDBRANCH   7   8
ENDBRANCH   1   7
BRANCH   4  18
ATOM     18  C   UNL     1       1.299   9.291  20.609  0.00  0.00    +0.000 C 
BRANCH  18  19
ATOM     19  N   UNL     1      -0.173   9.389  20.762  0.00  0.00    +0.000 NA
ATOM     20  C   UNL     1      -0.709   9.105  22.119  0.00  0.00    +0.000 C 
ATOM     21  C   UNL     1      -0.528  10.286  23.097  0.00  0.00    +0.000 C 
ATOM     22  N   UNL     1      -0.990  11.535  22.501  0.00  0.00    +0.000 N 
ATOM     23  C   UNL     1      -0.453  11.844  21.184  0.00  0.00    +0.000 C 
ATOM     24  C   UNL     1      -0.721  10.659  20.237  0.00  0.00    +0.000 C 
BRANCH  22  25
ATOM     25  C   UNL     1      -1.774  12.500  23.240  0.00  0.00    +0.000 A 
ATOM     26  C   UNL     1      -3.088  12.179  23.662  0.00  0.00    +0.000 A 
ATOM     27  C   UNL     1      -3.887  13.118  24.319  0.00  0.00    +0.000 A 
ATOM     28  C   UNL     1      -3.390  14.392  24.589  0.00  0.00    +0.000 A 
ATOM     29  C   UNL     1      -2.093  14.731  24.193  0.00  0.00    +0.000 A 
ATOM     30  C   UNL     1      -1.293  13.805  23.521  0.00  0.00    +0.000 A 
ENDBRANCH  22  25
ENDBRANCH  18  19
ENDBRANCH   4  18
TORSDOF 8
ENDMDL
MODEL 2
REMARK VINA RESULT:      -7.6      0.860      1.236
REMARK  Name = 
REMARK  9 active torsions:
REMARK  status: ('A' for Active; 'I' for Inactive)
REMARK    1  A    between atoms: C_1  and  O_2
REMARK    2  A    between atoms: O_2  and  C_3
REMARK    3  A    between atoms: C_6  and  O_7
REMARK    4  A    between atoms: O_7  and  C_8
REMARK    5  A    between atoms: C_8  and  C_9
REMARK    6  A    between atoms: C_9  and  C_10
REMARK    7  A    between atoms: C_13  and  C_14
REMARK    8  A    between atoms: C_14  and  N_15
REMARK    9  A    between atoms: N_18  and  C_19
REMARK                            x       y       z     vdW  Elec       q    Type
REMARK                         _______ _______ _______ _____ _____    ______ ____
ROOT
ATOM      1  C   UNL     1       2.695   5.394  18.455  0.00  0.00    +0.000 A 
ATOM      2  C   UNL     1       2.240   5.230  19.786  0.00  0.00    +0.000 A 
ATOM      3  C   UNL     1       1.840   6.340  20.541  0.00  0.00    +0.000 A 
ATOM      4  C   UNL     1       1.898   7.634  19.993  0.00  0.00    +0.000 A 
ATOM      5  C   UNL     1       2.352   7.791  18.675  0.00  0.00    +0.000 A 
ATOM      6  C   UNL     1       2.740   6.683  17.919  0.00  0.00    +0.000 A 
ENDROOT
BRANCH   1   7
ATOM      7  C   UNL     1       3.119   4.251  17.551  0.00  0.00    +0.000 C 
BRANCH   7   8
ATOM      8  C   UNL     1       4.489   3.682  17.871  0.00  0.00    +0.000 C 
BRANCH   8   9
ATOM      9  O   UNL     1       5.450   4.270  17.073  0.00  0.00    +0.000 OA
BRANCH   9  13
ATOM     10  C   UNL     1       7.926   7.401  18.262  0.00  0.00    +0.000 A 
ATOM     11  C   UNL     1       6.969   7.585  17.254  0.00  0.00    +0.000 A 
ATOM     12  C   UNL     1       6.116   6.539  16.886  0.00  0.00    +0.000 A 
ATOM     13  C   UNL     1       6.223   5.293  17.511  0.00  0.00    +0.000 A 
ATOM     14  C   UNL     1       7.170   5.116  18.538  0.00  0.00    +0.000 A 
ATOM     15  C   UNL     1       8.012   6.155  18.909  0.00  0.00    +0.000 A 
BRANCH  10  17
ATOM     16  C   UNL     1       8.484   9.760  18.297  0.00  0.00    +0.000 C 
ATOM     17  O   UNL     1       8.740   8.436  18.587  0.00  0.00    +0.000 OA
ENDBRANCH  10  17
ENDBRANCH   9  13
ENDBRANCH   8   9
ENDBRANCH   7   8
ENDBRANCH   1   7
BRANCH   4  18
ATOM     18  C   UNL     1       1.433   8.839  20.784  0.00  0.00    +0.000 C 
BRANCH  18  19
ATOM     19  N   UNL     1      -0.044   8.931  20.877  0.00  0.00    +0.000 NA
ATOM     20  C   UNL     1      -0.614   8.932  22.249  0.00  0.00    +0.000 C 
ATOM     21  C   UNL     1      -0.483  10.299  22.955  0.00  0.00    +0.000 C 
ATOM     22  N   UNL     1      -0.951  11.380  22.093  0.00  0.00    +0.000 N 
ATOM     23  C   UNL     1      -0.382  11.412  20.754  0.00  0.00    +0.000 C 
ATOM     24  C   UNL     1      -0.601  10.046  20.078  0.00  0.00    +0.000 C 
BRANCH  22  25
ATOM     25  C   UNL     1      -1.774  12.461  22.589  0.00  0.00    +0.000 A 
ATOM     26  C   UNL     1      -2.783  12.207  23.552  0.00  0.00    +0.000 A 
ATOM     27  C   UNL     1      -3.632  13.223  23.995  0.00  0.00    +0.000 A 
ATOM     28  C   UNL     1      -3.486  14.520  23.507  0.00  0.00    +0.000 A 
ATOM     29  C   UNL     1      -2.492  14.799  22.564  0.00  0.00    +0.000 A 
ATOM     30  C   UNL     1      -1.649  13.788  22.102  0.00  0.00    +0.000 A 
ENDBRANCH  22  25
ENDBRANCH  18  19
ENDBRANCH   4  18
TORSDOF 8
ENDMDL
MODEL 3
REMARK VINA RESULT:      -7.4      2.383      3.169
REMARK  Name = 
REMARK  9 active torsions:
REMARK  status: ('A' for Active; 'I' for Inactive)
REMARK    1  A    between atoms: C_1  and  O_2
REMARK    2  A    between atoms: O_2  and  C_3
REMARK    3  A    between atoms: C_6  and  O_7
REMARK    4  A    between atoms: O_7  and  C_8
REMARK    5  A    between atoms: C_8  and  C_9
REMARK    6  A    between atoms: C_9  and  C_10
REMARK    7  A    between atoms: C_13  and  C_14
REMARK    8  A    between atoms: C_14  and  N_15
REMARK    9  A    between atoms: N_18  and  C_19
REMARK                            x       y       z     vdW  Elec       q    Type
REMARK                         _______ _______ _______ _____ _____    ______ ____
ROOT
ATOM      1  C   UNL     1       2.003   4.685  18.926  0.00  0.00    +0.000 A 
ATOM      2  C   UNL     1       1.587   4.890  20.264  0.00  0.00    +0.000 A 
ATOM      3  C   UNL     1       1.492   6.186  20.786  0.00  0.00    +0.000 A 
ATOM      4  C   UNL     1       1.825   7.300  19.995  0.00  0.00    +0.000 A 
ATOM      5  C   UNL     1       2.239   7.091  18.671  0.00  0.00    +0.000 A 
ATOM      6  C   UNL     1       2.322   5.798  18.148  0.00  0.00    +0.000 A 
ENDROOT
BRANCH   1   7
ATOM      7  C   UNL     1       2.105   3.322  18.264  0.00  0.00    +0.000 C 
BRANCH   7   8
ATOM      8  C   UNL     1       3.378   2.565  18.597  0.00  0.00    +0.000 C 
BRANCH   8   9
ATOM      9  O   UNL     1       4.305   2.719  17.585  0.00  0.00    +0.000 OA
BRANCH   9  13
ATOM     10  C   UNL     1       6.564   6.163  16.961  0.00  0.00    +0.000 A 
ATOM     11  C   UNL     1       5.842   5.577  15.912  0.00  0.00    +0.000 A 
ATOM     12  C   UNL     1       5.056   4.442  16.137  0.00  0.00    +0.000 A 
ATOM     13  C   UNL     1       4.997   3.871  17.412  0.00  0.00    +0.000 A 
ATOM     14  C   UNL     1       5.705   4.473  18.471  0.00  0.00    +0.000 A 
ATOM     15  C   UNL     1       6.480   5.603  18.250  0.00  0.00    +0.000 A 
BRANCH  10  17
ATOM     16  C   UNL     1       7.819   8.115  17.662  0.00  0.00    +0.000 C 
ATOM     17  O   UNL     1       7.320   7.258  16.703  0.00  0.00    +0.000 OA
ENDBRANCH  10  17
ENDBRANCH   9  13
ENDBRANCH   8   9
ENDBRANCH   7   8
ENDBRANCH   1   7
BRANCH   4  18
ATOM     18  C   UNL     1       1.692   8.710  20.534  0.00  0.00    +0.000 C 
BRANCH  18  19
ATOM     19  N   UNL     1       0.535   9.439  19.960  0.00  0.00    +0.000 NA
ATOM     20  C   UNL     1      -0.170  10.372  20.876  0.00  0.00    +0.000 C 
ATOM     21  C   UNL     1       0.578  11.708  21.068  0.00  0.00    +0.000 C 
ATOM     22  N   UNL     1       0.963  12.282  19.782  0.00  0.00    +0.000 N 
ATOM     23  C   UNL     1       1.680  11.391  18.882  0.00  0.00    +0.000 C 
ATOM     24  C   UNL     1       0.856  10.106  18.678  0.00  0.00    +0.000 C 
BRANCH  22  25
ATOM     25  C   UNL     1       0.818  13.691  19.491  0.00  0.00    +0.000 A 
ATOM     26  C   UNL     1      -0.416  14.347  19.730  0.00  0.00    +0.000 A 
ATOM     27  C   UNL     1      -0.598  15.690  19.395  0.00  0.00    +0.000 A 
ATOM     28  C   UNL     1       0.448  16.419  18.833  0.00  0.00    +0.000 A 
ATOM     29  C   UNL     1       1.679  15.799  18.596  0.00  0.00    +0.000 A 
ATOM     30  C   UNL     1       1.866  14.452  18.912  0.00  0.00    +0.000 A 
ENDBRANCH  22  25
ENDBRANCH  18  19
ENDBRANCH   4  18
TORSDOF 8
ENDMDL
MODEL 4
REMARK VINA RESULT:      -7.3      1.841      3.808
REMARK  Name = 
REMARK  9 active torsions:
REMARK  status: ('A' for Active; 'I' for Inactive)
REMARK    1  A    between atoms: C_1  and  O_2
REMARK    2  A    between atoms: O_2  and  C_3
REMARK    3  A    between atoms: C_6  and  O_7
REMARK    4  A    between atoms: O_7  and  C_8
REMARK    5  A    between atoms: C_8  and  C_9
REMARK    6  A    between atoms: C_9  and  C_10
REMARK    7  A    between atoms: C_13  and  C_14
REMARK    8  A    between atoms: C_14  and  N_15
REMARK    9  A    between atoms: N_18  and  C_19
REMARK                            x       y       z     vdW  Elec       q    Type
REMARK                         _______ _______ _______ _____ _____    ______ ____
ROOT
ATOM      1  C   UNL     1       3.859   6.869  18.122  0.00  0.00    +0.000 A 
ATOM      2  C   UNL     1       3.197   6.617  19.349  0.00  0.00    +0.000 A 
ATOM      3  C   UNL     1       2.112   7.409  19.745  0.00  0.00    +0.000 A 
ATOM      4  C   UNL     1       1.675   8.475  18.939  0.00  0.00    +0.000 A 
ATOM      5  C   UNL     1       2.336   8.722  17.726  0.00  0.00    +0.000 A 
ATOM      6  C   UNL     1       3.410   7.924  17.326  0.00  0.00    +0.000 A 
ENDROOT
BRANCH   1   7
ATOM      7  C   UNL     1       5.021   6.046  17.595  0.00  0.00    +0.000 C 
BRANCH   7   8
ATOM      8  C   UNL     1       4.751   5.377  16.260  0.00  0.00    +0.000 C 
BRANCH   8   9
ATOM      9  O   UNL     1       4.492   4.033  16.441  0.00  0.00    +0.000 OA
BRANCH   9  13
ATOM     10  C   UNL     1       1.972   2.826  19.530  0.00  0.00    +0.000 A 
ATOM     11  C   UNL     1       1.451   3.384  18.354  0.00  0.00    +0.000 A 
ATOM     12  C   UNL     1       2.300   3.753  17.306  0.00  0.00    +0.000 A 
ATOM     13  C   UNL     1       3.683   3.583  17.430  0.00  0.00    +0.000 A 
ATOM     14  C   UNL     1       4.204   3.002  18.603  0.00  0.00    +0.000 A 
ATOM     15  C   UNL     1       3.361   2.630  19.641  0.00  0.00    +0.000 A 
BRANCH  10  17
ATOM     16  C   UNL     1       1.396   2.599  21.874  0.00  0.00    +0.000 C 
ATOM     17  O   UNL     1       1.118   2.487  20.527  0.00  0.00    +0.000 OA
ENDBRANCH  10  17
ENDBRANCH   9  13
ENDBRANCH   8   9
ENDBRANCH   7   8
ENDBRANCH   1   7
BRANCH   4  18
ATOM     18  C   UNL     1       0.480   9.318  19.336  0.00  0.00    +0.000 C 
BRANCH  18  19
ATOM     19  N   UNL     1       0.865  10.643  19.878  0.00  0.00    +0.000 NA
ATOM     20  C   UNL     1      -0.007  11.784  19.498  0.00  0.00    +0.000 C 
ATOM     21  C   UNL     1      -1.321  11.833  20.307  0.00  0.00    +0.000 C 
ATOM     22  N   UNL     1      -1.060  11.709  21.737  0.00  0.00    +0.000 N 
ATOM     23  C   UNL     1      -0.231  10.580  22.132  0.00  0.00    +0.000 C 
ATOM     24  C   UNL     1       1.090  10.621  21.341  0.00  0.00    +0.000 C 
BRANCH  22  25
ATOM     25  C   UNL     1      -1.733  12.529  22.720  0.00  0.00    +0.000 A 
ATOM     26  C   UNL     1      -3.039  12.192  23.156  0.00  0.00    +0.000 A 
ATOM     27  C   UNL     1      -3.734  13.006  24.054  0.00  0.00    +0.000 A 
ATOM     28  C   UNL     1      -3.139  14.163  24.554  0.00  0.00    +0.000 A 
ATOM     29  C   UNL     1      -1.848  14.512  24.146  0.00  0.00    +0.000 A 
ATOM     30  C   UNL     1      -1.152  13.715  23.237  0.00  0.00    +0.000 A 
ENDBRANCH  22  25
ENDBRANCH  18  19
ENDBRANCH   4  18
TORSDOF 8
ENDMDL
MODEL 5
REMARK VINA RESULT:      -7.3      2.332      2.808
REMARK  Name = 
REMARK  9 active torsions:
REMARK  status: ('A' for Active; 'I' for Inactive)
REMARK    1  A    between atoms: C_1  and  O_2
REMARK    2  A    between atoms: O_2  and  C_3
REMARK    3  A    between atoms: C_6  and  O_7
REMARK    4  A    between atoms: O_7  and  C_8
REMARK    5  A    between atoms: C_8  and  C_9
REMARK    6  A    between atoms: C_9  and  C_10
REMARK    7  A    between atoms: C_13  and  C_14
REMARK    8  A    between atoms: C_14  and  N_15
REMARK    9  A    between atoms: N_18  and  C_19
REMARK                            x       y       z     vdW  Elec       q    Type
REMARK                         _______ _______ _______ _____ _____    ______ ____
ROOT
ATOM      1  C   UNL     1       1.732   4.303  18.956  0.00  0.00    +0.000 A 
ATOM      2  C   UNL     1       1.631   4.730  20.303  0.00  0.00    +0.000 A 
ATOM      3  C   UNL     1       1.701   6.092  20.621  0.00  0.00    +0.000 A 
ATOM      4  C   UNL     1       1.888   7.053  19.611  0.00  0.00    +0.000 A 
ATOM      5  C   UNL     1       1.991   6.623  18.280  0.00  0.00    +0.000 A 
ATOM      6  C   UNL     1       1.909   5.266  17.962  0.00  0.00    +0.000 A 
ENDROOT
BRANCH   1   7
ATOM      7  C   UNL     1       1.637   2.855  18.511  0.00  0.00    +0.000 C 
BRANCH   7   8
ATOM      8  C   UNL     1       2.757   2.415  17.587  0.00  0.00    +0.000 C 
BRANCH   8   9
ATOM      9  O   UNL     1       3.984   2.674  18.164  0.00  0.00    +0.000 OA
BRANCH   9  13
ATOM     10  C   UNL     1       6.195   6.033  17.077  0.00  0.00    +0.000 A 
ATOM     11  C   UNL     1       6.065   5.663  18.423  0.00  0.00    +0.000 A 
ATOM     12  C   UNL     1       5.352   4.513  18.778  0.00  0.00    +0.000 A 
ATOM     13  C   UNL     1       4.747   3.730  17.790  0.00  0.00    +0.000 A 
ATOM     14  C   UNL     1       4.897   4.090  16.437  0.00  0.00    +0.000 A 
ATOM     15  C   UNL     1       5.610   5.227  16.083  0.00  0.00    +0.000 A 
BRANCH  10  17
ATOM     16  C   UNL     1       7.763   7.800  17.625  0.00  0.00    +0.000 C 
ATOM     17  O   UNL     1       6.888   7.158  16.772  0.00  0.00    +0.000 OA
ENDBRANCH  10  17
ENDBRANCH   9  13
ENDBRANCH   8   9
ENDBRANCH   7   8
ENDBRANCH   1   7
BRANCH   4  18
ATOM     18  C   UNL     1       1.929   8.532  19.936  0.00  0.00    +0.000 C 
BRANCH  18  19
ATOM     19  N   UNL     1       0.636   9.212  19.680  0.00  0.00    +0.000 NA
ATOM     20  C   UNL     1       0.009   9.885  20.847  0.00  0.00    +0.000 C 
ATOM     21  C   UNL     1       0.660  11.245  21.179  0.00  0.00    +0.000 C 
ATOM     22  N   UNL     1       0.783  12.073  19.984  0.00  0.00    +0.000 N 
ATOM     23  C   UNL     1       1.421  11.440  18.839  0.00  0.00    +0.000 C 
ATOM     24  C   UNL     1       0.689  10.124  18.516  0.00  0.00    +0.000 C 
BRANCH  22  25
ATOM     25  C   UNL     1       0.473  13.486  19.988  0.00  0.00    +0.000 A 
ATOM     26  C   UNL     1       0.058  14.129  18.795  0.00  0.00    +0.000 A 
ATOM     27  C   UNL     1      -0.182  15.504  18.760  0.00  0.00    +0.000 A 
ATOM     28  C   UNL     1      -0.035  16.269  19.915  0.00  0.00    +0.000 A 
ATOM     29  C   UNL     1       0.364  15.658  21.108  0.00  0.00    +0.000 A 
ATOM     30  C   UNL     1       0.622  14.287  21.149  0.00  0.00    +0.000 A 
ENDBRANCH  22  25
ENDBRANCH  18  19
ENDBRANCH   4  18
TORSDOF 8
ENDMDL
MODEL 6
REMARK VINA RESULT:      -7.3      2.777      3.447
REMARK  Name = 
REMARK  9 active torsions:
REMARK  status: ('A' for Active; 'I' for Inactive)
REMARK    1  A    between atoms: C_1  and  O_2
REMARK    2  A    between atoms: O_2  and  C_3
REMARK    3  A    between atoms: C_6  and  O_7
REMARK    4  A    between atoms: O_7  and  C_8
REMARK    5  A    between atoms: C_8  and  C_9
REMARK    6  A    between atoms: C_9  and  C_10
REMARK    7  A    between atoms: C_13  and  C_14
REMARK    8  A    between atoms: C_14  and  N_15
REMARK    9  A    between atoms: N_18  and  C_19
REMARK                            x       y       z     vdW  Elec       q    Type
REMARK                         _______ _______ _______ _____ _____    ______ ____
ROOT
ATOM      1  C   UNL     1       2.223   6.265  19.756  0.00  0.00    +0.000 A 
ATOM      2  C   UNL     1       1.706   7.147  20.736  0.00  0.00    +0.000 A 
ATOM      3  C   UNL     1       1.382   8.468  20.402  0.00  0.00    +0.000 A 
ATOM      4  C   UNL     1       1.581   8.941  19.092  0.00  0.00    +0.000 A 
ATOM      5  C   UNL     1       2.096   8.064  18.126  0.00  0.00    +0.000 A 
ATOM      6  C   UNL     1       2.407   6.744  18.458  0.00  0.00    +0.000 A 
ENDROOT
BRANCH   1   7
ATOM      7  C   UNL     1       2.572   4.811  20.016  0.00  0.00    +0.000 C 
BRANCH   7   8
ATOM      8  C   UNL     1       3.077   4.066  18.794  0.00  0.00    +0.000 C 
BRANCH   8   9
ATOM      9  O   UNL     1       4.451   3.932  18.849  0.00  0.00    +0.000 OA
BRANCH   9  13
ATOM     10  C   UNL     1       6.888   4.949  15.629  0.00  0.00    +0.000 A 
ATOM     11  C   UNL     1       7.397   4.924  16.935  0.00  0.00    +0.000 A 
ATOM     12  C   UNL     1       6.582   4.545  18.007  0.00  0.00    +0.000 A 
ATOM     13  C   UNL     1       5.244   4.204  17.785  0.00  0.00    +0.000 A 
ATOM     14  C   UNL     1       4.740   4.209  16.470  0.00  0.00    +0.000 A 
ATOM     15  C   UNL     1       5.550   4.578  15.405  0.00  0.00    +0.000 A 
BRANCH  10  17
ATOM     16  C   UNL     1       7.480   5.067  13.281  0.00  0.00    +0.000 C 
ATOM     17  O   UNL     1       7.706   5.329  14.616  0.00  0.00    +0.000 OA
ENDBRANCH  10  17
ENDBRANCH   9  13
ENDBRANCH   8   9
ENDBRANCH   7   8
ENDBRANCH   1   7
BRANCH   4  18
ATOM     18  C   UNL     1       1.201  10.356  18.707  0.00  0.00    +0.000 C 
BRANCH  18  19
ATOM     19  N   UNL     1       0.225  10.965  19.642  0.00  0.00    +0.000 NA
ATOM     20  C   UNL     1       0.777  11.936  20.622  0.00  0.00    +0.000 C 
ATOM     21  C   UNL     1       1.051  13.324  20.004  0.00  0.00    +0.000 C 
ATOM     22  N   UNL     1      -0.104  13.800  19.249  0.00  0.00    +0.000 N 
ATOM     23  C   UNL     1      -0.641  12.872  18.264  0.00  0.00    +0.000 C 
ATOM     24  C   UNL     1      -0.956  11.531  18.952  0.00  0.00    +0.000 C 
BRANCH  22  25
ATOM     25  C   UNL     1      -0.569  15.167  19.329  0.00  0.00    +0.000 A 
ATOM     26  C   UNL     1      -1.490  15.550  20.336  0.00  0.00    +0.000 A 
ATOM     27  C   UNL     1      -2.003  16.848  20.391  0.00  0.00    +0.000 A 
ATOM     28  C   UNL     1      -1.597  17.801  19.459  0.00  0.00    +0.000 A 
ATOM     29  C   UNL     1      -0.682  17.451  18.461  0.00  0.00    +0.000 A 
ATOM     30  C   UNL     1      -0.176  16.152  18.387  0.00  0.00    +0.000 A 
ENDBRANCH  22  25
ENDBRANCH  18  19
ENDBRANCH   4  18
TORSDOF 8
ENDMDL
MODEL 7
REMARK VINA RESULT:      -7.2      2.822      3.733
REMARK  Name = 
REMARK  9 active torsions:
REMARK  status: ('A' for Active; 'I' for Inactive)
REMARK    1  A    between atoms: C_1  and  O_2
REMARK    2  A    between atoms: O_2  and  C_3
REMARK    3  A    between atoms: C_6  and  O_7
REMARK    4  A    between atoms: O_7  and  C_8
REMARK    5  A    between atoms: C_8  and  C_9
REMARK    6  A    between atoms: C_9  and  C_10
REMARK    7  A    between atoms: C_13  and  C_14
REMARK    8  A    between atoms: C_14  and  N_15
REMARK    9  A    between atoms: N_18  and  C_19
REMARK                            x       y       z     vdW  Elec       q    Type
REMARK                         _______ _______ _______ _____ _____    ______ ____
ROOT
ATOM      1  C   UNL     1       2.063   6.817  19.851  0.00  0.00    +0.000 A 
ATOM      2  C   UNL     1       2.282   7.590  18.684  0.00  0.00    +0.000 A 
ATOM      3  C   UNL     1       1.850   8.921  18.625  0.00  0.00    +0.000 A 
ATOM      4  C   UNL     1       1.180   9.504  19.715  0.00  0.00    +0.000 A 
ATOM      5  C   UNL     1       0.964   8.733  20.867  0.00  0.00    +0.000 A 
ATOM      6  C   UNL     1       1.406   7.410  20.931  0.00  0.00    +0.000 A 
ENDROOT
BRANCH   1   7
ATOM      7  C   UNL     1       2.522   5.380  20.021  0.00  0.00    +0.000 C 
BRANCH   7   8
ATOM      8  C   UNL     1       2.505   4.569  18.739  0.00  0.00    +0.000 C 
BRANCH   8   9
ATOM      9  O   UNL     1       3.785   4.173  18.405  0.00  0.00    +0.000 OA
BRANCH   9  13
ATOM     10  C   UNL     1       6.873   6.817  17.493  0.00  0.00    +0.000 A 
ATOM     11  C   UNL     1       5.709   6.774  16.712  0.00  0.00    +0.000 A 
ATOM     12  C   UNL     1       4.661   5.910  17.046  0.00  0.00    +0.000 A 
ATOM     13  C   UNL     1       4.773   5.067  18.156  0.00  0.00    +0.000 A 
ATOM     14  C   UNL     1       5.933   5.126  18.953  0.00  0.00    +0.000 A 
ATOM     15  C   UNL     1       6.971   5.988  18.626  0.00  0.00    +0.000 A 
BRANCH  10  17
ATOM     16  C   UNL     1       8.142   8.866  17.749  0.00  0.00    +0.000 C 
ATOM     17  O   UNL     1       7.870   7.662  17.134  0.00  0.00    +0.000 OA
ENDBRANCH  10  17
ENDBRANCH   9  13
ENDBRANCH   8   9
ENDBRANCH   7   8
ENDBRANCH   1   7
BRANCH   4  18
ATOM     18  C   UNL     1       0.740  10.953  19.679  0.00  0.00    +0.000 C 
BRANCH  18  19
ATOM     19  N   UNL     1       0.000  11.299  18.441  0.00  0.00    +0.000 NA
ATOM     20  C   UNL     1      -0.959  10.278  17.946  0.00  0.00    +0.000 C 
ATOM     21  C   UNL     1      -2.285  10.265  18.736  0.00  0.00    +0.000 C 
ATOM     22  N   UNL     1      -2.832  11.612  18.864  0.00  0.00    +0.000 N 
ATOM     23  C   UNL     1      -1.915  12.620  19.376  0.00  0.00    +0.000 C 
ATOM     24  C   UNL     1      -0.641  12.631  18.510  0.00  0.00    +0.000 C 
BRANCH  22  25
ATOM     25  C   UNL     1      -4.238  11.895  18.685  0.00  0.00    +0.000 A 
ATOM     26  C   UNL     1      -4.846  11.717  17.416  0.00  0.00    +0.000 A 
ATOM     27  C   UNL     1      -6.186  12.047  17.204  0.00  0.00    +0.000 A 
ATOM     28  C   UNL     1      -6.960  12.542  18.252  0.00  0.00    +0.000 A 
ATOM     29  C   UNL     1      -6.387  12.718  19.516  0.00  0.00    +0.000 A 
ATOM     30  C   UNL     1      -5.044  12.407  19.734  0.00  0.00    +0.000 A 
ENDBRANCH  22  25
ENDBRANCH  18  19
ENDBRANCH   4  18
TORSDOF 8
ENDMDL
MODEL 8
REMARK VINA RESULT:      -7.2      2.515      3.373
REMARK  Name = 
REMARK  9 active torsions:
REMARK  status: ('A' for Active; 'I' for Inactive)
REMARK    1  A    between atoms: C_1  and  O_2
REMARK    2  A    between atoms: O_2  and  C_3
REMARK    3  A    between atoms: C_6  and  O_7
REMARK    4  A    between atoms: O_7  and  C_8
REMARK    5  A    between atoms: C_8  and  C_9
REMARK    6  A    between atoms: C_9  and  C_10
REMARK    7  A    between atoms: C_13  and  C_14
REMARK    8  A    between atoms: C_14  and  N_15
REMARK    9  A    between atoms: N_18  and  C_19
REMARK                            x       y       z     vdW  Elec       q    Type
REMARK                         _______ _______ _______ _____ _____    ______ ____
ROOT
ATOM      1  C   UNL     1       2.051   4.599  18.770  0.00  0.00    +0.000 A 
ATOM      2  C   UNL     1       2.216   5.685  17.876  0.00  0.00    +0.000 A 
ATOM      3  C   UNL     1       2.141   7.004  18.341  0.00  0.00    +0.000 A 
ATOM      4  C   UNL     1       1.885   7.268  19.698  0.00  0.00    +0.000 A 
ATOM      5  C   UNL     1       1.720   6.189  20.579  0.00  0.00    +0.000 A 
ATOM      6  C   UNL     1       1.807   4.874  20.116  0.00  0.00    +0.000 A 
ENDROOT
BRANCH   1   7
ATOM      7  C   UNL     1       2.147   3.139  18.366  0.00  0.00    +0.000 C 
BRANCH   7   8
ATOM      8  C   UNL     1       3.555   2.575  18.408  0.00  0.00    +0.000 C 
BRANCH   8   9
ATOM      9  O   UNL     1       4.323   3.130  17.403  0.00  0.00    +0.000 OA
BRANCH   9  13
ATOM     10  C   UNL     1       7.073   6.195  18.033  0.00  0.00    +0.000 A 
ATOM     11  C   UNL     1       6.598   5.909  16.745  0.00  0.00    +0.000 A 
ATOM     12  C   UNL     1       5.646   4.904  16.546  0.00  0.00    +0.000 A 
ATOM     13  C   UNL     1       5.173   4.160  17.632  0.00  0.00    +0.000 A 
ATOM     14  C   UNL     1       5.635   4.462  18.928  0.00  0.00    +0.000 A 
ATOM     15  C   UNL     1       6.574   5.465  19.127  0.00  0.00    +0.000 A 
BRANCH  10  17
ATOM     16  C   UNL     1       7.862   8.467  17.732  0.00  0.00    +0.000 C 
ATOM     17  O   UNL     1       8.000   7.172  18.185  0.00  0.00    +0.000 OA
ENDBRANCH  10  17
ENDBRANCH   9  13
ENDBRANCH   8   9
ENDBRANCH   7   8
ENDBRANCH   1   7
BRANCH   4  18
ATOM     18  C   UNL     1       1.838   8.689  20.222  0.00  0.00    +0.000 C 
BRANCH  18  19
ATOM     19  N   UNL     1       0.650   9.439  19.746  0.00  0.00    +0.000 NA
ATOM     20  C   UNL     1       0.024  10.364  20.726  0.00  0.00    +0.000 C 
ATOM     21  C   UNL     1       0.800  11.689  20.883  0.00  0.00    +0.000 C 
ATOM     22  N   UNL     1       1.096  12.280  19.581  0.00  0.00    +0.000 N 
ATOM     23  C   UNL     1       1.736  11.397  18.617  0.00  0.00    +0.000 C 
ATOM     24  C   UNL     1       0.884  10.124  18.455  0.00  0.00    +0.000 C 
BRANCH  22  25
ATOM     25  C   UNL     1       0.947  13.695  19.324  0.00  0.00    +0.000 A 
ATOM     26  C   UNL     1      -0.326  14.309  19.427  0.00  0.00    +0.000 A 
ATOM     27  C   UNL     1      -0.505  15.660  19.118  0.00  0.00    +0.000 A 
ATOM     28  C   UNL     1       0.581  16.436  18.719  0.00  0.00    +0.000 A 
ATOM     29  C   UNL     1       1.850  15.857  18.619  0.00  0.00    +0.000 A 
ATOM     30  C   UNL     1       2.036  14.504  18.909  0.00  0.00    +0.000 A 
ENDBRANCH  22  25
ENDBRANCH  18  19
ENDBRANCH   4  18
TORSDOF 8
ENDMDL
MODEL 9
REMARK VINA RESULT:      -7.2      2.584      3.320
REMARK  Name = 
REMARK  9 active torsions:
REMARK  status: ('A' for Active; 'I' for Inactive)
REMARK    1  A    between atoms: C_1  and  O_2
REMARK    2  A    between atoms: O_2  and  C_3
REMARK    3  A    between atoms: C_6  and  O_7
REMARK    4  A    between atoms: O_7  and  C_8
REMARK    5  A    between atoms: C_8  and  C_9
REMARK    6  A    between atoms: C_9  and  C_10
REMARK    7  A    between atoms: C_13  and  C_14
REMARK    8  A    between atoms: C_14  and  N_15
REMARK    9  A    between atoms: N_18  and  C_19
REMARK                            x       y       z     vdW  Elec       q    Type
REMARK                         _______ _______ _______ _____ _____    ______ ____
ROOT
ATOM      1  C   UNL     1       2.112   4.468  18.986  0.00  0.00    +0.000 A 
ATOM      2  C   UNL     1       2.081   5.457  17.972  0.00  0.00    +0.000 A 
ATOM      3  C   UNL     1       1.963   6.812  18.306  0.00  0.00    +0.000 A 
ATOM      4  C   UNL     1       1.858   7.208  19.651  0.00  0.00    +0.000 A 
ATOM      5  C   UNL     1       1.888   6.225  20.651  0.00  0.00    +0.000 A 
ATOM      6  C   UNL     1       2.017   4.875  20.317  0.00  0.00    +0.000 A 
ENDROOT
BRANCH   1   7
ATOM      7  C   UNL     1       2.269   2.981  18.723  0.00  0.00    +0.000 C 
BRANCH   7   8
ATOM      8  C   UNL     1       3.701   2.543  18.474  0.00  0.00    +0.000 C 
BRANCH   8   9
ATOM      9  O   UNL     1       4.120   2.965  17.227  0.00  0.00    +0.000 OA
BRANCH   9  13
ATOM     10  C   UNL     1       6.870   6.067  16.826  0.00  0.00    +0.000 A 
ATOM     11  C   UNL     1       6.618   5.488  18.077  0.00  0.00    +0.000 A 
ATOM     12  C   UNL     1       5.721   4.421  18.199  0.00  0.00    +0.000 A 
ATOM     13  C   UNL     1       5.053   3.935  17.071  0.00  0.00    +0.000 A 
ATOM     14  C   UNL     1       5.323   4.503  15.811  0.00  0.00    +0.000 A 
ATOM     15  C   UNL     1       6.218   5.556  15.688  0.00  0.00    +0.000 A 
BRANCH  10  17
ATOM     16  C   UNL     1       7.796   8.154  17.642  0.00  0.00    +0.000 C 
ATOM     17  O   UNL     1       7.741   7.103  16.749  0.00  0.00    +0.000 OA
ENDBRANCH  10  17
ENDBRANCH   9  13
ENDBRANCH   8   9
ENDBRANCH   7   8
ENDBRANCH   1   7
BRANCH   4  18
ATOM     18  C   UNL     1       1.768   8.672  20.030  0.00  0.00    +0.000 C 
BRANCH  18  19
ATOM     19  N   UNL     1       0.790   9.421  19.203  0.00  0.00    +0.000 NA
ATOM     20  C   UNL     1      -0.221  10.216  19.946  0.00  0.00    +0.000 C 
ATOM     21  C   UNL     1       0.341  11.548  20.489  0.00  0.00    +0.000 C 
ATOM     22  N   UNL     1       1.054  12.279  19.447  0.00  0.00    +0.000 N 
ATOM     23  C   UNL     1       2.069  11.524  18.727  0.00  0.00    +0.000 C 
ATOM     24  C   UNL     1       1.435  10.243  18.155  0.00  0.00    +0.000 C 
BRANCH  22  25
ATOM     25  C   UNL     1       0.908  13.706  19.267  0.00  0.00    +0.000 A 
ATOM     26  C   UNL     1      -0.358  14.321  19.438  0.00  0.00    +0.000 A 
ATOM     27  C   UNL     1      -0.536  15.687  19.205  0.00  0.00    +0.000 A 
ATOM     28  C   UNL     1       0.543  16.477  18.814  0.00  0.00    +0.000 A 
ATOM     29  C   UNL     1       1.805  15.896  18.647  0.00  0.00    +0.000 A 
ATOM     30  C   UNL     1       1.990  14.530  18.862  0.00  0.00    +0.000 A 
ENDBRANCH  22  25
ENDBRANCH  18  19
ENDBRANCH   4  18
TORSDOF 8
ENDMDL
