MODEL 1
REMARK VINA RESULT:      -8.4      0.000      0.000
REMARK  Name = 
REMARK  5 active torsions:
REMARK  status: ('A' for Active; 'I' for Inactive)
REMARK    1  A    between atoms: C_2  and  C_3
REMARK    2  A    between atoms: C_3  and  S_4
REMARK    3  A    between atoms: S_4  and  C_5
REMARK    4  A    between atoms: C_8  and  C_9
REMARK    5  A    between atoms: C_16  and  C_18
REMARK                            x       y       z     vdW  Elec       q    Type
REMARK                         _______ _______ _______ _____ _____    ______ ____
ROOT
ATOM      1  O   UNL     1       7.438   4.410  18.361  0.00  0.00    +0.000 OA
ATOM      2  C   UNL     1       6.973   5.557  18.337  0.00  0.00    +0.000 C 
ATOM      3  N   UNL     1       5.636   5.868  18.184  0.00  0.00    +0.000 N 
ATOM      4  C   UNL     1       4.690   4.910  17.869  0.00  0.00    +0.000 C 
ATOM      5  O   UNL     1       4.910   3.703  17.966  0.00  0.00    +0.000 OA
ATOM      6  H   UNL     1       5.354   6.840  18.160  0.00  0.00    +0.000 HD
ENDROOT
BRANCH   4   7
ATOM      7  C   UNL     1       3.273   5.431  17.495  0.00  0.00    +0.000 C 
ATOM      8  C   UNL     1       2.955   6.662  18.351  0.00  0.00    +0.000 C 
ATOM      9  O   UNL     1       2.884   6.329  19.746  0.00  0.00    +0.000 OA
ATOM     10  C   UNL     1       2.396   5.068  19.964  0.00  0.00    +0.000 A 
ATOM     11  C   UNL     1       2.422   4.599  21.273  0.00  0.00    +0.000 A 
ATOM     12  C   UNL     1       1.880   3.349  21.569  0.00  0.00    +0.000 A 
ATOM     13  C   UNL     1       1.252   2.610  20.565  0.00  0.00    +0.000 A 
ATOM     14  C   UNL     1       1.284   3.050  19.242  0.00  0.00    +0.000 A 
ATOM     15  C   UNL     1       1.938   4.238  18.937  0.00  0.00    +0.000 A 
ATOM     16  O   UNL     1       2.197   4.497  17.612  0.00  0.00    +0.000 OA
ENDBRANCH   4   7
BRANCH   2  17
ATOM     17  C   UNL     1       7.900   6.729  18.550  0.00  0.00    +0.000 C 
BRANCH  17  18
ATOM     18  S   UNL     1       7.490   8.099  17.433  0.00  0.00    +0.000 S 
BRANCH  18  19
ATOM     19  C   UNL     1       8.373   9.406  18.155  0.00  0.00    +0.000 A 
ATOM     20  N   UNL     1       9.012   9.332  19.307  0.00  0.00    +0.000 NA
ATOM     21  N   UNL     1       9.648  10.550  19.472  0.00  0.00    +0.000 NA
ATOM     22  C   UNL     1       9.339  11.290  18.421  0.00  0.00    +0.000 A 
ATOM     23  O   UNL     1       8.529  10.613  17.543  0.00  0.00    +0.000 OA
BRANCH  22  24
ATOM     24  C   UNL     1       9.795  12.627  18.201  0.00  0.00    +0.000 A 
ATOM     25  C   UNL     1      10.714  13.097  17.274  0.00  0.00    +0.000 A 
ATOM     26  C   UNL     1      10.845  14.493  17.474  0.00  0.00    +0.000 A 
ATOM     27  C   UNL     1       9.983  14.807  18.495  0.00  0.00    +0.000 A 
ATOM     28  O   UNL     1       9.345  13.696  18.938  0.00  0.00    +0.000 OA
ENDBRANCH  22  24
ENDBRANCH  18  19
ENDBRANCH  17  18
ENDBRANCH   2  17
TORSDOF 5
ENDMDL
MODEL 2
REMARK VINA RESULT:      -8.1      4.189      5.694
REMARK  Name = 
REMARK  5 active torsions:
REMARK  status: ('A' for Active; 'I' for Inactive)
REMARK    1  A    between atoms: C_2  and  C_3
REMARK    2  A    between atoms: C_3  and  S_4
REMARK    3  A    between atoms: S_4  and  C_5
REMARK    4  A    between atoms: C_8  and  C_9
REMARK    5  A    between atoms: C_16  and  C_18
REMARK                            x       y       z     vdW  Elec       q    Type
REMARK                         _______ _______ _______ _____ _____    ______ ____
ROOT
ATOM      1  O   UNL     1       6.977   3.848  18.331  0.00  0.00    +0.000 OA
ATOM      2  C   UNL     1       6.532   4.962  18.638  0.00  0.00    +0.000 C 
ATOM      3  N   UNL     1       5.204   5.334  18.564  0.00  0.00    +0.000 N 
ATOM      4  C   UNL     1       4.248   4.531  17.970  0.00  0.00    +0.000 C 
ATOM      5  O   UNL     1       4.445   3.344  17.712  0.00  0.00    +0.000 OA
ATOM      6  H   UNL     1       4.938   6.276  18.822  0.00  0.00    +0.000 HD
ENDROOT
BRANCH   4   7
ATOM      7  C   UNL     1       2.848   5.170  17.746  0.00  0.00    +0.000 C 
ATOM      8  C   UNL     1       2.706   6.390  18.663  0.00  0.00    +0.000 C 
ATOM      9  O   UNL     1       2.736   6.012  20.048  0.00  0.00    +0.000 OA
ATOM     10  C   UNL     1       2.174   4.784  20.274  0.00  0.00    +0.000 A 
ATOM     11  C   UNL     1       2.282   4.268  21.560  0.00  0.00    +0.000 A 
ATOM     12  C   UNL     1       1.673   3.052  21.870  0.00  0.00    +0.000 A 
ATOM     13  C   UNL     1       0.901   2.398  20.908  0.00  0.00    +0.000 A 
ATOM     14  C   UNL     1       0.846   2.882  19.600  0.00  0.00    +0.000 A 
ATOM     15  C   UNL     1       1.561   4.028  19.270  0.00  0.00    +0.000 A 
ATOM     16  O   UNL     1       1.718   4.315  17.935  0.00  0.00    +0.000 OA
ENDBRANCH   4   7
BRANCH   2  17
ATOM     17  C   UNL     1       7.475   6.000  19.197  0.00  0.00    +0.000 C 
BRANCH  17  18
ATOM     18  S   UNL     1       7.882   7.254  17.949  0.00  0.00    +0.000 S 
BRANCH  18  19
ATOM     19  C   UNL     1       6.975   6.685  16.584  0.00  0.00    +0.000 A 
ATOM     20  N   UNL     1       5.812   7.175  16.200  0.00  0.00    +0.000 NA
ATOM     21  N   UNL     1       5.480   6.508  15.035  0.00  0.00    +0.000 NA
ATOM     22  C   UNL     1       6.451   5.643  14.797  0.00  0.00    +0.000 A 
ATOM     23  O   UNL     1       7.437   5.711  15.750  0.00  0.00    +0.000 OA
BRANCH  22  24
ATOM     24  C   UNL     1       6.495   4.750  13.681  0.00  0.00    +0.000 A 
ATOM     25  C   UNL     1       5.668   3.676  13.388  0.00  0.00    +0.000 A 
ATOM     26  C   UNL     1       6.139   3.093  12.186  0.00  0.00    +0.000 A 
ATOM     27  C   UNL     1       7.213   3.853  11.796  0.00  0.00    +0.000 A 
ATOM     28  O   UNL     1       7.435   4.853  12.684  0.00  0.00    +0.000 OA
ENDBRANCH  22  24
ENDBRANCH  18  19
ENDBRANCH  17  18
ENDBRANCH   2  17
TORSDOF 5
ENDMDL
MODEL 3
REMARK VINA RESULT:      -7.8      2.027      3.024
REMARK  Name = 
REMARK  5 active torsions:
REMARK  status: ('A' for Active; 'I' for Inactive)
REMARK    1  A    between atoms: C_2  and  C_3
REMARK    2  A    between atoms: C_3  and  S_4
REMARK    3  A    between atoms: S_4  and  C_5
REMARK    4  A    between atoms: C_8  and  C_9
REMARK    5  A    between atoms: C_16  and  C_18
REMARK                            x       y       z     vdW  Elec       q    Type
REMARK                         _______ _______ _______ _____ _____    ______ ____
ROOT
ATOM      1  O   UNL     1       8.714   7.534  19.004  0.00  0.00    +0.000 OA
ATOM      2  C   UNL     1       8.093   8.077  18.081  0.00  0.00    +0.000 C 
ATOM      3  N   UNL     1       7.218   7.434  17.227  0.00  0.00    +0.000 N 
ATOM      4  C   UNL     1       7.078   6.058  17.218  0.00  0.00    +0.000 C 
ATOM      5  O   UNL     1       7.502   5.342  18.125  0.00  0.00    +0.000 OA
ATOM      6  H   UNL     1       6.769   7.961  16.489  0.00  0.00    +0.000 HD
ENDROOT
BRANCH   4   7
ATOM      7  C   UNL     1       6.242   5.454  16.054  0.00  0.00    +0.000 C 
ATOM      8  C   UNL     1       5.262   6.515  15.544  0.00  0.00    +0.000 C 
ATOM      9  O   UNL     1       4.306   6.877  16.553  0.00  0.00    +0.000 OA
ATOM     10  C   UNL     1       3.980   5.830  17.372  0.00  0.00    +0.000 A 
ATOM     11  C   UNL     1       3.171   6.114  18.467  0.00  0.00    +0.000 A 
ATOM     12  C   UNL     1       2.751   5.078  19.302  0.00  0.00    +0.000 A 
ATOM     13  C   UNL     1       3.084   3.759  18.992  0.00  0.00    +0.000 A 
ATOM     14  C   UNL     1       3.948   3.481  17.932  0.00  0.00    +0.000 A 
ATOM     15  C   UNL     1       4.464   4.532  17.183  0.00  0.00    +0.000 A 
ATOM     16  O   UNL     1       5.517   4.256  16.344  0.00  0.00    +0.000 OA
ENDBRANCH   4   7
BRANCH   2  17
ATOM     17  C   UNL     1       8.230   9.567  17.881  0.00  0.00    +0.000 C 
BRANCH  17  18
ATOM     18  S   UNL     1       9.140  10.330  19.254  0.00  0.00    +0.000 S 
BRANCH  18  19
ATOM     19  C   UNL     1       9.909  11.664  18.455  0.00  0.00    +0.000 A 
ATOM     20  N   UNL     1      10.832  11.546  17.518  0.00  0.00    +0.000 NA
ATOM     21  N   UNL     1      11.111  12.831  17.091  0.00  0.00    +0.000 NA
ATOM     22  C   UNL     1      10.357  13.647  17.807  0.00  0.00    +0.000 A 
ATOM     23  O   UNL     1       9.565  12.961  18.693  0.00  0.00    +0.000 OA
BRANCH  22  24
ATOM     24  C   UNL     1      10.342  15.071  17.677  0.00  0.00    +0.000 A 
ATOM     25  C   UNL     1      11.305  15.910  17.135  0.00  0.00    +0.000 A 
ATOM     26  C   UNL     1      10.832  17.239  17.265  0.00  0.00    +0.000 A 
ATOM     27  C   UNL     1       9.598  17.142  17.857  0.00  0.00    +0.000 A 
ATOM     28  O   UNL     1       9.291  15.845  18.107  0.00  0.00    +0.000 OA
ENDBRANCH  22  24
ENDBRANCH  18  19
ENDBRANCH  17  18
ENDBRANCH   2  17
TORSDOF 5
ENDMDL
MODEL 4
REMARK VINA RESULT:      -7.8      5.554      7.865
REMARK  Name = 
REMARK  5 active torsions:
REMARK  status: ('A' for Active; 'I' for Inactive)
REMARK    1  A    between atoms: C_2  and  C_3
REMARK    2  A    between atoms: C_3  and  S_4
REMARK    3  A    between atoms: S_4  and  C_5
REMARK    4  A    between atoms: C_8  and  C_9
REMARK    5  A    between atoms: C_16  and  C_18
REMARK                            x       y       z     vdW  Elec       q    Type
REMARK                         _______ _______ _______ _____ _____    ______ ____
ROOT
ATOM      1  O   UNL     1       2.398   8.176  17.607  0.00  0.00    +0.000 OA
ATOM      2  C   UNL     1       2.556   7.660  18.720  0.00  0.00    +0.000 C 
ATOM      3  N   UNL     1       3.444   6.641  19.004  0.00  0.00    +0.000 N 
ATOM      4  C   UNL     1       4.137   5.973  18.011  0.00  0.00    +0.000 C 
ATOM      5  O   UNL     1       4.223   6.399  16.860  0.00  0.00    +0.000 OA
ATOM      6  H   UNL     1       3.490   6.271  19.945  0.00  0.00    +0.000 HD
ENDROOT
BRANCH   4   7
ATOM      7  C   UNL     1       4.917   4.700  18.447  0.00  0.00    +0.000 C 
ATOM      8  C   UNL     1       4.768   3.630  17.359  0.00  0.00    +0.000 C 
ATOM      9  O   UNL     1       3.401   3.211  17.217  0.00  0.00    +0.000 OA
ATOM     10  C   UNL     1       2.716   3.234  18.402  0.00  0.00    +0.000 A 
ATOM     11  C   UNL     1       1.349   2.982  18.345  0.00  0.00    +0.000 A 
ATOM     12  C   UNL     1       0.608   2.926  19.525  0.00  0.00    +0.000 A 
ATOM     13  C   UNL     1       1.253   3.052  20.756  0.00  0.00    +0.000 A 
ATOM     14  C   UNL     1       2.611   3.369  20.811  0.00  0.00    +0.000 A 
ATOM     15  C   UNL     1       3.315   3.548  19.626  0.00  0.00    +0.000 A 
ATOM     16  O   UNL     1       4.557   4.130  19.708  0.00  0.00    +0.000 OA
ENDBRANCH   4   7
BRANCH   2  17
ATOM     17  C   UNL     1       1.781   8.202  19.897  0.00  0.00    +0.000 C 
BRANCH  17  18
ATOM     18  S   UNL     1       0.824   9.672  19.429  0.00  0.00    +0.000 S 
BRANCH  18  19
ATOM     19  C   UNL     1       0.195  10.174  20.966  0.00  0.00    +0.000 A 
ATOM     20  N   UNL     1       0.534   9.642  22.125  0.00  0.00    +0.000 NA
ATOM     21  N   UNL     1      -0.122  10.381  23.093  0.00  0.00    +0.000 NA
ATOM     22  C   UNL     1      -0.831  11.300  22.460  0.00  0.00    +0.000 A 
ATOM     23  O   UNL     1      -0.668  11.220  21.099  0.00  0.00    +0.000 OA
BRANCH  22  24
ATOM     24  C   UNL     1      -1.660  12.275  23.098  0.00  0.00    +0.000 A 
ATOM     25  C   UNL     1      -3.004  12.198  23.431  0.00  0.00    +0.000 A 
ATOM     26  C   UNL     1      -3.368  13.433  24.022  0.00  0.00    +0.000 A 
ATOM     27  C   UNL     1      -2.224  14.191  24.040  0.00  0.00    +0.000 A 
ATOM     28  O   UNL     1      -1.190  13.506  23.491  0.00  0.00    +0.000 OA
ENDBRANCH  22  24
ENDBRANCH  18  19
ENDBRANCH  17  18
ENDBRANCH   2  17
TORSDOF 5
ENDMDL
MODEL 5
REMARK VINA RESULT:      -7.6      4.755      6.410
REMARK  Name = 
REMARK  5 active torsions:
REMARK  status: ('A' for Active; 'I' for Inactive)
REMARK    1  A    between atoms: C_2  and  C_3
REMARK    2  A    between atoms: C_3  and  S_4
REMARK    3  A    between atoms: S_4  and  C_5
REMARK    4  A    between atoms: C_8  and  C_9
REMARK    5  A    between atoms: C_16  and  C_18
REMARK                            x       y       z     vdW  Elec       q    Type
REMARK                         _______ _______ _______ _____ _____    ______ ____
ROOT
ATOM      1  O   UNL     1       2.023   7.612  19.986  0.00  0.00    +0.000 OA
ATOM      2  C   UNL     1       2.353   7.631  18.793  0.00  0.00    +0.000 C 
ATOM      3  N   UNL     1       2.725   6.524  18.054  0.00  0.00    +0.000 N 
ATOM      4  C   UNL     1       2.927   5.287  18.637  0.00  0.00    +0.000 C 
ATOM      5  O   UNL     1       2.541   5.017  19.774  0.00  0.00    +0.000 OA
ATOM      6  H   UNL     1       2.995   6.643  17.087  0.00  0.00    +0.000 HD
ENDROOT
BRANCH   4   7
ATOM      7  C   UNL     1       3.568   4.193  17.736  0.00  0.00    +0.000 C 
ATOM      8  C   UNL     1       4.294   3.179  18.627  0.00  0.00    +0.000 C 
ATOM      9  O   UNL     1       5.391   3.787  19.329  0.00  0.00    +0.000 OA
ATOM     10  C   UNL     1       5.996   4.780  18.606  0.00  0.00    +0.000 A 
ATOM     11  C   UNL     1       6.975   5.525  19.254  0.00  0.00    +0.000 A 
ATOM     12  C   UNL     1       7.673   6.506  18.551  0.00  0.00    +0.000 A 
ATOM     13  C   UNL     1       7.435   6.686  17.187  0.00  0.00    +0.000 A 
ATOM     14  C   UNL     1       6.408   5.985  16.554  0.00  0.00    +0.000 A 
ATOM     15  C   UNL     1       5.633   5.100  17.294  0.00  0.00    +0.000 A 
ATOM     16  O   UNL     1       4.468   4.647  16.722  0.00  0.00    +0.000 OA
ENDBRANCH   4   7
BRANCH   2  17
ATOM     17  C   UNL     1       2.299   8.937  18.037  0.00  0.00    +0.000 C 
BRANCH  17  18
ATOM     18  S   UNL     1       0.654   9.696  18.159  0.00  0.00    +0.000 S 
BRANCH  18  19
ATOM     19  C   UNL     1       0.898  10.833  19.446  0.00  0.00    +0.000 A 
ATOM     20  N   UNL     1       0.597  10.610  20.711  0.00  0.00    +0.000 NA
ATOM     21  N   UNL     1       1.026  11.724  21.410  0.00  0.00    +0.000 NA
ATOM     22  C   UNL     1       1.540  12.560  20.524  0.00  0.00    +0.000 A 
ATOM     23  O   UNL     1       1.489  12.046  19.252  0.00  0.00    +0.000 OA
BRANCH  22  24
ATOM     24  C   UNL     1       2.098  13.839  20.835  0.00  0.00    +0.000 A 
ATOM     25  C   UNL     1       2.722  14.749  19.994  0.00  0.00    +0.000 A 
ATOM     26  C   UNL     1       3.124  15.853  20.785  0.00  0.00    +0.000 A 
ATOM     27  C   UNL     1       2.706  15.571  22.062  0.00  0.00    +0.000 A 
ATOM     28  O   UNL     1       2.086  14.365  22.104  0.00  0.00    +0.000 OA
ENDBRANCH  22  24
ENDBRANCH  18  19
ENDBRANCH  17  18
ENDBRANCH   2  17
TORSDOF 5
ENDMDL
MODEL 6
REMARK VINA RESULT:      -7.5      4.378      5.911
REMARK  Name = 
REMARK  5 active torsions:
REMARK  status: ('A' for Active; 'I' for Inactive)
REMARK    1  A    between atoms: C_2  and  C_3
REMARK    2  A    between atoms: C_3  and  S_4
REMARK    3  A    between atoms: S_4  and  C_5
REMARK    4  A    between atoms: C_8  and  C_9
REMARK    5  A    between atoms: C_16  and  C_18
REMARK                            x       y       z     vdW  Elec       q    Type
REMARK                         _______ _______ _______ _____ _____    ______ ____
ROOT
ATOM      1  O   UNL     1       2.051   7.757  20.016  0.00  0.00    +0.000 OA
ATOM      2  C   UNL     1       2.274   7.712  18.800  0.00  0.00    +0.000 C 
ATOM      3  N   UNL     1       2.615   6.573  18.097  0.00  0.00    +0.000 N 
ATOM      4  C   UNL     1       2.908   5.379  18.730  0.00  0.00    +0.000 C 
ATOM      5  O   UNL     1       2.633   5.169  19.911  0.00  0.00    +0.000 OA
ATOM      6  H   UNL     1       2.796   6.639  17.103  0.00  0.00    +0.000 HD
ENDROOT
BRANCH   4   7
ATOM      7  C   UNL     1       3.503   4.250  17.841  0.00  0.00    +0.000 C 
ATOM      8  C   UNL     1       4.230   3.243  18.738  0.00  0.00    +0.000 C 
ATOM      9  O   UNL     1       5.356   3.843  19.397  0.00  0.00    +0.000 OA
ATOM     10  C   UNL     1       5.964   4.805  18.635  0.00  0.00    +0.000 A 
ATOM     11  C   UNL     1       6.975   5.543  19.240  0.00  0.00    +0.000 A 
ATOM     12  C   UNL     1       7.676   6.492  18.496  0.00  0.00    +0.000 A 
ATOM     13  C   UNL     1       7.407   6.644  17.135  0.00  0.00    +0.000 A 
ATOM     14  C   UNL     1       6.350   5.951  16.545  0.00  0.00    +0.000 A 
ATOM     15  C   UNL     1       5.575   5.101  17.325  0.00  0.00    +0.000 A 
ATOM     16  O   UNL     1       4.387   4.660  16.794  0.00  0.00    +0.000 OA
ENDBRANCH   4   7
BRANCH   2  17
ATOM     17  C   UNL     1       2.111   8.967  17.977  0.00  0.00    +0.000 C 
BRANCH  17  18
ATOM     18  S   UNL     1       0.591   9.851  18.426  0.00  0.00    +0.000 S 
BRANCH  18  19
ATOM     19  C   UNL     1       1.232  11.307  19.116  0.00  0.00    +0.000 A 
ATOM     20  N   UNL     1       1.114  11.652  20.384  0.00  0.00    +0.000 NA
ATOM     21  N   UNL     1       1.834  12.824  20.531  0.00  0.00    +0.000 NA
ATOM     22  C   UNL     1       2.326  13.126  19.342  0.00  0.00    +0.000 A 
ATOM     23  O   UNL     1       1.979  12.193  18.397  0.00  0.00    +0.000 OA
BRANCH  22  24
ATOM     24  C   UNL     1       3.136  14.270  19.059  0.00  0.00    +0.000 A 
ATOM     25  C   UNL     1       3.223  15.013  17.891  0.00  0.00    +0.000 A 
ATOM     26  C   UNL     1       4.187  16.029  18.104  0.00  0.00    +0.000 A 
ATOM     27  C   UNL     1       4.620  15.869  19.396  0.00  0.00    +0.000 A 
ATOM     28  O   UNL     1       3.994  14.818  19.982  0.00  0.00    +0.000 OA
ENDBRANCH  22  24
ENDBRANCH  18  19
ENDBRANCH  17  18
ENDBRANCH   2  17
TORSDOF 5
ENDMDL
MODEL 7
REMARK VINA RESULT:      -7.5      5.368      8.826
REMARK  Name = 
REMARK  5 active torsions:
REMARK  status: ('A' for Active; 'I' for Inactive)
REMARK    1  A    between atoms: C_2  and  C_3
REMARK    2  A    between atoms: C_3  and  S_4
REMARK    3  A    between atoms: S_4  and  C_5
REMARK    4  A    between atoms: C_8  and  C_9
REMARK    5  A    between atoms: C_16  and  C_18
REMARK                            x       y       z     vdW  Elec       q    Type
REMARK                         _______ _______ _______ _____ _____    ______ ____
ROOT
ATOM      1  O   UNL     1       1.984   7.354  20.837  0.00  0.00    +0.000 OA
ATOM      2  C   UNL     1       2.109   7.406  19.607  0.00  0.00    +0.000 C 
ATOM      3  N   UNL     1       2.387   6.327  18.791  0.00  0.00    +0.000 N 
ATOM      4  C   UNL     1       2.724   5.087  19.301  0.00  0.00    +0.000 C 
ATOM      5  O   UNL     1       2.542   4.783  20.480  0.00  0.00    +0.000 OA
ATOM      6  H   UNL     1       2.488   6.473  17.794  0.00  0.00    +0.000 HD
ENDROOT
BRANCH   4   7
ATOM      7  C   UNL     1       3.239   4.033  18.280  0.00  0.00    +0.000 C 
ATOM      8  C   UNL     1       4.139   3.031  19.013  0.00  0.00    +0.000 C 
ATOM      9  O   UNL     1       5.317   3.666  19.534  0.00  0.00    +0.000 OA
ATOM     10  C   UNL     1       5.758   4.693  18.744  0.00  0.00    +0.000 A 
ATOM     11  C   UNL     1       6.808   5.461  19.236  0.00  0.00    +0.000 A 
ATOM     12  C   UNL     1       7.345   6.480  18.449  0.00  0.00    +0.000 A 
ATOM     13  C   UNL     1       6.875   6.674  17.149  0.00  0.00    +0.000 A 
ATOM     14  C   UNL     1       5.779   5.948  16.681  0.00  0.00    +0.000 A 
ATOM     15  C   UNL     1       5.170   5.022  17.519  0.00  0.00    +0.000 A 
ATOM     16  O   UNL     1       3.941   4.537  17.141  0.00  0.00    +0.000 OA
ENDBRANCH   4   7
BRANCH   2  17
ATOM     17  C   UNL     1       1.888   8.723  18.903  0.00  0.00    +0.000 C 
BRANCH  17  18
ATOM     18  S   UNL     1       0.869   9.839  19.908  0.00  0.00    +0.000 S 
BRANCH  18  19
ATOM     19  C   UNL     1      -0.440  10.178  18.822  0.00  0.00    +0.000 A 
ATOM     20  N   UNL     1      -0.489   9.790  17.562  0.00  0.00    +0.000 NA
ATOM     21  N   UNL     1      -1.726  10.187  17.086  0.00  0.00    +0.000 NA
ATOM     22  C   UNL     1      -2.339  10.806  18.079  0.00  0.00    +0.000 A 
ATOM     23  O   UNL     1      -1.570  10.831  19.216  0.00  0.00    +0.000 OA
BRANCH  22  24
ATOM     24  C   UNL     1      -3.650  11.373  18.003  0.00  0.00    +0.000 A 
ATOM     25  C   UNL     1      -4.479  11.516  16.899  0.00  0.00    +0.000 A 
ATOM     26  C   UNL     1      -5.661  12.162  17.336  0.00  0.00    +0.000 A 
ATOM     27  C   UNL     1      -5.503  12.360  18.685  0.00  0.00    +0.000 A 
ATOM     28  O   UNL     1      -4.301  11.888  19.098  0.00  0.00    +0.000 OA
ENDBRANCH  22  24
ENDBRANCH  18  19
ENDBRANCH  17  18
ENDBRANCH   2  17
TORSDOF 5
ENDMDL
MODEL 8
REMARK VINA RESULT:      -7.5      4.515      7.651
REMARK  Name = 
REMARK  5 active torsions:
REMARK  status: ('A' for Active; 'I' for Inactive)
REMARK    1  A    between atoms: C_2  and  C_3
REMARK    2  A    between atoms: C_3  and  S_4
REMARK    3  A    between atoms: S_4  and  C_5
REMARK    4  A    between atoms: C_8  and  C_9
REMARK    5  A    between atoms: C_16  and  C_18
REMARK                            x       y       z     vdW  Elec       q    Type
REMARK                         _______ _______ _______ _____ _____    ______ ____
ROOT
ATOM      1  O   UNL     1       2.899   4.277  20.103  0.00  0.00    +0.000 OA
ATOM      2  C   UNL     1       3.306   5.392  19.755  0.00  0.00    +0.000 C 
ATOM      3  N   UNL     1       4.547   5.649  19.207  0.00  0.00    +0.000 N 
ATOM      4  C   UNL     1       5.538   4.686  19.147  0.00  0.00    +0.000 C 
ATOM      5  O   UNL     1       5.311   3.489  19.322  0.00  0.00    +0.000 OA
ATOM      6  H   UNL     1       4.796   6.601  18.968  0.00  0.00    +0.000 HD
ENDROOT
BRANCH   4   7
ATOM      7  C   UNL     1       6.954   5.172  18.725  0.00  0.00    +0.000 C 
ATOM      8  C   UNL     1       6.879   6.659  18.358  0.00  0.00    +0.000 C 
ATOM      9  O   UNL     1       6.043   6.876  17.211  0.00  0.00    +0.000 OA
ATOM     10  C   UNL     1       6.096   5.843  16.314  0.00  0.00    +0.000 A 
ATOM     11  C   UNL     1       5.214   5.894  15.240  0.00  0.00    +0.000 A 
ATOM     12  C   UNL     1       5.265   4.906  14.258  0.00  0.00    +0.000 A 
ATOM     13  C   UNL     1       6.246   3.914  14.322  0.00  0.00    +0.000 A 
ATOM     14  C   UNL     1       7.087   3.826  15.431  0.00  0.00    +0.000 A 
ATOM     15  C   UNL     1       6.944   4.742  16.467  0.00  0.00    +0.000 A 
ATOM     16  O   UNL     1       7.579   4.463  17.653  0.00  0.00    +0.000 OA
ENDBRANCH   4   7
BRANCH   2  17
ATOM     17  C   UNL     1       2.379   6.579  19.867  0.00  0.00    +0.000 C 
BRANCH  17  18
ATOM     18  S   UNL     1       2.561   7.688  18.442  0.00  0.00    +0.000 S 
BRANCH  18  19
ATOM     19  C   UNL     1       1.442   8.950  18.846  0.00  0.00    +0.000 A 
ATOM     20  N   UNL     1       0.807   9.700  17.965  0.00  0.00    +0.000 NA
ATOM     21  N   UNL     1      -0.044  10.512  18.694  0.00  0.00    +0.000 NA
ATOM     22  C   UNL     1       0.143  10.217  19.970  0.00  0.00    +0.000 A 
ATOM     23  O   UNL     1       1.078   9.225  20.130  0.00  0.00    +0.000 OA
BRANCH  22  24
ATOM     24  C   UNL     1      -0.546  10.835  21.060  0.00  0.00    +0.000 A 
ATOM     25  C   UNL     1      -1.208  12.053  21.099  0.00  0.00    +0.000 A 
ATOM     26  C   UNL     1      -1.703  12.227  22.415  0.00  0.00    +0.000 A 
ATOM     27  C   UNL     1      -1.337  11.097  23.104  0.00  0.00    +0.000 A 
ATOM     28  O   UNL     1      -0.645  10.252  22.301  0.00  0.00    +0.000 OA
ENDBRANCH  22  24
ENDBRANCH  18  19
ENDBRANCH  17  18
ENDBRANCH   2  17
TORSDOF 5
ENDMDL
MODEL 9
REMARK VINA RESULT:      -7.5      4.387      7.806
REMARK  Name = 
REMARK  5 active torsions:
REMARK  status: ('A' for Active; 'I' for Inactive)
REMARK    1  A    between atoms: C_2  and  C_3
REMARK    2  A    between atoms: C_3  and  S_4
REMARK    3  A    between atoms: S_4  and  C_5
REMARK    4  A    between atoms: C_8  and  C_9
REMARK    5  A    between atoms: C_16  and  C_18
REMARK                            x       y       z     vdW  Elec       q    Type
REMARK                         _______ _______ _______ _____ _____    ______ ____
ROOT
ATOM      1  O   UNL     1       2.561   4.636  19.032  0.00  0.00    +0.000 OA
ATOM      2  C   UNL     1       2.912   5.713  18.533  0.00  0.00    +0.000 C 
ATOM      3  N   UNL     1       3.646   5.848  17.371  0.00  0.00    +0.000 N 
ATOM      4  C   UNL     1       4.214   4.762  16.731  0.00  0.00    +0.000 C 
ATOM      5  O   UNL     1       3.894   3.600  16.983  0.00  0.00    +0.000 OA
ATOM      6  H   UNL     1       3.900   6.773  17.049  0.00  0.00    +0.000 HD
ENDROOT
BRANCH   4   7
ATOM      7  C   UNL     1       5.206   5.078  15.575  0.00  0.00    +0.000 C 
ATOM      8  C   UNL     1       6.242   3.952  15.487  0.00  0.00    +0.000 C 
ATOM      9  O   UNL     1       7.048   3.886  16.675  0.00  0.00    +0.000 OA
ATOM     10  C   UNL     1       7.263   5.115  17.237  0.00  0.00    +0.000 A 
ATOM     11  C   UNL     1       7.911   5.142  18.467  0.00  0.00    +0.000 A 
ATOM     12  C   UNL     1       8.218   6.366  19.059  0.00  0.00    +0.000 A 
ATOM     13  C   UNL     1       7.937   7.554  18.383  0.00  0.00    +0.000 A 
ATOM     14  C   UNL     1       7.228   7.529  17.181  0.00  0.00    +0.000 A 
ATOM     15  C   UNL     1       6.816   6.308  16.661  0.00  0.00    +0.000 A 
ATOM     16  O   UNL     1       5.890   6.332  15.645  0.00  0.00    +0.000 OA
ENDBRANCH   4   7
BRANCH   2  17
ATOM     17  C   UNL     1       2.468   7.001  19.182  0.00  0.00    +0.000 C 
BRANCH  17  18
ATOM     18  S   UNL     1       2.498   8.376  17.998  0.00  0.00    +0.000 S 
BRANCH  18  19
ATOM     19  C   UNL     1       1.210   9.372  18.596  0.00  0.00    +0.000 A 
ATOM     20  N   UNL     1       0.271   9.915  17.845  0.00  0.00    +0.000 NA
ATOM     21  N   UNL     1      -0.597  10.549  18.716  0.00  0.00    +0.000 NA
ATOM     22  C   UNL     1      -0.120  10.367  19.935  0.00  0.00    +0.000 A 
ATOM     23  O   UNL     1       1.031   9.620  19.924  0.00  0.00    +0.000 OA
BRANCH  22  24
ATOM     24  C   UNL     1      -0.724  10.866  21.131  0.00  0.00    +0.000 A 
ATOM     25  C   UNL     1      -1.422  12.048  21.331  0.00  0.00    +0.000 A 
ATOM     26  C   UNL     1      -1.796  12.096  22.697  0.00  0.00    +0.000 A 
ATOM     27  C   UNL     1      -1.328  10.932  23.254  0.00  0.00    +0.000 A 
ATOM     28  O   UNL     1      -0.686  10.183  22.323  0.00  0.00    +0.000 OA
ENDBRANCH  22  24
ENDBRANCH  18  19
ENDBRANCH  17  18
ENDBRANCH   2  17
TORSDOF 5
ENDMDL
