MODEL 1
REMARK VINA RESULT:      -7.6      0.000      0.000
REMARK  Name = 
REMARK  4 active torsions:
REMARK  status: ('A' for Active; 'I' for Inactive)
REMARK    1  A    between atoms: C_2  and  C_3
REMARK    2  A    between atoms: N_9  and  C_10
REMARK    3  A    between atoms: C_10  and  C_11
REMARK    4  A    between atoms: C_10  and  C_17
REMARK                            x       y       z     vdW  Elec       q    Type
REMARK                         _______ _______ _______ _____ _____    ______ ____
ROOT
ATOM      1  C   UNL     1       5.940   4.870  16.352  0.00  0.00    +0.000 C 
ENDROOT
BRANCH   1   7
ATOM      2  O   UNL     1       2.762   5.061  21.175  0.00  0.00    +0.000 OA
ATOM      3  C   UNL     1       2.933   4.150  20.371  0.00  0.00    +0.000 C 
ATOM      4  N   UNL     1       3.597   4.331  19.164  0.00  0.00    +0.000 N 
ATOM      5  C   UNL     1       3.898   3.288  18.179  0.00  0.00    +0.000 C 
ATOM      6  C   UNL     1       3.736   3.803  16.733  0.00  0.00    +0.000 C 
ATOM      7  N   UNL     1       4.459   5.069  16.422  0.00  0.00    +0.000 NA
ATOM      8  C   UNL     1       4.029   6.061  17.442  0.00  0.00    +0.000 C 
ATOM      9  C   UNL     1       4.219   5.632  18.904  0.00  0.00    +0.000 C 
BRANCH   3  10
ATOM     10  C   UNL     1       2.374   2.799  20.677  0.00  0.00    +0.000 C 
ATOM     11  C   UNL     1       1.291   2.625  21.719  0.00  0.00    +0.000 C 
ATOM     12  C   UNL     1       0.951   2.484  20.263  0.00  0.00    +0.000 C 
ENDBRANCH   3  10
ENDBRANCH   1   7
BRANCH   1  13
ATOM     13  C   UNL     1       6.759   5.994  16.999  0.00  0.00    +0.000 A 
ATOM     14  C   UNL     1       6.687   7.334  16.579  0.00  0.00    +0.000 A 
ATOM     15  C   UNL     1       7.365   8.337  17.281  0.00  0.00    +0.000 A 
ATOM     16  C   UNL     1       8.158   8.004  18.377  0.00  0.00    +0.000 A 
ATOM     17 CL   UNL     1       8.945   9.245  19.271  0.00  0.00    +0.000 Cl
ATOM     18  C   UNL     1       8.304   6.677  18.763  0.00  0.00    +0.000 A 
ATOM     19  C   UNL     1       7.609   5.689  18.071  0.00  0.00    +0.000 A 
ATOM     20  F   UNL     1       7.745   4.415  18.470  0.00  0.00    +0.000 F 
ENDBRANCH   1  13
BRANCH   1  21
ATOM     21  C   UNL     1       6.406   4.623  14.920  0.00  0.00    +0.000 A 
ATOM     22  C   UNL     1       5.744   3.710  14.088  0.00  0.00    +0.000 A 
ATOM     23  C   UNL     1       6.131   3.568  12.758  0.00  0.00    +0.000 A 
ATOM     24  C   UNL     1       7.187   4.335  12.298  0.00  0.00    +0.000 A 
ATOM     25  N   UNL     1       7.863   5.214  13.068  0.00  0.00    +0.000 NA
ATOM     26  C   UNL     1       7.459   5.340  14.355  0.00  0.00    +0.000 A 
ENDBRANCH   1  21
TORSDOF 4
ENDMDL
MODEL 2
REMARK VINA RESULT:      -7.6      3.519      6.998
REMARK  Name = 
REMARK  4 active torsions:
REMARK  status: ('A' for Active; 'I' for Inactive)
REMARK    1  A    between atoms: C_2  and  C_3
REMARK    2  A    between atoms: N_9  and  C_10
REMARK    3  A    between atoms: C_10  and  C_11
REMARK    4  A    between atoms: C_10  and  C_17
REMARK                            x       y       z     vdW  Elec       q    Type
REMARK                         _______ _______ _______ _____ _____    ______ ____
ROOT
ATOM      1  C   UNL     1       2.626   5.866  19.176  0.00  0.00    +0.000 C 
ENDROOT
BRANCH   1   7
ATOM      2  O   UNL     1       5.927   6.388  14.462  0.00  0.00    +0.000 OA
ATOM      3  C   UNL     1       5.608   5.392  15.103  0.00  0.00    +0.000 C 
ATOM      4  N   UNL     1       4.944   5.465  16.321  0.00  0.00    +0.000 N 
ATOM      5  C   UNL     1       4.473   4.329  17.117  0.00  0.00    +0.000 C 
ATOM      6  C   UNL     1       4.667   4.571  18.629  0.00  0.00    +0.000 C 
ATOM      7  N   UNL     1       4.122   5.858  19.145  0.00  0.00    +0.000 NA
ATOM      8  C   UNL     1       4.714   6.932  18.305  0.00  0.00    +0.000 C 
ATOM      9  C   UNL     1       4.505   6.781  16.792  0.00  0.00    +0.000 C 
BRANCH   3  10
ATOM     10  C   UNL     1       5.978   4.043  14.577  0.00  0.00    +0.000 C 
ATOM     11  C   UNL     1       5.360   3.512  13.302  0.00  0.00    +0.000 C 
ATOM     12  C   UNL     1       6.795   3.952  13.304  0.00  0.00    +0.000 C 
ENDBRANCH   3  10
ENDBRANCH   1   7
BRANCH   1  13
ATOM     13  C   UNL     1       2.012   7.178  19.679  0.00  0.00    +0.000 A 
ATOM     14  C   UNL     1       1.816   7.461  21.042  0.00  0.00    +0.000 A 
ATOM     15  C   UNL     1       1.362   8.720  21.449  0.00  0.00    +0.000 A 
ATOM     16  C   UNL     1       1.055   9.690  20.497  0.00  0.00    +0.000 A 
ATOM     17 CL   UNL     1       0.550  11.254  21.003  0.00  0.00    +0.000 Cl
ATOM     18  C   UNL     1       1.168   9.407  19.141  0.00  0.00    +0.000 A 
ATOM     19  C   UNL     1       1.640   8.158  18.746  0.00  0.00    +0.000 A 
ATOM     20  F   UNL     1       1.764   7.908  17.434  0.00  0.00    +0.000 F 
ENDBRANCH   1  13
BRANCH   1  21
ATOM     21  C   UNL     1       2.075   4.680  19.963  0.00  0.00    +0.000 A 
ATOM     22  C   UNL     1       1.200   3.759  19.371  0.00  0.00    +0.000 A 
ATOM     23  C   UNL     1       0.783   2.636  20.081  0.00  0.00    +0.000 A 
ATOM     24  C   UNL     1       1.242   2.472  21.377  0.00  0.00    +0.000 A 
ATOM     25  N   UNL     1       2.073   3.340  21.991  0.00  0.00    +0.000 NA
ATOM     26  C   UNL     1       2.471   4.419  21.274  0.00  0.00    +0.000 A 
ENDBRANCH   1  21
TORSDOF 4
ENDMDL
MODEL 3
REMARK VINA RESULT:      -7.6      3.441      6.816
REMARK  Name = 
REMARK  4 active torsions:
REMARK  status: ('A' for Active; 'I' for Inactive)
REMARK    1  A    between atoms: C_2  and  C_3
REMARK    2  A    between atoms: N_9  and  C_10
REMARK    3  A    between atoms: C_10  and  C_11
REMARK    4  A    between atoms: C_10  and  C_17
REMARK                            x       y       z     vdW  Elec       q    Type
REMARK                         _______ _______ _______ _____ _____    ______ ____
ROOT
ATOM      1  C   UNL     1       2.767   5.702  18.455  0.00  0.00    +0.000 C 
ENDROOT
BRANCH   1   7
ATOM      2  O   UNL     1       6.518   6.206  14.088  0.00  0.00    +0.000 OA
ATOM      3  C   UNL     1       6.065   5.205  14.637  0.00  0.00    +0.000 C 
ATOM      4  N   UNL     1       5.300   5.267  15.795  0.00  0.00    +0.000 N 
ATOM      5  C   UNL     1       4.672   4.132  16.475  0.00  0.00    +0.000 C 
ATOM      6  C   UNL     1       4.743   4.275  18.011  0.00  0.00    +0.000 C 
ATOM      7  N   UNL     1       4.254   5.573  18.555  0.00  0.00    +0.000 NA
ATOM      8  C   UNL     1       5.002   6.639  17.837  0.00  0.00    +0.000 C 
ATOM      9  C   UNL     1       4.921   6.587  16.304  0.00  0.00    +0.000 C 
BRANCH   3  10
ATOM     10  C   UNL     1       6.377   3.861  14.064  0.00  0.00    +0.000 C 
ATOM     11  C   UNL     1       5.566   3.300  12.916  0.00  0.00    +0.000 C 
ATOM     12  C   UNL     1       6.968   3.778  12.671  0.00  0.00    +0.000 C 
ENDBRANCH   3  10
ENDBRANCH   1   7
BRANCH   1  13
ATOM     13  C   UNL     1       2.190   6.927  19.173  0.00  0.00    +0.000 A 
ATOM     14  C   UNL     1       1.903   6.946  20.549  0.00  0.00    +0.000 A 
ATOM     15  C   UNL     1       1.490   8.128  21.174  0.00  0.00    +0.000 A 
ATOM     16  C   UNL     1       1.314   9.287  20.422  0.00  0.00    +0.000 A 
ATOM     17 CL   UNL     1       0.860  10.751  21.203  0.00  0.00    +0.000 Cl
ATOM     18  C   UNL     1       1.518   9.273  19.048  0.00  0.00    +0.000 A 
ATOM     19  C   UNL     1       1.949   8.098  18.439  0.00  0.00    +0.000 A 
ATOM     20  F   UNL     1       2.162   8.107  17.114  0.00  0.00    +0.000 F 
ENDBRANCH   1  13
BRANCH   1  21
ATOM     21  C   UNL     1       2.062   4.429  18.916  0.00  0.00    +0.000 A 
ATOM     22  C   UNL     1       2.081   4.034  20.261  0.00  0.00    +0.000 A 
ATOM     23  C   UNL     1       1.356   2.919  20.673  0.00  0.00    +0.000 A 
ATOM     24  C   UNL     1       0.639   2.216  19.720  0.00  0.00    +0.000 A 
ATOM     25  N   UNL     1       0.604   2.551  18.413  0.00  0.00    +0.000 NA
ATOM     26  C   UNL     1       1.310   3.646  18.042  0.00  0.00    +0.000 A 
ENDBRANCH   1  21
TORSDOF 4
ENDMDL
MODEL 4
REMARK VINA RESULT:      -7.3      3.311      6.671
REMARK  Name = 
REMARK  4 active torsions:
REMARK  status: ('A' for Active; 'I' for Inactive)
REMARK    1  A    between atoms: C_2  and  C_3
REMARK    2  A    between atoms: N_9  and  C_10
REMARK    3  A    between atoms: C_10  and  C_11
REMARK    4  A    between atoms: C_10  and  C_17
REMARK                            x       y       z     vdW  Elec       q    Type
REMARK                         _______ _______ _______ _____ _____    ______ ____
ROOT
ATOM      1  C   UNL     1       3.093   5.459  18.046  0.00  0.00    +0.000 C 
ENDROOT
BRANCH   1   7
ATOM      2  O   UNL     1       6.753   6.072  13.616  0.00  0.00    +0.000 OA
ATOM      3  C   UNL     1       6.317   5.059  14.152  0.00  0.00    +0.000 C 
ATOM      4  N   UNL     1       5.574   5.093  15.326  0.00  0.00    +0.000 N 
ATOM      5  C   UNL     1       4.966   3.941  15.996  0.00  0.00    +0.000 C 
ATOM      6  C   UNL     1       5.068   4.053  17.532  0.00  0.00    +0.000 C 
ATOM      7  N   UNL     1       4.583   5.337  18.113  0.00  0.00    +0.000 NA
ATOM      8  C   UNL     1       5.311   6.421  17.402  0.00  0.00    +0.000 C 
ATOM      9  C   UNL     1       5.200   6.400  15.871  0.00  0.00    +0.000 C 
BRANCH   3  10
ATOM     10  C   UNL     1       6.623   3.728  13.546  0.00  0.00    +0.000 C 
ATOM     11  C   UNL     1       5.748   3.153  12.454  0.00  0.00    +0.000 C 
ATOM     12  C   UNL     1       7.115   3.672  12.113  0.00  0.00    +0.000 C 
ENDBRANCH   3  10
ENDBRANCH   1   7
BRANCH   1  13
ATOM     13  C   UNL     1       2.548   6.806  18.535  0.00  0.00    +0.000 A 
ATOM     14  C   UNL     1       2.287   7.886  17.674  0.00  0.00    +0.000 A 
ATOM     15  C   UNL     1       1.679   9.050  18.156  0.00  0.00    +0.000 A 
ATOM     16  C   UNL     1       1.372   9.164  19.511  0.00  0.00    +0.000 A 
ATOM     17 CL   UNL     1       0.574  10.574  20.090  0.00  0.00    +0.000 Cl
ATOM     18  C   UNL     1       1.690   8.140  20.393  0.00  0.00    +0.000 A 
ATOM     19  C   UNL     1       2.276   6.977  19.900  0.00  0.00    +0.000 A 
ATOM     20  F   UNL     1       2.558   5.989  20.763  0.00  0.00    +0.000 F 
ENDBRANCH   1  13
BRANCH   1  21
ATOM     21  C   UNL     1       2.402   4.307  18.770  0.00  0.00    +0.000 A 
ATOM     22  C   UNL     1       1.172   3.803  18.325  0.00  0.00    +0.000 A 
ATOM     23  C   UNL     1       0.606   2.693  18.946  0.00  0.00    +0.000 A 
ATOM     24  C   UNL     1       1.282   2.123  20.012  0.00  0.00    +0.000 A 
ATOM     25  N   UNL     1       2.460   2.584  20.483  0.00  0.00    +0.000 NA
ATOM     26  C   UNL     1       2.993   3.659  19.853  0.00  0.00    +0.000 A 
ENDBRANCH   1  21
TORSDOF 4
ENDMDL
MODEL 5
REMARK VINA RESULT:      -7.2      0.943      1.334
REMARK  Name = 
REMARK  4 active torsions:
REMARK  status: ('A' for Active; 'I' for Inactive)
REMARK    1  A    between atoms: C_2  and  C_3
REMARK    2  A    between atoms: N_9  and  C_10
REMARK    3  A    between atoms: C_10  and  C_11
REMARK    4  A    between atoms: C_10  and  C_17
REMARK                            x       y       z     vdW  Elec       q    Type
REMARK                         _______ _______ _______ _____ _____    ______ ____
ROOT
ATOM      1  C   UNL     1       5.811   4.632  16.464  0.00  0.00    +0.000 C 
ENDROOT
BRANCH   1   7
ATOM      2  O   UNL     1       2.634   5.058  21.273  0.00  0.00    +0.000 OA
ATOM      3  C   UNL     1       2.865   4.090  20.555  0.00  0.00    +0.000 C 
ATOM      4  N   UNL     1       3.514   4.201  19.332  0.00  0.00    +0.000 N 
ATOM      5  C   UNL     1       3.882   3.094  18.446  0.00  0.00    +0.000 C 
ATOM      6  C   UNL     1       3.684   3.460  16.960  0.00  0.00    +0.000 C 
ATOM      7  N   UNL     1       4.320   4.737  16.527  0.00  0.00    +0.000 NA
ATOM      8  C   UNL     1       3.826   5.788  17.454  0.00  0.00    +0.000 C 
ATOM      9  C   UNL     1       4.047   5.511  18.948  0.00  0.00    +0.000 C 
BRANCH   3  10
ATOM     10  C   UNL     1       2.399   2.738  20.990  0.00  0.00    +0.000 C 
ATOM     11  C   UNL     1       1.246   2.590  21.959  0.00  0.00    +0.000 C 
ATOM     12  C   UNL     1       1.050   2.240  20.512  0.00  0.00    +0.000 C 
ENDBRANCH   3  10
ENDBRANCH   1   7
BRANCH   1  13
ATOM     13  C   UNL     1       6.554   5.773  17.169  0.00  0.00    +0.000 A 
ATOM     14  C   UNL     1       7.452   5.563  18.230  0.00  0.00    +0.000 A 
ATOM     15  C   UNL     1       8.192   6.628  18.756  0.00  0.00    +0.000 A 
ATOM     16  C   UNL     1       8.005   7.917  18.261  0.00  0.00    +0.000 A 
ATOM     17 CL   UNL     1       8.956   9.213  18.873  0.00  0.00    +0.000 Cl
ATOM     18  C   UNL     1       7.067   8.159  17.265  0.00  0.00    +0.000 A 
ATOM     19  C   UNL     1       6.351   7.090  16.733  0.00  0.00    +0.000 A 
ATOM     20  F   UNL     1       5.465   7.339  15.757  0.00  0.00    +0.000 F 
ENDBRANCH   1  13
BRANCH   1  21
ATOM     21  C   UNL     1       6.303   4.478  15.028  0.00  0.00    +0.000 A 
ATOM     22  C   UNL     1       5.628   3.658  14.113  0.00  0.00    +0.000 A 
ATOM     23  C   UNL     1       6.043   3.604  12.785  0.00  0.00    +0.000 A 
ATOM     24  C   UNL     1       7.137   4.364  12.409  0.00  0.00    +0.000 A 
ATOM     25  N   UNL     1       7.826   5.154  13.259  0.00  0.00    +0.000 NA
ATOM     26  C   UNL     1       7.395   5.195  14.543  0.00  0.00    +0.000 A 
ENDBRANCH   1  21
TORSDOF 4
ENDMDL
MODEL 6
REMARK VINA RESULT:      -7.2      8.896     11.369
REMARK  Name = 
REMARK  4 active torsions:
REMARK  status: ('A' for Active; 'I' for Inactive)
REMARK    1  A    between atoms: C_2  and  C_3
REMARK    2  A    between atoms: N_9  and  C_10
REMARK    3  A    between atoms: C_10  and  C_11
REMARK    4  A    between atoms: C_10  and  C_17
REMARK                            x       y       z     vdW  Elec       q    Type
REMARK                         _______ _______ _______ _____ _____    ______ ____
ROOT
ATOM      1  C   UNL     1       0.210  11.814  19.808  0.00  0.00    +0.000 C 
ENDROOT
BRANCH   1   7
ATOM      2  O   UNL     1       4.342  15.382  17.913  0.00  0.00    +0.000 OA
ATOM      3  C   UNL     1       4.158  14.897  19.025  0.00  0.00    +0.000 C 
ATOM      4  N   UNL     1       3.008  14.191  19.354  0.00  0.00    +0.000 N 
ATOM      5  C   UNL     1       2.738  13.530  20.633  0.00  0.00    +0.000 C 
ATOM      6  C   UNL     1       1.260  13.681  21.054  0.00  0.00    +0.000 C 
ATOM      7  N   UNL     1       0.259  13.295  20.020  0.00  0.00    +0.000 NA
ATOM      8  C   UNL     1       0.596  14.070  18.798  0.00  0.00    +0.000 C 
ATOM      9  C   UNL     1       2.038  13.915  18.292  0.00  0.00    +0.000 C 
BRANCH   3  10
ATOM     10  C   UNL     1       5.192  15.102  20.085  0.00  0.00    +0.000 C 
ATOM     11  C   UNL     1       6.242  16.182  19.944  0.00  0.00    +0.000 C 
ATOM     12  C   UNL     1       5.129  16.355  20.936  0.00  0.00    +0.000 C 
ENDBRANCH   3  10
ENDBRANCH   1   7
BRANCH   1  13
ATOM     13  C   UNL     1      -0.898  11.350  18.854  0.00  0.00    +0.000 A 
ATOM     14  C   UNL     1      -2.145  11.992  18.757  0.00  0.00    +0.000 A 
ATOM     15  C   UNL     1      -3.073  11.599  17.786  0.00  0.00    +0.000 A 
ATOM     16  C   UNL     1      -2.783  10.532  16.938  0.00  0.00    +0.000 A 
ATOM     17 CL   UNL     1      -3.903  10.089  15.710  0.00  0.00    +0.000 Cl
ATOM     18  C   UNL     1      -1.588   9.835  17.067  0.00  0.00    +0.000 A 
ATOM     19  C   UNL     1      -0.662  10.246  18.022  0.00  0.00    +0.000 A 
ATOM     20  F   UNL     1       0.495   9.576  18.119  0.00  0.00    +0.000 F 
ENDBRANCH   1  13
BRANCH   1  21
ATOM     21  C   UNL     1       0.128  11.060  21.132  0.00  0.00    +0.000 A 
ATOM     22  C   UNL     1      -0.942  11.258  22.016  0.00  0.00    +0.000 A 
ATOM     23  C   UNL     1      -1.041  10.492  23.175  0.00  0.00    +0.000 A 
ATOM     24  C   UNL     1      -0.054   9.555  23.428  0.00  0.00    +0.000 A 
ATOM     25  N   UNL     1       1.000   9.342  22.613  0.00  0.00    +0.000 NA
ATOM     26  C   UNL     1       1.067  10.094  21.488  0.00  0.00    +0.000 A 
ENDBRANCH   1  21
TORSDOF 4
ENDMDL
MODEL 7
REMARK VINA RESULT:      -7.2      8.329     10.364
REMARK  Name = 
REMARK  4 active torsions:
REMARK  status: ('A' for Active; 'I' for Inactive)
REMARK    1  A    between atoms: C_2  and  C_3
REMARK    2  A    between atoms: N_9  and  C_10
REMARK    3  A    between atoms: C_10  and  C_11
REMARK    4  A    between atoms: C_10  and  C_17
REMARK                            x       y       z     vdW  Elec       q    Type
REMARK                         _______ _______ _______ _____ _____    ______ ____
ROOT
ATOM      1  C   UNL     1      -0.173  11.169  19.135  0.00  0.00    +0.000 C 
ENDROOT
BRANCH   1   7
ATOM      2  O   UNL     1       2.683  14.951  22.442  0.00  0.00    +0.000 OA
ATOM      3  C   UNL     1       1.572  15.026  21.927  0.00  0.00    +0.000 C 
ATOM      4  N   UNL     1       1.105  14.090  21.012  0.00  0.00    +0.000 N 
ATOM      5  C   UNL     1      -0.225  14.070  20.399  0.00  0.00    +0.000 C 
ATOM      6  C   UNL     1      -0.167  13.638  18.919  0.00  0.00    +0.000 C 
ATOM      7  N   UNL     1       0.574  12.372  18.651  0.00  0.00    +0.000 NA
ATOM      8  C   UNL     1       1.919  12.535  19.262  0.00  0.00    +0.000 C 
ATOM      9  C   UNL     1       1.930  12.907  20.752  0.00  0.00    +0.000 C 
BRANCH   3  10
ATOM     10  C   UNL     1       0.693  16.187  22.262  0.00  0.00    +0.000 C 
ATOM     11  C   UNL     1       1.253  17.405  22.965  0.00  0.00    +0.000 C 
ATOM     12  C   UNL     1       0.885  17.490  21.512  0.00  0.00    +0.000 C 
ENDBRANCH   3  10
ENDBRANCH   1   7
BRANCH   1  13
ATOM     13  C   UNL     1       0.641   9.870  19.111  0.00  0.00    +0.000 A 
ATOM     14  C   UNL     1       1.291   9.393  17.959  0.00  0.00    +0.000 A 
ATOM     15  C   UNL     1       2.116   8.266  18.023  0.00  0.00    +0.000 A 
ATOM     16  C   UNL     1       2.261   7.577  19.226  0.00  0.00    +0.000 A 
ATOM     17 CL   UNL     1       3.320   6.225  19.314  0.00  0.00    +0.000 Cl
ATOM     18  C   UNL     1       1.568   7.986  20.359  0.00  0.00    +0.000 A 
ATOM     19  C   UNL     1       0.765   9.121  20.290  0.00  0.00    +0.000 A 
ATOM     20  F   UNL     1       0.120   9.514  21.399  0.00  0.00    +0.000 F 
ENDBRANCH   1  13
BRANCH   1  21
ATOM     21  C   UNL     1      -1.492  10.990  18.389  0.00  0.00    +0.000 A 
ATOM     22  C   UNL     1      -1.599  10.110  17.303  0.00  0.00    +0.000 A 
ATOM     23  C   UNL     1      -2.834   9.896  16.696  0.00  0.00    +0.000 A 
ATOM     24  C   UNL     1      -3.932  10.583  17.185  0.00  0.00    +0.000 A 
ATOM     25  N   UNL     1      -3.872  11.450  18.217  0.00  0.00    +0.000 NA
ATOM     26  C   UNL     1      -2.661  11.632  18.795  0.00  0.00    +0.000 A 
ENDBRANCH   1  21
TORSDOF 4
ENDMDL
MODEL 8
REMARK VINA RESULT:      -7.1      3.154      4.977
REMARK  Name = 
REMARK  4 active torsions:
REMARK  status: ('A' for Active; 'I' for Inactive)
REMARK    1  A    between atoms: C_2  and  C_3
REMARK    2  A    between atoms: N_9  and  C_10
REMARK    3  A    between atoms: C_10  and  C_11
REMARK    4  A    between atoms: C_10  and  C_17
REMARK                            x       y       z     vdW  Elec       q    Type
REMARK                         _______ _______ _______ _____ _____    ______ ____
ROOT
ATOM      1  C   UNL     1       4.172   4.731  18.076  0.00  0.00    +0.000 C 
ENDROOT
BRANCH   1   7
ATOM      2  O   UNL     1       1.670   9.609  19.906  0.00  0.00    +0.000 OA
ATOM      3  C   UNL     1       1.590   8.463  20.338  0.00  0.00    +0.000 C 
ATOM      4  N   UNL     1       2.126   7.370  19.668  0.00  0.00    +0.000 N 
ATOM      5  C   UNL     1       2.129   5.984  20.143  0.00  0.00    +0.000 C 
ATOM      6  C   UNL     1       1.884   4.985  18.992  0.00  0.00    +0.000 C 
ATOM      7  N   UNL     1       2.764   5.154  17.801  0.00  0.00    +0.000 NA
ATOM      8  C   UNL     1       2.630   6.572  17.377  0.00  0.00    +0.000 C 
ATOM      9  C   UNL     1       2.920   7.619  18.462  0.00  0.00    +0.000 C 
BRANCH   3  10
ATOM     10  C   UNL     1       0.856   8.221  21.617  0.00  0.00    +0.000 C 
ATOM     11  C   UNL     1       0.380   9.377  22.469  0.00  0.00    +0.000 C 
ATOM     12  C   UNL     1      -0.617   8.568  21.692  0.00  0.00    +0.000 C 
ENDBRANCH   3  10
ENDBRANCH   1   7
BRANCH   1  13
ATOM     13  C   UNL     1       5.095   4.776  16.853  0.00  0.00    +0.000 A 
ATOM     14  C   UNL     1       4.737   4.244  15.602  0.00  0.00    +0.000 A 
ATOM     15  C   UNL     1       5.568   4.418  14.490  0.00  0.00    +0.000 A 
ATOM     16  C   UNL     1       6.785   5.082  14.629  0.00  0.00    +0.000 A 
ATOM     17 CL   UNL     1       7.779   5.342  13.249  0.00  0.00    +0.000 Cl
ATOM     18  C   UNL     1       7.194   5.550  15.872  0.00  0.00    +0.000 A 
ATOM     19  C   UNL     1       6.351   5.390  16.968  0.00  0.00    +0.000 A 
ATOM     20  F   UNL     1       6.752   5.866  18.156  0.00  0.00    +0.000 F 
ENDBRANCH   1  13
BRANCH   1  21
ATOM     21  C   UNL     1       4.227   3.358  18.739  0.00  0.00    +0.000 A 
ATOM     22  C   UNL     1       3.654   2.233  18.129  0.00  0.00    +0.000 A 
ATOM     23  C   UNL     1       3.795   0.975  18.709  0.00  0.00    +0.000 A 
ATOM     24  C   UNL     1       4.496   0.878  19.898  0.00  0.00    +0.000 A 
ATOM     25  N   UNL     1       5.051   1.934  20.528  0.00  0.00    +0.000 NA
ATOM     26  C   UNL     1       4.907   3.145  19.937  0.00  0.00    +0.000 A 
ENDBRANCH   1  21
TORSDOF 4
ENDMDL
MODEL 9
REMARK VINA RESULT:      -6.8     10.677     13.284
REMARK  Name = 
REMARK  4 active torsions:
REMARK  status: ('A' for Active; 'I' for Inactive)
REMARK    1  A    between atoms: C_2  and  C_3
REMARK    2  A    between atoms: N_9  and  C_10
REMARK    3  A    between atoms: C_10  and  C_11
REMARK    4  A    between atoms: C_10  and  C_17
REMARK                            x       y       z     vdW  Elec       q    Type
REMARK                         _______ _______ _______ _____ _____    ______ ____
ROOT
ATOM      1  C   UNL     1      -1.739  12.790  21.677  0.00  0.00    +0.000 C 
ENDROOT
BRANCH   1   7
ATOM      2  O   UNL     1       0.162  17.302  18.608  0.00  0.00    +0.000 OA
ATOM      3  C   UNL     1       0.720  16.250  18.905  0.00  0.00    +0.000 C 
ATOM      4  N   UNL     1       0.175  15.340  19.802  0.00  0.00    +0.000 N 
ATOM      5  C   UNL     1       0.742  14.038  20.162  0.00  0.00    +0.000 C 
ATOM      6  C   UNL     1       0.555  13.727  21.662  0.00  0.00    +0.000 C 
ATOM      7  N   UNL     1      -0.837  13.874  22.175  0.00  0.00    +0.000 NA
ATOM      8  C   UNL     1      -1.279  15.245  21.807  0.00  0.00    +0.000 C 
ATOM      9  C   UNL     1      -1.173  15.597  20.316  0.00  0.00    +0.000 C 
BRANCH   3  10
ATOM     10  C   UNL     1       2.056  15.946  18.309  0.00  0.00    +0.000 C 
ATOM     11  C   UNL     1       2.774  16.966  17.454  0.00  0.00    +0.000 C 
ATOM     12  C   UNL     1       3.275  16.674  18.838  0.00  0.00    +0.000 C 
ENDBRANCH   3  10
ENDBRANCH   1   7
BRANCH   1  13
ATOM     13  C   UNL     1      -3.121  12.765  22.341  0.00  0.00    +0.000 A 
ATOM     14  C   UNL     1      -3.303  12.730  23.734  0.00  0.00    +0.000 A 
ATOM     15  C   UNL     1      -4.584  12.828  24.288  0.00  0.00    +0.000 A 
ATOM     16  C   UNL     1      -5.697  12.913  23.454  0.00  0.00    +0.000 A 
ATOM     17 CL   UNL     1      -7.265  13.090  24.138  0.00  0.00    +0.000 Cl
ATOM     18  C   UNL     1      -5.547  12.873  22.073  0.00  0.00    +0.000 A 
ATOM     19  C   UNL     1      -4.267  12.795  21.532  0.00  0.00    +0.000 A 
ATOM     20  F   UNL     1      -4.139  12.779  20.197  0.00  0.00    +0.000 F 
ENDBRANCH   1  13
BRANCH   1  21
ATOM     21  C   UNL     1      -1.074  11.419  21.771  0.00  0.00    +0.000 A 
ATOM     22  C   UNL     1      -0.857  10.801  23.011  0.00  0.00    +0.000 A 
ATOM     23  C   UNL     1      -0.332   9.512  23.066  0.00  0.00    +0.000 A 
ATOM     24  C   UNL     1      -0.022   8.880  21.874  0.00  0.00    +0.000 A 
ATOM     25  N   UNL     1      -0.200   9.443  20.661  0.00  0.00    +0.000 NA
ATOM     26  C   UNL     1      -0.722  10.693  20.636  0.00  0.00    +0.000 A 
ENDBRANCH   1  21
TORSDOF 4
ENDMDL
