MODEL 1
REMARK VINA RESULT:      -6.0      0.000      0.000
REMARK  Name = 
REMARK  6 active torsions:
REMARK  status: ('A' for Active; 'I' for Inactive)
REMARK    1  A    between atoms: C_1  and  C_2
REMARK    2  A    between atoms: C_2  and  O_3
REMARK    3  A    between atoms: O_3  and  C_4
REMARK    4  A    between atoms: C_10  and  C_12
REMARK    5  A    between atoms: C_17  and  S_18
REMARK    6  A    between atoms: S_18  and  C_19
REMARK                            x       y       z     vdW  Elec       q    Type
REMARK                         _______ _______ _______ _____ _____    ______ ____
ROOT
ATOM      1  C   UNL     1       3.358   5.095  17.815  0.00  0.00    +0.000 C 
ATOM      2  C   UNL     1       3.748   5.840  19.114  0.00  0.00    +0.000 C 
ATOM      3  C   UNL     1       2.627   6.874  18.745  0.00  0.00    +0.000 C 
ATOM      4  C   UNL     1       3.048   7.938  17.732  0.00  0.00    +0.000 C 
ATOM      5  C   UNL     1       2.260   9.164  18.116  0.00  0.00    +0.000 C 
ATOM      6  N   UNL     1       1.485   8.839  19.300  0.00  0.00    +0.000 N 
ATOM      7  C   UNL     1       0.569   9.668  19.966  0.00  0.00    +0.000 C 
ATOM      8  O   UNL     1       0.005   9.337  21.007  0.00  0.00    +0.000 OA
ATOM      9  C   UNL     1       1.887   7.565  19.884  0.00  0.00    +0.000 C 
ATOM     10  C   UNL     1       1.930   5.668  18.046  0.00  0.00    +0.000 C 
ENDROOT
BRANCH   7  11
ATOM     11  C   UNL     1       0.330  11.059  19.465  0.00  0.00    +0.000 A 
ATOM     12  C   UNL     1       1.051  12.095  20.083  0.00  0.00    +0.000 A 
ATOM     13  C   UNL     1       0.982  13.416  19.642  0.00  0.00    +0.000 A 
ATOM     14  C   UNL     1       0.077  13.757  18.654  0.00  0.00    +0.000 A 
ATOM     15  C   UNL     1      -0.754  12.777  18.117  0.00  0.00    +0.000 A 
ATOM     16  C   UNL     1      -0.633  11.430  18.515  0.00  0.00    +0.000 A 
BRANCH  16  17
ATOM     17  S   UNL     1      -1.742  10.282  17.732  0.00  0.00    +0.000 S 
ATOM     18  C   UNL     1      -2.627  11.255  16.545  0.00  0.00    +0.000 C 
ATOM     19  O   UNL     1      -0.910   9.355  16.967  0.00  0.00    +0.000 OA
ATOM     20  O   UNL     1      -2.634   9.740  18.729  0.00  0.00    +0.000 OA
ENDBRANCH  16  17
ENDBRANCH   7  11
BRANCH   1  21
ATOM     21  O   UNL     1       3.475   3.662  17.799  0.00  0.00    +0.000 OA
BRANCH  21  23
ATOM     22  C   UNL     1       2.212   2.083  19.083  0.00  0.00    +0.000 C 
ATOM     23  C   UNL     1       2.221   2.983  17.870  0.00  0.00    +0.000 C 
ENDBRANCH  21  23
ENDBRANCH   1  21
TORSDOF 4
ENDMDL
MODEL 2
REMARK VINA RESULT:      -5.9      2.702      7.395
REMARK  Name = 
REMARK  6 active torsions:
REMARK  status: ('A' for Active; 'I' for Inactive)
REMARK    1  A    between atoms: C_1  and  C_2
REMARK    2  A    between atoms: C_2  and  O_3
REMARK    3  A    between atoms: O_3  and  C_4
REMARK    4  A    between atoms: C_10  and  C_12
REMARK    5  A    between atoms: C_17  and  S_18
REMARK    6  A    between atoms: S_18  and  C_19
REMARK                            x       y       z     vdW  Elec       q    Type
REMARK                         _______ _______ _______ _____ _____    ______ ____
ROOT
ATOM      1  C   UNL     1      -0.118  11.641  19.701  0.00  0.00    +0.000 C 
ATOM      2  C   UNL     1      -0.697  10.216  19.876  0.00  0.00    +0.000 C 
ATOM      3  C   UNL     1       0.717   9.691  19.443  0.00  0.00    +0.000 C 
ATOM      4  C   UNL     1       0.953   9.661  17.934  0.00  0.00    +0.000 C 
ATOM      5  C   UNL     1       1.870   8.486  17.713  0.00  0.00    +0.000 C 
ATOM      6  N   UNL     1       2.097   7.854  19.001  0.00  0.00    +0.000 N 
ATOM      7  C   UNL     1       2.931   6.758  19.270  0.00  0.00    +0.000 C 
ATOM      8  O   UNL     1       3.012   6.240  20.382  0.00  0.00    +0.000 OA
ATOM      9  C   UNL     1       1.200   8.369  20.028  0.00  0.00    +0.000 C 
ATOM     10  C   UNL     1       1.254  11.010  20.077  0.00  0.00    +0.000 C 
ENDROOT
BRANCH   7  11
ATOM     11  C   UNL     1       3.684   6.110  18.151  0.00  0.00    +0.000 A 
ATOM     12  C   UNL     1       4.456   6.948  17.327  0.00  0.00    +0.000 A 
ATOM     13  C   UNL     1       5.271   6.450  16.312  0.00  0.00    +0.000 A 
ATOM     14  C   UNL     1       5.227   5.102  16.004  0.00  0.00    +0.000 A 
ATOM     15  C   UNL     1       4.366   4.266  16.709  0.00  0.00    +0.000 A 
ATOM     16  C   UNL     1       3.595   4.759  17.781  0.00  0.00    +0.000 A 
BRANCH  16  17
ATOM     17  S   UNL     1       2.558   3.576  18.607  0.00  0.00    +0.000 S 
ATOM     18  C   UNL     1       2.676   2.111  17.618  0.00  0.00    +0.000 C 
ATOM     19  O   UNL     1       3.209   3.267  19.880  0.00  0.00    +0.000 OA
ATOM     20  O   UNL     1       1.204   4.078  18.634  0.00  0.00    +0.000 OA
ENDBRANCH  16  17
ENDBRANCH   7  11
BRANCH   1  21
ATOM     21  O   UNL     1      -0.603  12.678  20.572  0.00  0.00    +0.000 OA
BRANCH  21  23
ATOM     22  C   UNL     1      -1.364  12.335  22.816  0.00  0.00    +0.000 C 
ATOM     23  C   UNL     1      -0.163  12.543  21.923  0.00  0.00    +0.000 C 
ENDBRANCH  21  23
ENDBRANCH   1  21
TORSDOF 4
ENDMDL
MODEL 3
REMARK VINA RESULT:      -5.8      2.652      7.509
REMARK  Name = 
REMARK  6 active torsions:
REMARK  status: ('A' for Active; 'I' for Inactive)
REMARK    1  A    between atoms: C_1  and  C_2
REMARK    2  A    between atoms: C_2  and  O_3
REMARK    3  A    between atoms: O_3  and  C_4
REMARK    4  A    between atoms: C_10  and  C_12
REMARK    5  A    between atoms: C_17  and  S_18
REMARK    6  A    between atoms: S_18  and  C_19
REMARK                            x       y       z     vdW  Elec       q    Type
REMARK                         _______ _______ _______ _____ _____    ______ ____
ROOT
ATOM      1  C   UNL     1       0.032  11.624  19.777  0.00  0.00    +0.000 C 
ATOM      2  C   UNL     1      -0.570  10.208  19.952  0.00  0.00    +0.000 C 
ATOM      3  C   UNL     1       0.827   9.661  19.493  0.00  0.00    +0.000 C 
ATOM      4  C   UNL     1       1.038   9.638  17.979  0.00  0.00    +0.000 C 
ATOM      5  C   UNL     1       1.930   8.448  17.735  0.00  0.00    +0.000 C 
ATOM      6  N   UNL     1       2.166   7.803  19.015  0.00  0.00    +0.000 N 
ATOM      7  C   UNL     1       2.985   6.690  19.263  0.00  0.00    +0.000 C 
ATOM      8  O   UNL     1       3.074   6.163  20.369  0.00  0.00    +0.000 OA
ATOM      9  C   UNL     1       1.295   8.326  20.060  0.00  0.00    +0.000 C 
ATOM     10  C   UNL     1       1.398  10.965  20.127  0.00  0.00    +0.000 C 
ENDROOT
BRANCH   7  11
ATOM     11  C   UNL     1       3.708   6.036  18.127  0.00  0.00    +0.000 A 
ATOM     12  C   UNL     1       4.477   6.868  17.293  0.00  0.00    +0.000 A 
ATOM     13  C   UNL     1       5.266   6.363  16.261  0.00  0.00    +0.000 A 
ATOM     14  C   UNL     1       5.196   5.018  15.947  0.00  0.00    +0.000 A 
ATOM     15  C   UNL     1       4.336   4.190  16.664  0.00  0.00    +0.000 A 
ATOM     16  C   UNL     1       3.592   4.690  17.752  0.00  0.00    +0.000 A 
BRANCH  16  17
ATOM     17  S   UNL     1       2.553   3.517  18.591  0.00  0.00    +0.000 S 
ATOM     18  C   UNL     1       2.644   2.051  17.601  0.00  0.00    +0.000 C 
ATOM     19  O   UNL     1       3.216   3.202  19.856  0.00  0.00    +0.000 OA
ATOM     20  O   UNL     1       1.205   4.034  18.633  0.00  0.00    +0.000 OA
ENDBRANCH  16  17
ENDBRANCH   7  11
BRANCH   1  21
ATOM     21  O   UNL     1      -0.420  12.662  20.664  0.00  0.00    +0.000 OA
BRANCH  21  23
ATOM     22  C   UNL     1      -0.281  13.882  18.608  0.00  0.00    +0.000 C 
ATOM     23  C   UNL     1      -0.891  13.828  19.988  0.00  0.00    +0.000 C 
ENDBRANCH  21  23
ENDBRANCH   1  21
TORSDOF 4
ENDMDL
MODEL 4
REMARK VINA RESULT:      -5.8      0.845      1.088
REMARK  Name = 
REMARK  6 active torsions:
REMARK  status: ('A' for Active; 'I' for Inactive)
REMARK    1  A    between atoms: C_1  and  C_2
REMARK    2  A    between atoms: C_2  and  O_3
REMARK    3  A    between atoms: O_3  and  C_4
REMARK    4  A    between atoms: C_10  and  C_12
REMARK    5  A    between atoms: C_17  and  S_18
REMARK    6  A    between atoms: S_18  and  C_19
REMARK                            x       y       z     vdW  Elec       q    Type
REMARK                         _______ _______ _______ _____ _____    ______ ____
ROOT
ATOM      1  C   UNL     1       3.334   5.179  17.927  0.00  0.00    +0.000 C 
ATOM      2  C   UNL     1       3.721   5.955  19.209  0.00  0.00    +0.000 C 
ATOM      3  C   UNL     1       2.585   6.966  18.827  0.00  0.00    +0.000 C 
ATOM      4  C   UNL     1       2.985   8.015  17.790  0.00  0.00    +0.000 C 
ATOM      5  C   UNL     1       2.183   9.238  18.154  0.00  0.00    +0.000 C 
ATOM      6  N   UNL     1       1.419   8.926  19.349  0.00  0.00    +0.000 N 
ATOM      7  C   UNL     1       0.496   9.756  20.004  0.00  0.00    +0.000 C 
ATOM      8  O   UNL     1      -0.057   9.439  21.054  0.00  0.00    +0.000 OA
ATOM      9  C   UNL     1       1.842   7.670  19.956  0.00  0.00    +0.000 C 
ATOM     10  C   UNL     1       1.900   5.737  18.156  0.00  0.00    +0.000 C 
ENDROOT
BRANCH   7  11
ATOM     11  C   UNL     1       0.235  11.133  19.476  0.00  0.00    +0.000 A 
ATOM     12  C   UNL     1       0.927  12.195  20.086  0.00  0.00    +0.000 A 
ATOM     13  C   UNL     1       0.837  13.506  19.623  0.00  0.00    +0.000 A 
ATOM     14  C   UNL     1      -0.062  13.812  18.617  0.00  0.00    +0.000 A 
ATOM     15  C   UNL     1      -0.865  12.806  18.086  0.00  0.00    +0.000 A 
ATOM     16  C   UNL     1      -0.722  11.469  18.508  0.00  0.00    +0.000 A 
BRANCH  16  17
ATOM     17  S   UNL     1      -1.797  10.286  17.730  0.00  0.00    +0.000 S 
ATOM     18  C   UNL     1      -2.750  11.237  16.580  0.00  0.00    +0.000 C 
ATOM     19  O   UNL     1      -0.942   9.409  16.931  0.00  0.00    +0.000 OA
ATOM     20  O   UNL     1      -2.642   9.688  18.737  0.00  0.00    +0.000 OA
ENDBRANCH  16  17
ENDBRANCH   7  11
BRANCH   1  21
ATOM     21  O   UNL     1       3.470   3.747  17.940  0.00  0.00    +0.000 OA
BRANCH  21  23
ATOM     22  C   UNL     1       4.987   4.409  16.209  0.00  0.00    +0.000 C 
ATOM     23  C   UNL     1       4.362   3.247  16.944  0.00  0.00    +0.000 C 
ENDBRANCH  21  23
ENDBRANCH   1  21
TORSDOF 4
ENDMDL
MODEL 5
REMARK VINA RESULT:      -5.7      5.316      7.327
REMARK  Name = 
REMARK  6 active torsions:
REMARK  status: ('A' for Active; 'I' for Inactive)
REMARK    1  A    between atoms: C_1  and  C_2
REMARK    2  A    between atoms: C_2  and  O_3
REMARK    3  A    between atoms: O_3  and  C_4
REMARK    4  A    between atoms: C_10  and  C_12
REMARK    5  A    between atoms: C_17  and  S_18
REMARK    6  A    between atoms: S_18  and  C_19
REMARK                            x       y       z     vdW  Elec       q    Type
REMARK                         _______ _______ _______ _____ _____    ______ ____
ROOT
ATOM      1  C   UNL     1       6.566   4.499  13.233  0.00  0.00    +0.000 C 
ATOM      2  C   UNL     1       7.392   4.968  14.455  0.00  0.00    +0.000 C 
ATOM      3  C   UNL     1       6.095   4.725  15.304  0.00  0.00    +0.000 C 
ATOM      4  C   UNL     1       5.079   5.866  15.259  0.00  0.00    +0.000 C 
ATOM      5  C   UNL     1       4.421   5.846  16.615  0.00  0.00    +0.000 C 
ATOM      6  N   UNL     1       5.056   4.801  17.399  0.00  0.00    +0.000 N 
ATOM      7  C   UNL     1       4.720   4.399  18.701  0.00  0.00    +0.000 C 
ATOM      8  O   UNL     1       5.358   3.550  19.321  0.00  0.00    +0.000 OA
ATOM      9  C   UNL     1       6.259   4.290  16.756  0.00  0.00    +0.000 C 
ATOM     10  C   UNL     1       5.767   3.630  14.245  0.00  0.00    +0.000 C 
ENDROOT
BRANCH   7  11
ATOM     11  C   UNL     1       3.608   5.091  19.426  0.00  0.00    +0.000 A 
ATOM     12  C   UNL     1       3.566   6.494  19.345  0.00  0.00    +0.000 A 
ATOM     13  C   UNL     1       2.528   7.241  19.900  0.00  0.00    +0.000 A 
ATOM     14  C   UNL     1       1.573   6.608  20.674  0.00  0.00    +0.000 A 
ATOM     15  C   UNL     1       1.665   5.236  20.891  0.00  0.00    +0.000 A 
ATOM     16  C   UNL     1       2.675   4.472  20.271  0.00  0.00    +0.000 A 
BRANCH  16  17
ATOM     17  S   UNL     1       2.659   2.729  20.617  0.00  0.00    +0.000 S 
ATOM     18  C   UNL     1       1.238   2.491  21.648  0.00  0.00    +0.000 C 
ATOM     19  O   UNL     1       2.369   2.056  19.353  0.00  0.00    +0.000 OA
ATOM     20  O   UNL     1       3.874   2.381  21.317  0.00  0.00    +0.000 OA
ENDBRANCH  16  17
ENDBRANCH   7  11
BRANCH   1  21
ATOM     21  O   UNL     1       7.254   3.790  12.187  0.00  0.00    +0.000 OA
BRANCH  21  23
ATOM     22  C   UNL     1       7.470   1.830  10.828  0.00  0.00    +0.000 C 
ATOM     23  C   UNL     1       6.557   2.633  11.724  0.00  0.00    +0.000 C 
ENDBRANCH  21  23
ENDBRANCH   1  21
TORSDOF 4
ENDMDL
MODEL 6
REMARK VINA RESULT:      -5.6      4.362      7.956
REMARK  Name = 
REMARK  6 active torsions:
REMARK  status: ('A' for Active; 'I' for Inactive)
REMARK    1  A    between atoms: C_1  and  C_2
REMARK    2  A    between atoms: C_2  and  O_3
REMARK    3  A    between atoms: O_3  and  C_4
REMARK    4  A    between atoms: C_10  and  C_12
REMARK    5  A    between atoms: C_17  and  S_18
REMARK    6  A    between atoms: S_18  and  C_19
REMARK                            x       y       z     vdW  Elec       q    Type
REMARK                         _______ _______ _______ _____ _____    ______ ____
ROOT
ATOM      1  C   UNL     1       3.002  16.479  18.273  0.00  0.00    +0.000 C 
ATOM      2  C   UNL     1       3.313  15.069  17.713  0.00  0.00    +0.000 C 
ATOM      3  C   UNL     1       2.253  14.532  18.737  0.00  0.00    +0.000 C 
ATOM      4  C   UNL     1       2.780  14.338  20.159  0.00  0.00    +0.000 C 
ATOM      5  C   UNL     1       2.000  13.168  20.700  0.00  0.00    +0.000 C 
ATOM      6  N   UNL     1       1.128  12.690  19.640  0.00  0.00    +0.000 N 
ATOM      7  C   UNL     1       0.188  11.651  19.722  0.00  0.00    +0.000 C 
ATOM      8  O   UNL     1      -0.462  11.264  18.754  0.00  0.00    +0.000 OA
ATOM      9  C   UNL     1       1.449  13.296  18.354  0.00  0.00    +0.000 C 
ATOM     10  C   UNL     1       1.578  15.926  18.566  0.00  0.00    +0.000 C 
ENDROOT
BRANCH   7  11
ATOM     11  C   UNL     1       0.028  10.899  21.007  0.00  0.00    +0.000 A 
ATOM     12  C   UNL     1       0.791   9.728  21.163  0.00  0.00    +0.000 A 
ATOM     13  C   UNL     1       0.796   8.995  22.349  0.00  0.00    +0.000 A 
ATOM     14  C   UNL     1      -0.075   9.341  23.365  0.00  0.00    +0.000 A 
ATOM     15  C   UNL     1      -0.947  10.412  23.187  0.00  0.00    +0.000 A 
ATOM     16  C   UNL     1      -0.901  11.194  22.016  0.00  0.00    +0.000 A 
BRANCH  16  17
ATOM     17  S   UNL     1      -2.054  12.544  21.932  0.00  0.00    +0.000 S 
ATOM     18  C   UNL     1      -3.031  12.388  23.402  0.00  0.00    +0.000 C 
ATOM     19  O   UNL     1      -1.272  13.770  22.085  0.00  0.00    +0.000 OA
ATOM     20  O   UNL     1      -2.867  12.391  20.748  0.00  0.00    +0.000 OA
ENDBRANCH  16  17
ENDBRANCH   7  11
BRANCH   1  21
ATOM     21  O   UNL     1       3.079  17.595  17.369  0.00  0.00    +0.000 OA
BRANCH  21  23
ATOM     22  C   UNL     1       1.029  18.631  16.690  0.00  0.00    +0.000 C 
ATOM     23  C   UNL     1       2.070  17.586  16.360  0.00  0.00    +0.000 C 
ENDBRANCH  21  23
ENDBRANCH   1  21
TORSDOF 4
ENDMDL
MODEL 7
REMARK VINA RESULT:      -5.6      9.286     10.782
REMARK  Name = 
REMARK  6 active torsions:
REMARK  status: ('A' for Active; 'I' for Inactive)
REMARK    1  A    between atoms: C_1  and  C_2
REMARK    2  A    between atoms: C_2  and  O_3
REMARK    3  A    between atoms: O_3  and  C_4
REMARK    4  A    between atoms: C_10  and  C_12
REMARK    5  A    between atoms: C_17  and  S_18
REMARK    6  A    between atoms: S_18  and  C_19
REMARK                            x       y       z     vdW  Elec       q    Type
REMARK                         _______ _______ _______ _____ _____    ______ ____
ROOT
ATOM      1  C   UNL     1       5.840  12.730  25.587  0.00  0.00    +0.000 C 
ATOM      2  C   UNL     1       7.366  12.844  25.817  0.00  0.00    +0.000 C 
ATOM      3  C   UNL     1       7.496  12.974  24.259  0.00  0.00    +0.000 C 
ATOM      4  C   UNL     1       7.474  11.647  23.502  0.00  0.00    +0.000 C 
ATOM      5  C   UNL     1       8.361  11.873  22.306  0.00  0.00    +0.000 C 
ATOM      6  N   UNL     1       8.897  13.220  22.402  0.00  0.00    +0.000 N 
ATOM      7  C   UNL     1       9.727  13.868  21.473  0.00  0.00    +0.000 C 
ATOM      8  O   UNL     1      10.194  14.988  21.667  0.00  0.00    +0.000 OA
ATOM      9  C   UNL     1       8.634  13.821  23.703  0.00  0.00    +0.000 C 
ATOM     10  C   UNL     1       6.076  13.613  24.327  0.00  0.00    +0.000 C 
ENDROOT
BRANCH   7  11
ATOM     11  C   UNL     1      10.159  13.145  20.236  0.00  0.00    +0.000 A 
ATOM     12  C   UNL     1      11.333  12.376  20.320  0.00  0.00    +0.000 A 
ATOM     13  C   UNL     1      11.784  11.587  19.263  0.00  0.00    +0.000 A 
ATOM     14  C   UNL     1      11.141  11.656  18.040  0.00  0.00    +0.000 A 
ATOM     15  C   UNL     1      10.058  12.516  17.883  0.00  0.00    +0.000 A 
ATOM     16  C   UNL     1       9.561  13.260  18.972  0.00  0.00    +0.000 A 
BRANCH  16  17
ATOM     17  S   UNL     1       8.160  14.300  18.634  0.00  0.00    +0.000 S 
ATOM     18  C   UNL     1       8.862  15.851  18.143  0.00  0.00    +0.000 C 
ATOM     19  O   UNL     1       7.509  13.748  17.446  0.00  0.00    +0.000 OA
ATOM     20  O   UNL     1       7.380  14.441  19.841  0.00  0.00    +0.000 OA
ENDBRANCH  16  17
ENDBRANCH   7  11
BRANCH   1  21
ATOM     21  O   UNL     1       4.964  13.272  26.590  0.00  0.00    +0.000 OA
BRANCH  21  23
ATOM     22  C   UNL     1       4.379  11.038  27.221  0.00  0.00    +0.000 C 
ATOM     23  C   UNL     1       4.774  12.410  27.712  0.00  0.00    +0.000 C 
ENDBRANCH  21  23
ENDBRANCH   1  21
TORSDOF 4
ENDMDL
MODEL 8
REMARK VINA RESULT:      -5.6      2.631      7.533
REMARK  Name = 
REMARK  6 active torsions:
REMARK  status: ('A' for Active; 'I' for Inactive)
REMARK    1  A    between atoms: C_1  and  C_2
REMARK    2  A    between atoms: C_2  and  O_3
REMARK    3  A    between atoms: O_3  and  C_4
REMARK    4  A    between atoms: C_10  and  C_12
REMARK    5  A    between atoms: C_17  and  S_18
REMARK    6  A    between atoms: S_18  and  C_19
REMARK                            x       y       z     vdW  Elec       q    Type
REMARK                         _______ _______ _______ _____ _____    ______ ____
ROOT
ATOM      1  C   UNL     1       0.105  11.372  19.650  0.00  0.00    +0.000 C 
ATOM      2  C   UNL     1      -0.443   9.940  19.861  0.00  0.00    +0.000 C 
ATOM      3  C   UNL     1       0.959   9.433  19.373  0.00  0.00    +0.000 C 
ATOM      4  C   UNL     1       1.133   9.395  17.855  0.00  0.00    +0.000 C 
ATOM      5  C   UNL     1       2.059   8.232  17.605  0.00  0.00    +0.000 C 
ATOM      6  N   UNL     1       2.349   7.615  18.888  0.00  0.00    +0.000 N 
ATOM      7  C   UNL     1       3.212   6.535  19.131  0.00  0.00    +0.000 C 
ATOM      8  O   UNL     1       3.347   6.028  20.242  0.00  0.00    +0.000 OA
ATOM      9  C   UNL     1       1.488   8.124  19.947  0.00  0.00    +0.000 C 
ATOM     10  C   UNL     1       1.501  10.766  19.973  0.00  0.00    +0.000 C 
ENDROOT
BRANCH   7  11
ATOM     11  C   UNL     1       3.928   5.888  17.985  0.00  0.00    +0.000 A 
ATOM     12  C   UNL     1       4.853   6.678  17.281  0.00  0.00    +0.000 A 
ATOM     13  C   UNL     1       5.646   6.162  16.256  0.00  0.00    +0.000 A 
ATOM     14  C   UNL     1       5.431   4.868  15.817  0.00  0.00    +0.000 A 
ATOM     15  C   UNL     1       4.424   4.104  16.400  0.00  0.00    +0.000 A 
ATOM     16  C   UNL     1       3.671   4.604  17.483  0.00  0.00    +0.000 A 
BRANCH  16  17
ATOM     17  S   UNL     1       2.435   3.513  18.145  0.00  0.00    +0.000 S 
ATOM     18  C   UNL     1       3.126   2.926  19.667  0.00  0.00    +0.000 C 
ATOM     19  O   UNL     1       1.292   4.350  18.507  0.00  0.00    +0.000 OA
ATOM     20  O   UNL     1       2.223   2.427  17.216  0.00  0.00    +0.000 OA
ENDBRANCH  16  17
ENDBRANCH   7  11
BRANCH   1  21
ATOM     21  O   UNL     1      -0.359  12.408  20.533  0.00  0.00    +0.000 OA
BRANCH  21  23
ATOM     22  C   UNL     1       0.378  14.314  19.284  0.00  0.00    +0.000 C 
ATOM     23  C   UNL     1       0.498  13.548  20.581  0.00  0.00    +0.000 C 
ENDBRANCH  21  23
ENDBRANCH   1  21
TORSDOF 4
ENDMDL
MODEL 9
REMARK VINA RESULT:      -5.6      4.239      5.389
REMARK  Name = 
REMARK  6 active torsions:
REMARK  status: ('A' for Active; 'I' for Inactive)
REMARK    1  A    between atoms: C_1  and  C_2
REMARK    2  A    between atoms: C_2  and  O_3
REMARK    3  A    between atoms: O_3  and  C_4
REMARK    4  A    between atoms: C_10  and  C_12
REMARK    5  A    between atoms: C_17  and  S_18
REMARK    6  A    between atoms: S_18  and  C_19
REMARK                            x       y       z     vdW  Elec       q    Type
REMARK                         _______ _______ _______ _____ _____    ______ ____
ROOT
ATOM      1  C   UNL     1       1.165   8.753  21.094  0.00  0.00    +0.000 C 
ATOM      2  C   UNL     1       1.146   9.293  22.545  0.00  0.00    +0.000 C 
ATOM      3  C   UNL     1      -0.061  10.189  22.095  0.00  0.00    +0.000 C 
ATOM      4  C   UNL     1       0.334  11.477  21.373  0.00  0.00    +0.000 C 
ATOM      5  C   UNL     1      -0.734  12.470  21.751  0.00  0.00    +0.000 C 
ATOM      6  N   UNL     1      -1.646  11.811  22.670  0.00  0.00    +0.000 N 
ATOM      7  C   UNL     1      -2.816  12.346  23.231  0.00  0.00    +0.000 C 
ATOM      8  O   UNL     1      -3.494  11.741  24.058  0.00  0.00    +0.000 OA
ATOM      9  C   UNL     1      -1.126  10.530  23.130  0.00  0.00    +0.000 C 
ATOM     10  C   UNL     1      -0.364   9.041  21.085  0.00  0.00    +0.000 C 
ENDROOT
BRANCH   7  11
ATOM     11  C   UNL     1      -3.217  13.751  22.904  0.00  0.00    +0.000 A 
ATOM     12  C   UNL     1      -2.761  14.765  23.766  0.00  0.00    +0.000 A 
ATOM     13  C   UNL     1      -2.992  16.116  23.514  0.00  0.00    +0.000 A 
ATOM     14  C   UNL     1      -3.810  16.481  22.460  0.00  0.00    +0.000 A 
ATOM     15  C   UNL     1      -4.392  15.494  21.670  0.00  0.00    +0.000 A 
ATOM     16  C   UNL     1      -4.101  14.131  21.884  0.00  0.00    +0.000 A 
BRANCH  16  17
ATOM     17  S   UNL     1      -4.896  12.981  20.787  0.00  0.00    +0.000 S 
ATOM     18  C   UNL     1      -5.882  13.992  19.718  0.00  0.00    +0.000 C 
ATOM     19  O   UNL     1      -3.843  12.404  19.953  0.00  0.00    +0.000 OA
ATOM     20  O   UNL     1      -5.722  12.087  21.565  0.00  0.00    +0.000 OA
ENDBRANCH  16  17
ENDBRANCH   7  11
BRANCH   1  21
ATOM     21  O   UNL     1       1.557   7.385  20.889  0.00  0.00    +0.000 OA
BRANCH  21  23
ATOM     22  C   UNL     1       2.667   5.713  19.583  0.00  0.00    +0.000 C 
ATOM     23  C   UNL     1       2.282   7.170  19.679  0.00  0.00    +0.000 C 
ENDBRANCH  21  23
ENDBRANCH   1  21
TORSDOF 4
ENDMDL
