MODEL 1
REMARK VINA RESULT:      -5.6      0.000      0.000
REMARK  Name = 
REMARK  8 active torsions:
REMARK  status: ('A' for Active; 'I' for Inactive)
REMARK    1  A    between atoms: C_1  and  C_2
REMARK    2  A    between atoms: C_2  and  O_3
REMARK    3  A    between atoms: O_3  and  C_4
REMARK    4  A    between atoms: C_5  and  C_6
REMARK    5  A    between atoms: C_6  and  N_7
REMARK    6  A    between atoms: N_7  and  C_8
REMARK    7  A    between atoms: C_13  and  O_14
REMARK    8  A    between atoms: O_14  and  C_15
REMARK                            x       y       z     vdW  Elec       q    Type
REMARK                         _______ _______ _______ _____ _____    ______ ____
ROOT
ATOM      1  C   UNL     1       4.568   4.281  18.537  0.00  0.00    +0.000 A 
ATOM      2  C   UNL     1       3.906   3.914  17.338  0.00  0.00    +0.000 A 
ATOM      3  C   UNL     1       4.596   3.991  16.116  0.00  0.00    +0.000 A 
ATOM      4  C   UNL     1       5.913   4.426  16.083  0.00  0.00    +0.000 A 
ATOM      5 BR   UNL     1       6.830   4.515  14.432  0.00  0.00    +0.000 Br
ATOM      6  C   UNL     1       6.564   4.801  17.254  0.00  0.00    +0.000 A 
ATOM      7  C   UNL     1       5.896   4.754  18.486  0.00  0.00    +0.000 A 
ENDROOT
BRANCH   7   8
ATOM      8  O   UNL     1       6.507   5.134  19.654  0.00  0.00    +0.000 OA
ATOM      9  C   UNL     1       7.796   5.728  19.547  0.00  0.00    +0.000 C 
ENDBRANCH   7   8
BRANCH   1  10
ATOM     10  O   UNL     1       3.782   4.201  19.665  0.00  0.00    +0.000 OA
BRANCH  10  12
ATOM     11  C   UNL     1       1.774   4.972  20.705  0.00  0.00    +0.000 C 
ATOM     12  C   UNL     1       3.098   5.383  20.082  0.00  0.00    +0.000 C 
ENDBRANCH  10  12
ENDBRANCH   1  10
BRANCH   2  13
ATOM     13  C   UNL     1       2.473   3.416  17.320  0.00  0.00    +0.000 C 
BRANCH  13  14
ATOM     14  N   UNL     1       2.268   2.115  17.960  0.00  0.00    +0.000 NA
ATOM     15  C   UNL     1       1.076   2.076  18.795  0.00  0.00    +0.000 C 
ATOM     16  H   UNL     1       3.091   1.932  18.539  0.00  0.00    +0.000 HD
ENDBRANCH  13  14
ENDBRANCH   2  13
TORSDOF 5
ENDMDL
MODEL 2
REMARK VINA RESULT:      -5.4      2.156      2.729
REMARK  Name = 
REMARK  8 active torsions:
REMARK  status: ('A' for Active; 'I' for Inactive)
REMARK    1  A    between atoms: C_1  and  C_2
REMARK    2  A    between atoms: C_2  and  O_3
REMARK    3  A    between atoms: O_3  and  C_4
REMARK    4  A    between atoms: C_5  and  C_6
REMARK    5  A    between atoms: C_6  and  N_7
REMARK    6  A    between atoms: N_7  and  C_8
REMARK    7  A    between atoms: C_13  and  O_14
REMARK    8  A    between atoms: O_14  and  C_15
REMARK                            x       y       z     vdW  Elec       q    Type
REMARK                         _______ _______ _______ _____ _____    ______ ____
ROOT
ATOM      1  C   UNL     1       2.736   4.783  18.309  0.00  0.00    +0.000 A 
ATOM      2  C   UNL     1       3.337   3.658  17.691  0.00  0.00    +0.000 A 
ATOM      3  C   UNL     1       4.424   3.847  16.820  0.00  0.00    +0.000 A 
ATOM      4  C   UNL     1       4.901   5.125  16.563  0.00  0.00    +0.000 A 
ATOM      5 BR   UNL     1       6.369   5.362  15.396  0.00  0.00    +0.000 Br
ATOM      6  C   UNL     1       4.305   6.234  17.156  0.00  0.00    +0.000 A 
ATOM      7  C   UNL     1       3.207   6.079  18.014  0.00  0.00    +0.000 A 
ENDROOT
BRANCH   7   8
ATOM      8  O   UNL     1       2.590   7.156  18.598  0.00  0.00    +0.000 OA
ATOM      9  C   UNL     1       2.489   8.345  17.821  0.00  0.00    +0.000 C 
ENDBRANCH   7   8
BRANCH   1  10
ATOM     10  O   UNL     1       1.657   4.479  19.110  0.00  0.00    +0.000 OA
BRANCH  10  12
ATOM     11  C   UNL     1       1.277   3.226  21.108  0.00  0.00    +0.000 C 
ATOM     12  C   UNL     1       1.851   4.506  20.524  0.00  0.00    +0.000 C 
ENDBRANCH  10  12
ENDBRANCH   1  10
BRANCH   2  13
ATOM     13  C   UNL     1       2.866   2.240  17.948  0.00  0.00    +0.000 C 
BRANCH  13  14
ATOM     14  N   UNL     1       3.872   1.358  18.544  0.00  0.00    +0.000 NA
ATOM     15  C   UNL     1       4.418   1.881  19.787  0.00  0.00    +0.000 C 
ATOM     16  H   UNL     1       4.627   1.258  17.860  0.00  0.00    +0.000 HD
ENDBRANCH  13  14
ENDBRANCH   2  13
TORSDOF 5
ENDMDL
MODEL 3
REMARK VINA RESULT:      -5.3      2.637      4.373
REMARK  Name = 
REMARK  8 active torsions:
REMARK  status: ('A' for Active; 'I' for Inactive)
REMARK    1  A    between atoms: C_1  and  C_2
REMARK    2  A    between atoms: C_2  and  O_3
REMARK    3  A    between atoms: O_3  and  C_4
REMARK    4  A    between atoms: C_5  and  C_6
REMARK    5  A    between atoms: C_6  and  N_7
REMARK    6  A    between atoms: N_7  and  C_8
REMARK    7  A    between atoms: C_13  and  O_14
REMARK    8  A    between atoms: O_14  and  C_15
REMARK                            x       y       z     vdW  Elec       q    Type
REMARK                         _______ _______ _______ _____ _____    ______ ____
ROOT
ATOM      1  C   UNL     1       4.307   4.545  19.257  0.00  0.00    +0.000 A 
ATOM      2  C   UNL     1       4.866   5.322  18.211  0.00  0.00    +0.000 A 
ATOM      3  C   UNL     1       4.217   6.500  17.803  0.00  0.00    +0.000 A 
ATOM      4  C   UNL     1       3.036   6.897  18.416  0.00  0.00    +0.000 A 
ATOM      5 BR   UNL     1       2.180   8.489  17.862  0.00  0.00    +0.000 Br
ATOM      6  C   UNL     1       2.476   6.131  19.434  0.00  0.00    +0.000 A 
ATOM      7  C   UNL     1       3.090   4.941  19.850  0.00  0.00    +0.000 A 
ENDROOT
BRANCH   7   8
ATOM      8  O   UNL     1       2.550   4.157  20.838  0.00  0.00    +0.000 OA
ATOM      9  C   UNL     1       1.169   3.833  20.726  0.00  0.00    +0.000 C 
ENDBRANCH   7   8
BRANCH   1  10
ATOM     10  O   UNL     1       5.009   3.395  19.545  0.00  0.00    +0.000 OA
BRANCH  10  12
ATOM     11  C   UNL     1       3.606   1.884  18.339  0.00  0.00    +0.000 C 
ATOM     12  C   UNL     1       4.270   2.181  19.674  0.00  0.00    +0.000 C 
ENDBRANCH  10  12
ENDBRANCH   1  10
BRANCH   2  13
ATOM     13  C   UNL     1       6.161   4.943  17.519  0.00  0.00    +0.000 C 
BRANCH  13  14
ATOM     14  N   UNL     1       6.072   3.759  16.661  0.00  0.00    +0.000 NA
ATOM     15  C   UNL     1       5.643   4.073  15.306  0.00  0.00    +0.000 C 
ATOM     16  H   UNL     1       5.394   3.126  17.091  0.00  0.00    +0.000 HD
ENDBRANCH  13  14
ENDBRANCH   2  13
TORSDOF 5
ENDMDL
MODEL 4
REMARK VINA RESULT:      -5.3      2.708      3.798
REMARK  Name = 
REMARK  8 active torsions:
REMARK  status: ('A' for Active; 'I' for Inactive)
REMARK    1  A    between atoms: C_1  and  C_2
REMARK    2  A    between atoms: C_2  and  O_3
REMARK    3  A    between atoms: O_3  and  C_4
REMARK    4  A    between atoms: C_5  and  C_6
REMARK    5  A    between atoms: C_6  and  N_7
REMARK    6  A    between atoms: N_7  and  C_8
REMARK    7  A    between atoms: C_13  and  O_14
REMARK    8  A    between atoms: O_14  and  C_15
REMARK                            x       y       z     vdW  Elec       q    Type
REMARK                         _______ _______ _______ _____ _____    ______ ____
ROOT
ATOM      1  C   UNL     1       2.763   4.824  18.058  0.00  0.00    +0.000 A 
ATOM      2  C   UNL     1       3.362   6.088  17.827  0.00  0.00    +0.000 A 
ATOM      3  C   UNL     1       4.501   6.174  17.009  0.00  0.00    +0.000 A 
ATOM      4  C   UNL     1       5.039   5.030  16.435  0.00  0.00    +0.000 A 
ATOM      5 BR   UNL     1       6.566   5.163  15.330  0.00  0.00    +0.000 Br
ATOM      6  C   UNL     1       4.463   3.785  16.669  0.00  0.00    +0.000 A 
ATOM      7  C   UNL     1       3.338   3.665  17.497  0.00  0.00    +0.000 A 
ENDROOT
BRANCH   7   8
ATOM      8  O   UNL     1       2.761   2.448  17.759  0.00  0.00    +0.000 OA
ATOM      9  C   UNL     1       3.533   1.512  18.504  0.00  0.00    +0.000 C 
ENDBRANCH   7   8
BRANCH   1  10
ATOM     10  O   UNL     1       1.677   4.859  18.905  0.00  0.00    +0.000 OA
BRANCH  10  12
ATOM     11  C   UNL     1       1.068   3.389  20.687  0.00  0.00    +0.000 C 
ATOM     12  C   UNL     1       1.906   4.593  20.289  0.00  0.00    +0.000 C 
ENDBRANCH  10  12
ENDBRANCH   1  10
BRANCH   2  13
ATOM     13  C   UNL     1       2.807   7.371  18.417  0.00  0.00    +0.000 C 
BRANCH  13  14
ATOM     14  N   UNL     1       2.538   8.428  17.440  0.00  0.00    +0.000 NA
ATOM     15  C   UNL     1       1.609   9.433  17.935  0.00  0.00    +0.000 C 
ATOM     16  H   UNL     1       2.139   7.979  16.612  0.00  0.00    +0.000 HD
ENDBRANCH  13  14
ENDBRANCH   2  13
TORSDOF 5
ENDMDL
MODEL 5
REMARK VINA RESULT:      -5.2      2.884      4.682
REMARK  Name = 
REMARK  8 active torsions:
REMARK  status: ('A' for Active; 'I' for Inactive)
REMARK    1  A    between atoms: C_1  and  C_2
REMARK    2  A    between atoms: C_2  and  O_3
REMARK    3  A    between atoms: O_3  and  C_4
REMARK    4  A    between atoms: C_5  and  C_6
REMARK    5  A    between atoms: C_6  and  N_7
REMARK    6  A    between atoms: N_7  and  C_8
REMARK    7  A    between atoms: C_13  and  O_14
REMARK    8  A    between atoms: O_14  and  C_15
REMARK                            x       y       z     vdW  Elec       q    Type
REMARK                         _______ _______ _______ _____ _____    ______ ____
ROOT
ATOM      1  C   UNL     1       3.492   3.929  17.802  0.00  0.00    +0.000 A 
ATOM      2  C   UNL     1       4.448   4.913  17.445  0.00  0.00    +0.000 A 
ATOM      3  C   UNL     1       4.098   6.272  17.508  0.00  0.00    +0.000 A 
ATOM      4  C   UNL     1       2.824   6.649  17.913  0.00  0.00    +0.000 A 
ATOM      5 BR   UNL     1       2.372   8.482  18.001  0.00  0.00    +0.000 Br
ATOM      6  C   UNL     1       1.877   5.687  18.252  0.00  0.00    +0.000 A 
ATOM      7  C   UNL     1       2.191   4.323  18.180  0.00  0.00    +0.000 A 
ENDROOT
BRANCH   7   8
ATOM      8  O   UNL     1       1.271   3.353  18.490  0.00  0.00    +0.000 OA
ATOM      9  C   UNL     1       0.737   3.366  19.810  0.00  0.00    +0.000 C 
ENDBRANCH   7   8
BRANCH   1  10
ATOM     10  O   UNL     1       3.935   2.632  17.665  0.00  0.00    +0.000 OA
BRANCH  10  12
ATOM     11  C   UNL     1       4.440   2.346  19.982  0.00  0.00    +0.000 C 
ATOM     12  C   UNL     1       3.750   1.746  18.768  0.00  0.00    +0.000 C 
ENDBRANCH  10  12
ENDBRANCH   1  10
BRANCH   2  13
ATOM     13  C   UNL     1       5.857   4.557  17.011  0.00  0.00    +0.000 C 
BRANCH  13  14
ATOM     14  N   UNL     1       6.764   4.203  18.104  0.00  0.00    +0.000 NA
ATOM     15  C   UNL     1       7.596   5.318  18.533  0.00  0.00    +0.000 C 
ATOM     16  H   UNL     1       7.364   3.446  17.765  0.00  0.00    +0.000 HD
ENDBRANCH  13  14
ENDBRANCH   2  13
TORSDOF 5
ENDMDL
MODEL 6
REMARK VINA RESULT:      -5.2      3.134      4.821
REMARK  Name = 
REMARK  8 active torsions:
REMARK  status: ('A' for Active; 'I' for Inactive)
REMARK    1  A    between atoms: C_1  and  C_2
REMARK    2  A    between atoms: C_2  and  O_3
REMARK    3  A    between atoms: O_3  and  C_4
REMARK    4  A    between atoms: C_5  and  C_6
REMARK    5  A    between atoms: C_6  and  N_7
REMARK    6  A    between atoms: N_7  and  C_8
REMARK    7  A    between atoms: C_13  and  O_14
REMARK    8  A    between atoms: O_14  and  C_15
REMARK                            x       y       z     vdW  Elec       q    Type
REMARK                         _______ _______ _______ _____ _____    ______ ____
ROOT
ATOM      1  C   UNL     1       4.283   5.695  17.366  0.00  0.00    +0.000 A 
ATOM      2  C   UNL     1       4.381   4.338  16.968  0.00  0.00    +0.000 A 
ATOM      3  C   UNL     1       3.385   3.428  17.362  0.00  0.00    +0.000 A 
ATOM      4  C   UNL     1       2.315   3.854  18.138  0.00  0.00    +0.000 A 
ATOM      5 BR   UNL     1       0.978   2.620  18.652  0.00  0.00    +0.000 Br
ATOM      6  C   UNL     1       2.221   5.182  18.543  0.00  0.00    +0.000 A 
ATOM      7  C   UNL     1       3.210   6.108  18.183  0.00  0.00    +0.000 A 
ENDROOT
BRANCH   7   8
ATOM      8  O   UNL     1       3.152   7.419  18.584  0.00  0.00    +0.000 OA
ATOM      9  C   UNL     1       2.275   8.279  17.864  0.00  0.00    +0.000 C 
ENDBRANCH   7   8
BRANCH   1  10
ATOM     10  O   UNL     1       5.335   6.483  16.955  0.00  0.00    +0.000 OA
BRANCH  10  12
ATOM     11  C   UNL     1       7.380   7.665  17.311  0.00  0.00    +0.000 C 
ATOM     12  C   UNL     1       6.502   6.515  17.775  0.00  0.00    +0.000 C 
ENDBRANCH  10  12
ENDBRANCH   1  10
BRANCH   2  13
ATOM     13  C   UNL     1       5.519   3.823  16.107  0.00  0.00    +0.000 C 
BRANCH  13  14
ATOM     14  N   UNL     1       5.527   4.331  14.733  0.00  0.00    +0.000 NA
ATOM     15  C   UNL     1       6.842   4.782  14.304  0.00  0.00    +0.000 C 
ATOM     16  H   UNL     1       4.874   5.118  14.700  0.00  0.00    +0.000 HD
ENDBRANCH  13  14
ENDBRANCH   2  13
TORSDOF 5
ENDMDL
MODEL 7
REMARK VINA RESULT:      -5.2      2.019      2.890
REMARK  Name = 
REMARK  8 active torsions:
REMARK  status: ('A' for Active; 'I' for Inactive)
REMARK    1  A    between atoms: C_1  and  C_2
REMARK    2  A    between atoms: C_2  and  O_3
REMARK    3  A    between atoms: O_3  and  C_4
REMARK    4  A    between atoms: C_5  and  C_6
REMARK    5  A    between atoms: C_6  and  N_7
REMARK    6  A    between atoms: N_7  and  C_8
REMARK    7  A    between atoms: C_13  and  O_14
REMARK    8  A    between atoms: O_14  and  C_15
REMARK                            x       y       z     vdW  Elec       q    Type
REMARK                         _______ _______ _______ _____ _____    ______ ____
ROOT
ATOM      1  C   UNL     1       3.450   5.149  19.432  0.00  0.00    +0.000 A 
ATOM      2  C   UNL     1       4.282   4.115  18.935  0.00  0.00    +0.000 A 
ATOM      3  C   UNL     1       4.943   4.290  17.708  0.00  0.00    +0.000 A 
ATOM      4  C   UNL     1       4.781   5.465  16.986  0.00  0.00    +0.000 A 
ATOM      5 BR   UNL     1       5.685   5.689  15.341  0.00  0.00    +0.000 Br
ATOM      6  C   UNL     1       3.955   6.478  17.463  0.00  0.00    +0.000 A 
ATOM      7  C   UNL     1       3.266   6.325  18.674  0.00  0.00    +0.000 A 
ENDROOT
BRANCH   7   8
ATOM      8  O   UNL     1       2.431   7.299  19.159  0.00  0.00    +0.000 OA
ATOM      9  C   UNL     1       2.125   8.383  18.287  0.00  0.00    +0.000 C 
ENDBRANCH   7   8
BRANCH   1  10
ATOM     10  O   UNL     1       2.824   4.850  20.623  0.00  0.00    +0.000 OA
BRANCH  10  12
ATOM     11  C   UNL     1       1.368   3.123  21.400  0.00  0.00    +0.000 C 
ATOM     12  C   UNL     1       1.475   4.389  20.566  0.00  0.00    +0.000 C 
ENDBRANCH  10  12
ENDBRANCH   1  10
BRANCH   2  13
ATOM     13  C   UNL     1       4.506   2.818  19.690  0.00  0.00    +0.000 C 
BRANCH  13  14
ATOM     14  N   UNL     1       4.221   1.604  18.921  0.00  0.00    +0.000 NA
ATOM     15  C   UNL     1       2.871   1.582  18.379  0.00  0.00    +0.000 C 
ATOM     16  H   UNL     1       4.342   0.812  19.556  0.00  0.00    +0.000 HD
ENDBRANCH  13  14
ENDBRANCH   2  13
TORSDOF 5
ENDMDL
MODEL 8
REMARK VINA RESULT:      -5.2      2.677      3.659
REMARK  Name = 
REMARK  8 active torsions:
REMARK  status: ('A' for Active; 'I' for Inactive)
REMARK    1  A    between atoms: C_1  and  C_2
REMARK    2  A    between atoms: C_2  and  O_3
REMARK    3  A    between atoms: O_3  and  C_4
REMARK    4  A    between atoms: C_5  and  C_6
REMARK    5  A    between atoms: C_6  and  N_7
REMARK    6  A    between atoms: N_7  and  C_8
REMARK    7  A    between atoms: C_13  and  O_14
REMARK    8  A    between atoms: O_14  and  C_15
REMARK                            x       y       z     vdW  Elec       q    Type
REMARK                         _______ _______ _______ _____ _____    ______ ____
ROOT
ATOM      1  C   UNL     1       2.530   4.662  18.355  0.00  0.00    +0.000 A 
ATOM      2  C   UNL     1       3.011   5.978  18.138  0.00  0.00    +0.000 A 
ATOM      3  C   UNL     1       4.109   6.181  17.285  0.00  0.00    +0.000 A 
ATOM      4  C   UNL     1       4.721   5.101  16.664  0.00  0.00    +0.000 A 
ATOM      5 BR   UNL     1       6.192   5.391  15.512  0.00  0.00    +0.000 Br
ATOM      6  C   UNL     1       4.263   3.806  16.884  0.00  0.00    +0.000 A 
ATOM      7  C   UNL     1       3.182   3.570  17.745  0.00  0.00    +0.000 A 
ENDROOT
BRANCH   7   8
ATOM      8  O   UNL     1       2.720   2.302  17.994  0.00  0.00    +0.000 OA
ATOM      9  C   UNL     1       3.632   1.387  18.593  0.00  0.00    +0.000 C 
ENDBRANCH   7   8
BRANCH   1  10
ATOM     10  O   UNL     1       1.476   4.583  19.238  0.00  0.00    +0.000 OA
BRANCH  10  12
ATOM     11  C   UNL     1       1.079   2.909  20.896  0.00  0.00    +0.000 C 
ATOM     12  C   UNL     1       1.767   4.229  20.590  0.00  0.00    +0.000 C 
ENDBRANCH  10  12
ENDBRANCH   1  10
BRANCH   2  13
ATOM     13  C   UNL     1       2.369   7.194  18.779  0.00  0.00    +0.000 C 
BRANCH  13  14
ATOM     14  N   UNL     1       2.475   7.244  20.239  0.00  0.00    +0.000 NA
ATOM     15  C   UNL     1       1.438   8.060  20.853  0.00  0.00    +0.000 C 
ATOM     16  H   UNL     1       3.391   7.641  20.460  0.00  0.00    +0.000 HD
ENDBRANCH  13  14
ENDBRANCH   2  13
TORSDOF 5
ENDMDL
MODEL 9
REMARK VINA RESULT:      -5.2      2.538      3.579
REMARK  Name = 
REMARK  8 active torsions:
REMARK  status: ('A' for Active; 'I' for Inactive)
REMARK    1  A    between atoms: C_1  and  C_2
REMARK    2  A    between atoms: C_2  and  O_3
REMARK    3  A    between atoms: O_3  and  C_4
REMARK    4  A    between atoms: C_5  and  C_6
REMARK    5  A    between atoms: C_6  and  N_7
REMARK    6  A    between atoms: N_7  and  C_8
REMARK    7  A    between atoms: C_13  and  O_14
REMARK    8  A    between atoms: O_14  and  C_15
REMARK                            x       y       z     vdW  Elec       q    Type
REMARK                         _______ _______ _______ _____ _____    ______ ____
ROOT
ATOM      1  C   UNL     1       3.316   4.925  19.629  0.00  0.00    +0.000 A 
ATOM      2  C   UNL     1       3.007   6.133  18.955  0.00  0.00    +0.000 A 
ATOM      3  C   UNL     1       3.686   6.455  17.768  0.00  0.00    +0.000 A 
ATOM      4  C   UNL     1       4.654   5.599  17.261  0.00  0.00    +0.000 A 
ATOM      5 BR   UNL     1       5.552   6.042  15.657  0.00  0.00    +0.000 Br
ATOM      6  C   UNL     1       4.970   4.418  17.925  0.00  0.00    +0.000 A 
ATOM      7  C   UNL     1       4.324   4.079  19.122  0.00  0.00    +0.000 A 
ENDROOT
BRANCH   7   8
ATOM      8  O   UNL     1       4.629   2.931  19.807  0.00  0.00    +0.000 OA
ATOM      9  C   UNL     1       4.098   1.712  19.298  0.00  0.00    +0.000 C 
ENDBRANCH   7   8
BRANCH   1  10
ATOM     10  O   UNL     1       2.615   4.735  20.800  0.00  0.00    +0.000 OA
BRANCH  10  12
ATOM     11  C   UNL     1       1.561   2.776  21.670  0.00  0.00    +0.000 C 
ATOM     12  C   UNL     1       1.414   3.967  20.738  0.00  0.00    +0.000 C 
ENDBRANCH  10  12
ENDBRANCH   1  10
BRANCH   2  13
ATOM     13  C   UNL     1       1.948   7.097  19.457  0.00  0.00    +0.000 C 
BRANCH  13  14
ATOM     14  N   UNL     1       2.103   7.503  20.856  0.00  0.00    +0.000 NA
ATOM     15  C   UNL     1       1.067   8.426  21.295  0.00  0.00    +0.000 C 
ATOM     16  H   UNL     1       3.016   7.958  20.937  0.00  0.00    +0.000 HD
ENDBRANCH  13  14
ENDBRANCH   2  13
TORSDOF 5
ENDMDL
