MODEL 1
REMARK VINA RESULT:      -9.0      0.000      0.000
REMARK  Name = 
REMARK  8 active torsions:
REMARK  status: ('A' for Active; 'I' for Inactive)
REMARK    1  A    between atoms: C_1  and  N_2
REMARK    2  A    between atoms: N_2  and  C_3
REMARK    3  A    between atoms: N_2  and  C_4
REMARK    4  A    between atoms: C_4  and  C_5
REMARK    5  A    between atoms: C_8  and  C_9
REMARK    6  A    between atoms: C_15  and  C_16
REMARK    7  A    between atoms: C_20  and  C_21
REMARK    8  A    between atoms: N_23  and  C_24
REMARK                            x       y       z     vdW  Elec       q    Type
REMARK                         _______ _______ _______ _____ _____    ______ ____
ROOT
ATOM      1  C   UNL     1       4.791   4.529  17.403  0.00  0.00    +0.000 A 
ATOM      2  C   UNL     1       4.704   3.366  18.179  0.00  0.00    +0.000 A 
ATOM      3  C   UNL     1       3.906   3.308  19.331  0.00  0.00    +0.000 A 
ATOM      4  C   UNL     1       3.188   4.459  19.671  0.00  0.00    +0.000 A 
ATOM      5  N   UNL     1       2.335   4.730  20.704  0.00  0.00    +0.000 N 
ATOM      6  N   UNL     1       1.846   5.980  20.708  0.00  0.00    +0.000 NA
ATOM      7  C   UNL     1       2.351   6.540  19.595  0.00  0.00    +0.000 A 
ATOM      8  C   UNL     1       3.231   5.629  18.923  0.00  0.00    +0.000 A 
ATOM      9  C   UNL     1       4.055   5.663  17.780  0.00  0.00    +0.000 A 
ATOM     10  H   UNL     1       2.051   4.104  21.448  0.00  0.00    +0.000 HD
ENDROOT
BRANCH   1  14
ATOM     11  C   UNL     1       6.424   4.473  14.245  0.00  0.00    +0.000 A 
ATOM     12  N   UNL     1       7.384   5.127  14.919  0.00  0.00    +0.000 NA
ATOM     13  N   UNL     1       6.859   5.168  16.153  0.00  0.00    +0.000 N 
ATOM     14  C   UNL     1       5.617   4.602  16.203  0.00  0.00    +0.000 A 
ATOM     15  N   UNL     1       5.304   4.186  14.990  0.00  0.00    +0.000 NA
ATOM     16  H   UNL     1       7.386   5.602  16.898  0.00  0.00    +0.000 HD
BRANCH  11  17
ATOM     17  C   UNL     1       6.571   4.090  12.798  0.00  0.00    +0.000 C 
BRANCH  17  19
ATOM     18  C   UNL     1       4.527   3.471  11.691  0.00  0.00    +0.000 C 
ATOM     19  N   UNL     1       5.692   2.957  12.412  0.00  0.00    +0.000 NA
ATOM     20  C   UNL     1       6.395   1.979  11.577  0.00  0.00    +0.000 C 
ENDBRANCH  17  19
ENDBRANCH  11  17
ENDBRANCH   1  14
BRANCH   7  21
ATOM     21  C   UNL     1       1.995   7.907  19.203  0.00  0.00    +0.000 A 
ATOM     22  C   UNL     1       2.541   8.471  18.037  0.00  0.00    +0.000 A 
ATOM     23  C   UNL     1       2.234   9.774  17.654  0.00  0.00    +0.000 A 
ATOM     24  C   UNL     1       1.352  10.521  18.423  0.00  0.00    +0.000 A 
ATOM     25  C   UNL     1       0.771   9.970  19.575  0.00  0.00    +0.000 A 
ATOM     26  C   UNL     1       1.093   8.666  19.970  0.00  0.00    +0.000 A 
BRANCH  25  27
ATOM     27  C   UNL     1      -0.248  10.799  20.266  0.00  0.00    +0.000 C 
ATOM     28  O   UNL     1      -1.242  11.106  19.611  0.00  0.00    +0.000 OA
ATOM     29  N   UNL     1       0.041  11.212  21.557  0.00  0.00    +0.000 N 
ATOM     30  H   UNL     1       0.976  11.053  21.907  0.00  0.00    +0.000 HD
BRANCH  29  31
ATOM     31  C   UNL     1      -0.809  12.028  22.346  0.00  0.00    +0.000 A 
ATOM     32  C   UNL     1      -1.945  11.532  22.993  0.00  0.00    +0.000 A 
ATOM     33  C   UNL     1      -2.788  12.374  23.721  0.00  0.00    +0.000 A 
ATOM     34  C   UNL     1      -2.498  13.728  23.820  0.00  0.00    +0.000 A 
ATOM     35  C   UNL     1      -1.353  14.235  23.205  0.00  0.00    +0.000 A 
ATOM     36  C   UNL     1      -0.505  13.387  22.479  0.00  0.00    +0.000 A 
ENDBRANCH  29  31
ENDBRANCH  25  27
ENDBRANCH   7  21
TORSDOF 6
ENDMDL
MODEL 2
REMARK VINA RESULT:      -8.9      0.892      1.194
REMARK  Name = 
REMARK  8 active torsions:
REMARK  status: ('A' for Active; 'I' for Inactive)
REMARK    1  A    between atoms: C_1  and  N_2
REMARK    2  A    between atoms: N_2  and  C_3
REMARK    3  A    between atoms: N_2  and  C_4
REMARK    4  A    between atoms: C_4  and  C_5
REMARK    5  A    between atoms: C_8  and  C_9
REMARK    6  A    between atoms: C_15  and  C_16
REMARK    7  A    between atoms: C_20  and  C_21
REMARK    8  A    between atoms: N_23  and  C_24
REMARK                            x       y       z     vdW  Elec       q    Type
REMARK                         _______ _______ _______ _____ _____    ______ ____
ROOT
ATOM      1  C   UNL     1       4.830   4.316  17.434  0.00  0.00    +0.000 A 
ATOM      2  C   UNL     1       4.768   3.087  18.106  0.00  0.00    +0.000 A 
ATOM      3  C   UNL     1       3.975   2.914  19.249  0.00  0.00    +0.000 A 
ATOM      4  C   UNL     1       3.237   4.016  19.690  0.00  0.00    +0.000 A 
ATOM      5  N   UNL     1       2.382   4.179  20.744  0.00  0.00    +0.000 N 
ATOM      6  N   UNL     1       1.869   5.414  20.858  0.00  0.00    +0.000 NA
ATOM      7  C   UNL     1       2.360   6.079  19.798  0.00  0.00    +0.000 A 
ATOM      8  C   UNL     1       3.255   5.248  19.047  0.00  0.00    +0.000 A 
ATOM      9  C   UNL     1       4.073   5.397  17.910  0.00  0.00    +0.000 A 
ATOM     10  H   UNL     1       2.113   3.485  21.431  0.00  0.00    +0.000 HD
ENDROOT
BRANCH   1  14
ATOM     11  C   UNL     1       6.450   4.574  14.280  0.00  0.00    +0.000 A 
ATOM     12  N   UNL     1       7.407   5.168  15.009  0.00  0.00    +0.000 NA
ATOM     13  N   UNL     1       6.888   5.087  16.243  0.00  0.00    +0.000 N 
ATOM     14  C   UNL     1       5.650   4.510  16.243  0.00  0.00    +0.000 A 
ATOM     15  N   UNL     1       5.336   4.208  14.998  0.00  0.00    +0.000 NA
ATOM     16  H   UNL     1       7.414   5.454  17.024  0.00  0.00    +0.000 HD
BRANCH  11  17
ATOM     17  C   UNL     1       6.594   4.332  12.802  0.00  0.00    +0.000 C 
BRANCH  17  19
ATOM     18  C   UNL     1       4.757   3.266  11.671  0.00  0.00    +0.000 C 
ATOM     19  N   UNL     1       6.019   3.030  12.375  0.00  0.00    +0.000 NA
ATOM     20  C   UNL     1       6.935   2.286  11.506  0.00  0.00    +0.000 C 
ENDBRANCH  17  19
ENDBRANCH  11  17
ENDBRANCH   1  14
BRANCH   7  21
ATOM     21  C   UNL     1       1.976   7.468  19.528  0.00  0.00    +0.000 A 
ATOM     22  C   UNL     1       2.048   7.978  18.220  0.00  0.00    +0.000 A 
ATOM     23  C   UNL     1       1.708   9.299  17.940  0.00  0.00    +0.000 A 
ATOM     24  C   UNL     1       1.265  10.120  18.968  0.00  0.00    +0.000 A 
ATOM     25  C   UNL     1       1.156   9.626  20.277  0.00  0.00    +0.000 A 
ATOM     26  C   UNL     1       1.515   8.303  20.561  0.00  0.00    +0.000 A 
BRANCH  25  27
ATOM     27  C   UNL     1       0.563  10.541  21.285  0.00  0.00    +0.000 C 
ATOM     28  O   UNL     1       0.789  10.277  22.465  0.00  0.00    +0.000 OA
ATOM     29  N   UNL     1      -0.245  11.563  20.815  0.00  0.00    +0.000 N 
ATOM     30  H   UNL     1      -0.505  11.551  19.837  0.00  0.00    +0.000 HD
BRANCH  29  31
ATOM     31  C   UNL     1      -0.907  12.506  21.642  0.00  0.00    +0.000 A 
ATOM     32  C   UNL     1      -0.261  13.622  22.183  0.00  0.00    +0.000 A 
ATOM     33  C   UNL     1      -0.930  14.502  23.036  0.00  0.00    +0.000 A 
ATOM     34  C   UNL     1      -2.265  14.282  23.350  0.00  0.00    +0.000 A 
ATOM     35  C   UNL     1      -2.933  13.189  22.797  0.00  0.00    +0.000 A 
ATOM     36  C   UNL     1      -2.261  12.310  21.938  0.00  0.00    +0.000 A 
ENDBRANCH  29  31
ENDBRANCH  25  27
ENDBRANCH   7  21
TORSDOF 6
ENDMDL
MODEL 3
REMARK VINA RESULT:      -8.7      3.990      9.072
REMARK  Name = 
REMARK  8 active torsions:
REMARK  status: ('A' for Active; 'I' for Inactive)
REMARK    1  A    between atoms: C_1  and  N_2
REMARK    2  A    between atoms: N_2  and  C_3
REMARK    3  A    between atoms: N_2  and  C_4
REMARK    4  A    between atoms: C_4  and  C_5
REMARK    5  A    between atoms: C_8  and  C_9
REMARK    6  A    between atoms: C_15  and  C_16
REMARK    7  A    between atoms: C_20  and  C_21
REMARK    8  A    between atoms: N_23  and  C_24
REMARK                            x       y       z     vdW  Elec       q    Type
REMARK                         _______ _______ _______ _____ _____    ______ ____
ROOT
ATOM      1  C   UNL     1       1.652   6.576  20.334  0.00  0.00    +0.000 A 
ATOM      2  C   UNL     1       0.824   5.518  20.731  0.00  0.00    +0.000 A 
ATOM      3  C   UNL     1       1.026   4.211  20.267  0.00  0.00    +0.000 A 
ATOM      4  C   UNL     1       2.099   4.000  19.395  0.00  0.00    +0.000 A 
ATOM      5  N   UNL     1       2.564   2.873  18.777  0.00  0.00    +0.000 N 
ATOM      6  N   UNL     1       3.626   3.074  17.981  0.00  0.00    +0.000 NA
ATOM      7  C   UNL     1       3.911   4.379  18.127  0.00  0.00    +0.000 A 
ATOM      8  C   UNL     1       2.955   5.014  18.986  0.00  0.00    +0.000 A 
ATOM      9  C   UNL     1       2.717   6.322  19.456  0.00  0.00    +0.000 A 
ATOM     10  H   UNL     1       2.193   1.933  18.850  0.00  0.00    +0.000 HD
ENDROOT
BRANCH   1  14
ATOM     11  C   UNL     1       0.967   9.993  21.038  0.00  0.00    +0.000 A 
ATOM     12  N   UNL     1       1.472   9.672  22.240  0.00  0.00    +0.000 NA
ATOM     13  N   UNL     1       1.794   8.383  22.056  0.00  0.00    +0.000 N 
ATOM     14  C   UNL     1       1.452   7.941  20.809  0.00  0.00    +0.000 A 
ATOM     15  N   UNL     1       0.890   8.940  20.157  0.00  0.00    +0.000 NA
ATOM     16  H   UNL     1       2.222   7.868  22.813  0.00  0.00    +0.000 HD
BRANCH  11  17
ATOM     17  C   UNL     1       0.526  11.389  20.695  0.00  0.00    +0.000 C 
BRANCH  17  19
ATOM     18  C   UNL     1       0.351  13.609  21.604  0.00  0.00    +0.000 C 
ATOM     19  N   UNL     1       0.159  12.187  21.893  0.00  0.00    +0.000 NA
ATOM     20  C   UNL     1      -1.227  11.951  22.305  0.00  0.00    +0.000 C 
ENDBRANCH  17  19
ENDBRANCH  11  17
ENDBRANCH   1  14
BRANCH   7  21
ATOM     21  C   UNL     1       5.066   4.985  17.457  0.00  0.00    +0.000 A 
ATOM     22  C   UNL     1       5.345   4.674  16.115  0.00  0.00    +0.000 A 
ATOM     23  C   UNL     1       6.446   5.221  15.461  0.00  0.00    +0.000 A 
ATOM     24  C   UNL     1       7.269   6.110  16.140  0.00  0.00    +0.000 A 
ATOM     25  C   UNL     1       6.994   6.459  17.471  0.00  0.00    +0.000 A 
ATOM     26  C   UNL     1       5.897   5.895  18.134  0.00  0.00    +0.000 A 
BRANCH  25  27
ATOM     27  C   UNL     1       7.858   7.504  18.075  0.00  0.00    +0.000 C 
ATOM     28  O   UNL     1       8.619   7.136  18.969  0.00  0.00    +0.000 OA
ATOM     29  N   UNL     1       7.683   8.805  17.633  0.00  0.00    +0.000 N 
ATOM     30  H   UNL     1       6.891   9.000  17.035  0.00  0.00    +0.000 HD
BRANCH  29  31
ATOM     31  C   UNL     1       8.407   9.922  18.123  0.00  0.00    +0.000 A 
ATOM     32  C   UNL     1       9.241   9.850  19.243  0.00  0.00    +0.000 A 
ATOM     33  C   UNL     1       9.899  10.982  19.729  0.00  0.00    +0.000 A 
ATOM     34  C   UNL     1       9.739  12.204  19.089  0.00  0.00    +0.000 A 
ATOM     35  C   UNL     1       8.933  12.289  17.954  0.00  0.00    +0.000 A 
ATOM     36  C   UNL     1       8.278  11.150  17.465  0.00  0.00    +0.000 A 
ENDBRANCH  29  31
ENDBRANCH  25  27
ENDBRANCH   7  21
TORSDOF 6
ENDMDL
MODEL 4
REMARK VINA RESULT:      -8.6      4.009      8.756
REMARK  Name = 
REMARK  8 active torsions:
REMARK  status: ('A' for Active; 'I' for Inactive)
REMARK    1  A    between atoms: C_1  and  N_2
REMARK    2  A    between atoms: N_2  and  C_3
REMARK    3  A    between atoms: N_2  and  C_4
REMARK    4  A    between atoms: C_4  and  C_5
REMARK    5  A    between atoms: C_8  and  C_9
REMARK    6  A    between atoms: C_15  and  C_16
REMARK    7  A    between atoms: C_20  and  C_21
REMARK    8  A    between atoms: N_23  and  C_24
REMARK                            x       y       z     vdW  Elec       q    Type
REMARK                         _______ _______ _______ _____ _____    ______ ____
ROOT
ATOM      1  C   UNL     1       1.674   6.545  20.291  0.00  0.00    +0.000 A 
ATOM      2  C   UNL     1       0.832   5.494  20.679  0.00  0.00    +0.000 A 
ATOM      3  C   UNL     1       1.020   4.188  20.205  0.00  0.00    +0.000 A 
ATOM      4  C   UNL     1       2.092   3.971  19.334  0.00  0.00    +0.000 A 
ATOM      5  N   UNL     1       2.544   2.844  18.708  0.00  0.00    +0.000 N 
ATOM      6  N   UNL     1       3.611   3.037  17.915  0.00  0.00    +0.000 NA
ATOM      7  C   UNL     1       3.911   4.338  18.073  0.00  0.00    +0.000 A 
ATOM      8  C   UNL     1       2.961   4.978  18.934  0.00  0.00    +0.000 A 
ATOM      9  C   UNL     1       2.737   6.284  19.414  0.00  0.00    +0.000 A 
ATOM     10  H   UNL     1       2.162   1.907  18.773  0.00  0.00    +0.000 HD
ENDROOT
BRANCH   1  14
ATOM     11  C   UNL     1       1.074   9.976  21.006  0.00  0.00    +0.000 A 
ATOM     12  N   UNL     1       1.448   9.610  22.242  0.00  0.00    +0.000 NA
ATOM     13  N   UNL     1       1.730   8.311  22.060  0.00  0.00    +0.000 N 
ATOM     14  C   UNL     1       1.489   7.908  20.777  0.00  0.00    +0.000 A 
ATOM     15  N   UNL     1       1.035   8.944  20.098  0.00  0.00    +0.000 NA
ATOM     16  H   UNL     1       2.062   7.764  22.842  0.00  0.00    +0.000 HD
BRANCH  11  17
ATOM     17  C   UNL     1       0.729  11.397  20.654  0.00  0.00    +0.000 C 
BRANCH  17  19
ATOM     18  C   UNL     1      -1.361  11.409  19.463  0.00  0.00    +0.000 C 
ATOM     19  N   UNL     1       0.092  11.519  19.318  0.00  0.00    +0.000 NA
ATOM     20  C   UNL     1       0.426  12.788  18.666  0.00  0.00    +0.000 C 
ENDBRANCH  17  19
ENDBRANCH  11  17
ENDBRANCH   1  14
BRANCH   7  21
ATOM     21  C   UNL     1       5.074   4.935  17.409  0.00  0.00    +0.000 A 
ATOM     22  C   UNL     1       5.379   4.596  16.079  0.00  0.00    +0.000 A 
ATOM     23  C   UNL     1       6.488   5.135  15.433  0.00  0.00    +0.000 A 
ATOM     24  C   UNL     1       7.294   6.043  16.106  0.00  0.00    +0.000 A 
ATOM     25  C   UNL     1       6.994   6.420  17.424  0.00  0.00    +0.000 A 
ATOM     26  C   UNL     1       5.889   5.865  18.080  0.00  0.00    +0.000 A 
BRANCH  25  27
ATOM     27  C   UNL     1       7.842   7.483  18.020  0.00  0.00    +0.000 C 
ATOM     28  O   UNL     1       8.591   7.139  18.933  0.00  0.00    +0.000 OA
ATOM     29  N   UNL     1       7.667   8.773  17.547  0.00  0.00    +0.000 N 
ATOM     30  H   UNL     1       6.883   8.951  16.933  0.00  0.00    +0.000 HD
BRANCH  29  31
ATOM     31  C   UNL     1       8.376   9.904  18.025  0.00  0.00    +0.000 A 
ATOM     32  C   UNL     1       9.271   9.839  19.098  0.00  0.00    +0.000 A 
ATOM     33  C   UNL     1       9.913  10.983  19.575  0.00  0.00    +0.000 A 
ATOM     34  C   UNL     1       9.676  12.212  18.974  0.00  0.00    +0.000 A 
ATOM     35  C   UNL     1       8.808  12.292  17.885  0.00  0.00    +0.000 A 
ATOM     36  C   UNL     1       8.168  11.142  17.404  0.00  0.00    +0.000 A 
ENDBRANCH  29  31
ENDBRANCH  25  27
ENDBRANCH   7  21
TORSDOF 6
ENDMDL
MODEL 5
REMARK VINA RESULT:      -8.5      1.030      1.030
REMARK  Name = 
REMARK  8 active torsions:
REMARK  status: ('A' for Active; 'I' for Inactive)
REMARK    1  A    between atoms: C_1  and  N_2
REMARK    2  A    between atoms: N_2  and  C_3
REMARK    3  A    between atoms: N_2  and  C_4
REMARK    4  A    between atoms: C_4  and  C_5
REMARK    5  A    between atoms: C_8  and  C_9
REMARK    6  A    between atoms: C_15  and  C_16
REMARK    7  A    between atoms: C_20  and  C_21
REMARK    8  A    between atoms: N_23  and  C_24
REMARK                            x       y       z     vdW  Elec       q    Type
REMARK                         _______ _______ _______ _____ _____    ______ ____
ROOT
ATOM      1  C   UNL     1       4.786   4.426  17.645  0.00  0.00    +0.000 A 
ATOM      2  C   UNL     1       4.699   3.251  18.404  0.00  0.00    +0.000 A 
ATOM      3  C   UNL     1       3.887   3.170  19.544  0.00  0.00    +0.000 A 
ATOM      4  C   UNL     1       3.156   4.311  19.891  0.00  0.00    +0.000 A 
ATOM      5  N   UNL     1       2.288   4.560  20.916  0.00  0.00    +0.000 N 
ATOM      6  N   UNL     1       1.789   5.806  20.932  0.00  0.00    +0.000 NA
ATOM      7  C   UNL     1       2.304   6.386  19.834  0.00  0.00    +0.000 A 
ATOM      8  C   UNL     1       3.199   5.492  19.161  0.00  0.00    +0.000 A 
ATOM      9  C   UNL     1       4.037   5.548  18.029  0.00  0.00    +0.000 A 
ATOM     10  H   UNL     1       1.999   3.921  21.648  0.00  0.00    +0.000 HD
ENDROOT
BRANCH   1  14
ATOM     11  C   UNL     1       6.417   4.558  14.488  0.00  0.00    +0.000 A 
ATOM     12  N   UNL     1       7.486   4.863  15.242  0.00  0.00    +0.000 NA
ATOM     13  N   UNL     1       6.964   4.805  16.476  0.00  0.00    +0.000 N 
ATOM     14  C   UNL     1       5.627   4.522  16.457  0.00  0.00    +0.000 A 
ATOM     15  N   UNL     1       5.251   4.398  15.198  0.00  0.00    +0.000 NA
ATOM     16  H   UNL     1       7.560   4.981  17.273  0.00  0.00    +0.000 HD
BRANCH  11  17
ATOM     17  C   UNL     1       6.500   4.406  12.994  0.00  0.00    +0.000 C 
BRANCH  17  19
ATOM     18  C   UNL     1       4.676   3.382  11.806  0.00  0.00    +0.000 C 
ATOM     19  N   UNL     1       5.930   3.121  12.515  0.00  0.00    +0.000 NA
ATOM     20  C   UNL     1       6.855   2.407  11.631  0.00  0.00    +0.000 C 
ENDBRANCH  17  19
ENDBRANCH  11  17
ENDBRANCH   1  14
BRANCH   7  21
ATOM     21  C   UNL     1       1.942   7.756  19.457  0.00  0.00    +0.000 A 
ATOM     22  C   UNL     1       2.174   8.211  18.148  0.00  0.00    +0.000 A 
ATOM     23  C   UNL     1       1.858   9.514  17.770  0.00  0.00    +0.000 A 
ATOM     24  C   UNL     1       1.278  10.370  18.697  0.00  0.00    +0.000 A 
ATOM     25  C   UNL     1       1.009   9.930  20.002  0.00  0.00    +0.000 A 
ATOM     26  C   UNL     1       1.344   8.626  20.387  0.00  0.00    +0.000 A 
BRANCH  25  27
ATOM     27  C   UNL     1       0.283  10.876  20.885  0.00  0.00    +0.000 C 
ATOM     28  O   UNL     1       0.427  10.715  22.096  0.00  0.00    +0.000 OA
ATOM     29  N   UNL     1      -0.544  11.805  20.275  0.00  0.00    +0.000 N 
ATOM     30  H   UNL     1      -0.721  11.704  19.285  0.00  0.00    +0.000 HD
BRANCH  29  31
ATOM     31  C   UNL     1      -1.325  12.761  20.972  0.00  0.00    +0.000 A 
ATOM     32  C   UNL     1      -2.702  12.614  21.170  0.00  0.00    +0.000 A 
ATOM     33  C   UNL     1      -3.450  13.599  21.816  0.00  0.00    +0.000 A 
ATOM     34  C   UNL     1      -2.824  14.747  22.287  0.00  0.00    +0.000 A 
ATOM     35  C   UNL     1      -1.447  14.898  22.124  0.00  0.00    +0.000 A 
ATOM     36  C   UNL     1      -0.697  13.905  21.479  0.00  0.00    +0.000 A 
ENDBRANCH  29  31
ENDBRANCH  25  27
ENDBRANCH   7  21
TORSDOF 6
ENDMDL
MODEL 6
REMARK VINA RESULT:      -8.4      3.754      5.790
REMARK  Name = 
REMARK  8 active torsions:
REMARK  status: ('A' for Active; 'I' for Inactive)
REMARK    1  A    between atoms: C_1  and  N_2
REMARK    2  A    between atoms: N_2  and  C_3
REMARK    3  A    between atoms: N_2  and  C_4
REMARK    4  A    between atoms: C_4  and  C_5
REMARK    5  A    between atoms: C_8  and  C_9
REMARK    6  A    between atoms: C_15  and  C_16
REMARK    7  A    between atoms: C_20  and  C_21
REMARK    8  A    between atoms: N_23  and  C_24
REMARK                            x       y       z     vdW  Elec       q    Type
REMARK                         _______ _______ _______ _____ _____    ______ ____
ROOT
ATOM      1  C   UNL     1       7.244   6.679  17.431  0.00  0.00    +0.000 A 
ATOM      2  C   UNL     1       7.769   5.889  16.399  0.00  0.00    +0.000 A 
ATOM      3  C   UNL     1       7.144   4.702  15.991  0.00  0.00    +0.000 A 
ATOM      4  C   UNL     1       5.965   4.340  16.650  0.00  0.00    +0.000 A 
ATOM      5  N   UNL     1       5.126   3.272  16.497  0.00  0.00    +0.000 N 
ATOM      6  N   UNL     1       4.085   3.256  17.345  0.00  0.00    +0.000 NA
ATOM      7  C   UNL     1       4.210   4.396  18.047  0.00  0.00    +0.000 A 
ATOM      8  C   UNL     1       5.400   5.099  17.667  0.00  0.00    +0.000 A 
ATOM      9  C   UNL     1       6.059   6.279  18.067  0.00  0.00    +0.000 A 
ATOM     10  H   UNL     1       5.214   2.510  15.835  0.00  0.00    +0.000 HD
ENDROOT
BRANCH   1  14
ATOM     11  C   UNL     1       8.567   9.911  18.100  0.00  0.00    +0.000 A 
ATOM     12  N   UNL     1       9.139   9.277  19.136  0.00  0.00    +0.000 NA
ATOM     13  N   UNL     1       8.714   8.020  18.945  0.00  0.00    +0.000 N 
ATOM     14  C   UNL     1       7.884   7.916  17.865  0.00  0.00    +0.000 A 
ATOM     15  N   UNL     1       7.747   9.116  17.334  0.00  0.00    +0.000 NA
ATOM     16  H   UNL     1       9.010   7.296  19.586  0.00  0.00    +0.000 HD
BRANCH  11  17
ATOM     17  C   UNL     1       8.809  11.366  17.810  0.00  0.00    +0.000 C 
BRANCH  17  19
ATOM     18  C   UNL     1      10.910  12.498  17.505  0.00  0.00    +0.000 C 
ATOM     19  N   UNL     1      10.016  11.895  18.495  0.00  0.00    +0.000 NA
ATOM     20  C   UNL     1       9.676  12.888  19.518  0.00  0.00    +0.000 C 
ENDBRANCH  17  19
ENDBRANCH  11  17
ENDBRANCH   1  14
BRANCH   7  21
ATOM     21  C   UNL     1       3.213   4.783  19.050  0.00  0.00    +0.000 A 
ATOM     22  C   UNL     1       2.720   3.832  19.959  0.00  0.00    +0.000 A 
ATOM     23  C   UNL     1       1.758   4.170  20.908  0.00  0.00    +0.000 A 
ATOM     24  C   UNL     1       1.298   5.478  20.975  0.00  0.00    +0.000 A 
ATOM     25  C   UNL     1       1.797   6.453  20.098  0.00  0.00    +0.000 A 
ATOM     26  C   UNL     1       2.750   6.109  19.132  0.00  0.00    +0.000 A 
BRANCH  25  27
ATOM     27  C   UNL     1       1.334   7.846  20.321  0.00  0.00    +0.000 C 
ATOM     28  O   UNL     1       1.955   8.731  19.736  0.00  0.00    +0.000 OA
ATOM     29  N   UNL     1       0.294   8.032  21.218  0.00  0.00    +0.000 N 
ATOM     30  H   UNL     1       0.003   7.241  21.776  0.00  0.00    +0.000 HD
BRANCH  29  31
ATOM     31  C   UNL     1      -0.249   9.295  21.563  0.00  0.00    +0.000 A 
ATOM     32  C   UNL     1      -0.501  10.295  20.618  0.00  0.00    +0.000 A 
ATOM     33  C   UNL     1      -0.989  11.545  21.000  0.00  0.00    +0.000 A 
ATOM     34  C   UNL     1      -1.244  11.810  22.339  0.00  0.00    +0.000 A 
ATOM     35  C   UNL     1      -1.026  10.816  23.293  0.00  0.00    +0.000 A 
ATOM     36  C   UNL     1      -0.541   9.559  22.907  0.00  0.00    +0.000 A 
ENDBRANCH  29  31
ENDBRANCH  25  27
ENDBRANCH   7  21
TORSDOF 6
ENDMDL
MODEL 7
REMARK VINA RESULT:      -8.3      3.857      5.972
REMARK  Name = 
REMARK  8 active torsions:
REMARK  status: ('A' for Active; 'I' for Inactive)
REMARK    1  A    between atoms: C_1  and  N_2
REMARK    2  A    between atoms: N_2  and  C_3
REMARK    3  A    between atoms: N_2  and  C_4
REMARK    4  A    between atoms: C_4  and  C_5
REMARK    5  A    between atoms: C_8  and  C_9
REMARK    6  A    between atoms: C_15  and  C_16
REMARK    7  A    between atoms: C_20  and  C_21
REMARK    8  A    between atoms: N_23  and  C_24
REMARK                            x       y       z     vdW  Elec       q    Type
REMARK                         _______ _______ _______ _____ _____    ______ ____
ROOT
ATOM      1  C   UNL     1       7.256   6.854  17.458  0.00  0.00    +0.000 A 
ATOM      2  C   UNL     1       7.767   6.052  16.429  0.00  0.00    +0.000 A 
ATOM      3  C   UNL     1       7.116   4.882  16.015  0.00  0.00    +0.000 A 
ATOM      4  C   UNL     1       5.924   4.548  16.667  0.00  0.00    +0.000 A 
ATOM      5  N   UNL     1       5.060   3.501  16.508  0.00  0.00    +0.000 N 
ATOM      6  N   UNL     1       4.014   3.510  17.349  0.00  0.00    +0.000 NA
ATOM      7  C   UNL     1       4.163   4.645  18.053  0.00  0.00    +0.000 A 
ATOM      8  C   UNL     1       5.372   5.319  17.681  0.00  0.00    +0.000 A 
ATOM      9  C   UNL     1       6.057   6.482  18.087  0.00  0.00    +0.000 A 
ATOM     10  H   UNL     1       5.134   2.737  15.845  0.00  0.00    +0.000 HD
ENDROOT
BRANCH   1  14
ATOM     11  C   UNL     1       8.650  10.052  18.143  0.00  0.00    +0.000 A 
ATOM     12  N   UNL     1       9.212   9.400  19.174  0.00  0.00    +0.000 NA
ATOM     13  N   UNL     1       8.759   8.153  18.976  0.00  0.00    +0.000 N 
ATOM     14  C   UNL     1       7.923   8.074  17.898  0.00  0.00    +0.000 A 
ATOM     15  N   UNL     1       7.810   9.280  17.375  0.00  0.00    +0.000 NA
ATOM     16  H   UNL     1       9.041   7.419  19.611  0.00  0.00    +0.000 HD
BRANCH  11  17
ATOM     17  C   UNL     1       8.922  11.504  17.861  0.00  0.00    +0.000 C 
BRANCH  17  19
ATOM     18  C   UNL     1      11.084  12.461  17.417  0.00  0.00    +0.000 C 
ATOM     19  N   UNL     1      10.190  11.979  18.471  0.00  0.00    +0.000 NA
ATOM     20  C   UNL     1       9.962  13.047  19.448  0.00  0.00    +0.000 C 
ENDBRANCH  17  19
ENDBRANCH  11  17
ENDBRANCH   1  14
BRANCH   7  21
ATOM     21  C   UNL     1       3.170   5.056  19.051  0.00  0.00    +0.000 A 
ATOM     22  C   UNL     1       2.596   4.102  19.909  0.00  0.00    +0.000 A 
ATOM     23  C   UNL     1       1.637   4.464  20.852  0.00  0.00    +0.000 A 
ATOM     24  C   UNL     1       1.259   5.795  20.963  0.00  0.00    +0.000 A 
ATOM     25  C   UNL     1       1.839   6.771  20.138  0.00  0.00    +0.000 A 
ATOM     26  C   UNL     1       2.790   6.404  19.178  0.00  0.00    +0.000 A 
BRANCH  25  27
ATOM     27  C   UNL     1       1.460   8.180  20.408  0.00  0.00    +0.000 C 
ATOM     28  O   UNL     1       1.444   8.526  21.588  0.00  0.00    +0.000 OA
ATOM     29  N   UNL     1       1.092   8.957  19.322  0.00  0.00    +0.000 N 
ATOM     30  H   UNL     1       0.962   8.495  18.432  0.00  0.00    +0.000 HD
BRANCH  29  31
ATOM     31  C   UNL     1       0.679  10.311  19.409  0.00  0.00    +0.000 A 
ATOM     32  C   UNL     1       1.500  11.378  19.033  0.00  0.00    +0.000 A 
ATOM     33  C   UNL     1       1.080  12.701  19.179  0.00  0.00    +0.000 A 
ATOM     34  C   UNL     1      -0.179  12.975  19.697  0.00  0.00    +0.000 A 
ATOM     35  C   UNL     1      -1.023  11.923  20.050  0.00  0.00    +0.000 A 
ATOM     36  C   UNL     1      -0.602  10.595  19.898  0.00  0.00    +0.000 A 
ENDBRANCH  29  31
ENDBRANCH  25  27
ENDBRANCH   7  21
TORSDOF 6
ENDMDL
MODEL 8
REMARK VINA RESULT:      -8.3      4.577      9.842
REMARK  Name = 
REMARK  8 active torsions:
REMARK  status: ('A' for Active; 'I' for Inactive)
REMARK    1  A    between atoms: C_1  and  N_2
REMARK    2  A    between atoms: N_2  and  C_3
REMARK    3  A    between atoms: N_2  and  C_4
REMARK    4  A    between atoms: C_4  and  C_5
REMARK    5  A    between atoms: C_8  and  C_9
REMARK    6  A    between atoms: C_15  and  C_16
REMARK    7  A    between atoms: C_20  and  C_21
REMARK    8  A    between atoms: N_23  and  C_24
REMARK                            x       y       z     vdW  Elec       q    Type
REMARK                         _______ _______ _______ _____ _____    ______ ____
ROOT
ATOM      1  C   UNL     1       2.468  14.703  18.987  0.00  0.00    +0.000 A 
ATOM      2  C   UNL     1       1.554  15.732  18.720  0.00  0.00    +0.000 A 
ATOM      3  C   UNL     1       0.174  15.551  18.885  0.00  0.00    +0.000 A 
ATOM      4  C   UNL     1      -0.258  14.300  19.339  0.00  0.00    +0.000 A 
ATOM      5  N   UNL     1      -1.505  13.807  19.603  0.00  0.00    +0.000 N 
ATOM      6  N   UNL     1      -1.522  12.528  20.011  0.00  0.00    +0.000 NA
ATOM      7  C   UNL     1      -0.226  12.181  20.077  0.00  0.00    +0.000 A 
ATOM      8  C   UNL     1       0.611  13.257  19.631  0.00  0.00    +0.000 A 
ATOM      9  C   UNL     1       1.992  13.463  19.440  0.00  0.00    +0.000 A 
ATOM     10  H   UNL     1      -2.391  14.292  19.515  0.00  0.00    +0.000 HD
ENDROOT
BRANCH   1  14
ATOM     11  C   UNL     1       5.988  15.194  19.078  0.00  0.00    +0.000 A 
ATOM     12  N   UNL     1       5.882  14.983  17.757  0.00  0.00    +0.000 NA
ATOM     13  N   UNL     1       4.558  14.816  17.621  0.00  0.00    +0.000 N 
ATOM     14  C   UNL     1       3.906  14.879  18.820  0.00  0.00    +0.000 A 
ATOM     15  N   UNL     1       4.802  15.082  19.766  0.00  0.00    +0.000 NA
ATOM     16  H   UNL     1       4.174  14.650  16.701  0.00  0.00    +0.000 HD
BRANCH  11  17
ATOM     17  C   UNL     1       7.297  15.525  19.741  0.00  0.00    +0.000 C 
BRANCH  17  19
ATOM     18  C   UNL     1       9.448  15.863  18.718  0.00  0.00    +0.000 C 
ATOM     19  N   UNL     1       8.454  14.856  19.093  0.00  0.00    +0.000 NA
ATOM     20  C   UNL     1       9.072  13.859  19.971  0.00  0.00    +0.000 C 
ENDBRANCH  17  19
ENDBRANCH  11  17
ENDBRANCH   1  14
BRANCH   7  21
ATOM     21  C   UNL     1       0.184  10.856  20.551  0.00  0.00    +0.000 A 
ATOM     22  C   UNL     1      -0.179  10.424  21.838  0.00  0.00    +0.000 A 
ATOM     23  C   UNL     1       0.214   9.177  22.319  0.00  0.00    +0.000 A 
ATOM     24  C   UNL     1       0.956   8.335  21.502  0.00  0.00    +0.000 A 
ATOM     25  C   UNL     1       1.306   8.731  20.202  0.00  0.00    +0.000 A 
ATOM     26  C   UNL     1       0.926   9.992  19.725  0.00  0.00    +0.000 A 
BRANCH  25  27
ATOM     27  C   UNL     1       1.997   7.721  19.363  0.00  0.00    +0.000 C 
ATOM     28  O   UNL     1       2.378   8.096  18.255  0.00  0.00    +0.000 OA
ATOM     29  N   UNL     1       2.090   6.434  19.868  0.00  0.00    +0.000 N 
ATOM     30  H   UNL     1       1.565   6.214  20.704  0.00  0.00    +0.000 HD
BRANCH  29  31
ATOM     31  C   UNL     1       2.694   5.347  19.186  0.00  0.00    +0.000 A 
ATOM     32  C   UNL     1       2.042   4.630  18.179  0.00  0.00    +0.000 A 
ATOM     33  C   UNL     1       2.647   3.533  17.564  0.00  0.00    +0.000 A 
ATOM     34  C   UNL     1       3.926   3.144  17.943  0.00  0.00    +0.000 A 
ATOM     35  C   UNL     1       4.603   3.866  18.927  0.00  0.00    +0.000 A 
ATOM     36  C   UNL     1       3.995   4.970  19.539  0.00  0.00    +0.000 A 
ENDBRANCH  29  31
ENDBRANCH  25  27
ENDBRANCH   7  21
TORSDOF 6
ENDMDL
MODEL 9
REMARK VINA RESULT:      -8.3      4.417      9.822
REMARK  Name = 
REMARK  8 active torsions:
REMARK  status: ('A' for Active; 'I' for Inactive)
REMARK    1  A    between atoms: C_1  and  N_2
REMARK    2  A    between atoms: N_2  and  C_3
REMARK    3  A    between atoms: N_2  and  C_4
REMARK    4  A    between atoms: C_4  and  C_5
REMARK    5  A    between atoms: C_8  and  C_9
REMARK    6  A    between atoms: C_15  and  C_16
REMARK    7  A    between atoms: C_20  and  C_21
REMARK    8  A    between atoms: N_23  and  C_24
REMARK                            x       y       z     vdW  Elec       q    Type
REMARK                         _______ _______ _______ _____ _____    ______ ____
ROOT
ATOM      1  C   UNL     1       2.517  13.992  18.753  0.00  0.00    +0.000 A 
ATOM      2  C   UNL     1       1.465  14.851  18.409  0.00  0.00    +0.000 A 
ATOM      3  C   UNL     1       0.146  14.390  18.296  0.00  0.00    +0.000 A 
ATOM      4  C   UNL     1      -0.082  13.034  18.549  0.00  0.00    +0.000 A 
ATOM      5  N   UNL     1      -1.224  12.282  18.530  0.00  0.00    +0.000 N 
ATOM      6  N   UNL     1      -1.039  10.983  18.815  0.00  0.00    +0.000 NA
ATOM      7  C   UNL     1       0.272  10.886  19.093  0.00  0.00    +0.000 A 
ATOM      8  C   UNL     1       0.926  12.148  18.908  0.00  0.00    +0.000 A 
ATOM      9  C   UNL     1       2.245  12.637  18.999  0.00  0.00    +0.000 A 
ATOM     10  H   UNL     1      -2.164  12.596  18.320  0.00  0.00    +0.000 HD
ENDROOT
BRANCH   1  14
ATOM     11  C   UNL     1       5.922  14.997  18.567  0.00  0.00    +0.000 A 
ATOM     12  N   UNL     1       5.709  15.361  19.841  0.00  0.00    +0.000 NA
ATOM     13  N   UNL     1       4.434  14.984  20.014  0.00  0.00    +0.000 N 
ATOM     14  C   UNL     1       3.894  14.459  18.875  0.00  0.00    +0.000 A 
ATOM     15  N   UNL     1       4.813  14.492  17.930  0.00  0.00    +0.000 NA
ATOM     16  H   UNL     1       3.996  15.126  20.914  0.00  0.00    +0.000 HD
BRANCH  11  17
ATOM     17  C   UNL     1       7.264  15.134  17.901  0.00  0.00    +0.000 C 
BRANCH  17  19
ATOM     18  C   UNL     1       8.598  13.132  17.886  0.00  0.00    +0.000 C 
ATOM     19  N   UNL     1       8.333  14.380  18.604  0.00  0.00    +0.000 NA
ATOM     20  C   UNL     1       9.571  15.156  18.712  0.00  0.00    +0.000 C 
ENDBRANCH  17  19
ENDBRANCH  11  17
ENDBRANCH   1  14
BRANCH   7  21
ATOM     21  C   UNL     1       0.867   9.615  19.519  0.00  0.00    +0.000 A 
ATOM     22  C   UNL     1       0.634   9.127  20.816  0.00  0.00    +0.000 A 
ATOM     23  C   UNL     1       1.203   7.932  21.250  0.00  0.00    +0.000 A 
ATOM     24  C   UNL     1       1.994   7.197  20.378  0.00  0.00    +0.000 A 
ATOM     25  C   UNL     1       2.217   7.649  19.068  0.00  0.00    +0.000 A 
ATOM     26  C   UNL     1       1.660   8.859  18.637  0.00  0.00    +0.000 A 
BRANCH  25  27
ATOM     27  C   UNL     1       2.977   6.741  18.173  0.00  0.00    +0.000 C 
ATOM     28  O   UNL     1       2.388   5.734  17.784  0.00  0.00    +0.000 OA
ATOM     29  N   UNL     1       4.299   7.067  17.914  0.00  0.00    +0.000 N 
ATOM     30  H   UNL     1       4.717   7.815  18.451  0.00  0.00    +0.000 HD
BRANCH  29  31
ATOM     31  C   UNL     1       5.170   6.295  17.104  0.00  0.00    +0.000 A 
ATOM     32  C   UNL     1       5.063   6.247  15.710  0.00  0.00    +0.000 A 
ATOM     33  C   UNL     1       5.905   5.437  14.947  0.00  0.00    +0.000 A 
ATOM     34  C   UNL     1       6.879   4.668  15.571  0.00  0.00    +0.000 A 
ATOM     35  C   UNL     1       7.019   4.725  16.958  0.00  0.00    +0.000 A 
ATOM     36  C   UNL     1       6.176   5.543  17.722  0.00  0.00    +0.000 A 
ENDBRANCH  29  31
ENDBRANCH  25  27
ENDBRANCH   7  21
TORSDOF 6
ENDMDL
