MODEL 1
REMARK VINA RESULT:      -6.6      0.000      0.000
REMARK  Name = 
REMARK  4 active torsions:
REMARK  status: ('A' for Active; 'I' for Inactive)
REMARK    1  A    between atoms: C_1  and  N_2
REMARK    2  A    between atoms: C_5  and  C_6
REMARK    3  A    between atoms: N_8  and  N_9
REMARK    4  A    between atoms: C_10  and  C_11
REMARK                            x       y       z     vdW  Elec       q    Type
REMARK                         _______ _______ _______ _____ _____    ______ ____
ROOT
ATOM      1  C   UNL     1       7.552   6.323  17.861  0.00  0.00    +0.000 C 
ATOM      2  O   UNL     1       7.921   5.923  18.962  0.00  0.00    +0.000 OA
ATOM      3  N   UNL     1       7.704   7.622  17.392  0.00  0.00    +0.000 N 
ATOM      4  H   UNL     1       7.351   7.834  16.463  0.00  0.00    +0.000 HD
ENDROOT
BRANCH   1   9
ATOM      5  C   UNL     1       6.429   4.126  13.674  0.00  0.00    +0.000 C 
ATOM      6  N   UNL     1       6.371   4.454  15.079  0.00  0.00    +0.000 N 
ATOM      7  C   UNL     1       5.532   3.908  16.002  0.00  0.00    +0.000 A 
ATOM      8  C   UNL     1       5.838   4.516  17.194  0.00  0.00    +0.000 A 
ATOM      9  C   UNL     1       6.885   5.429  16.898  0.00  0.00    +0.000 A 
ATOM     10  N   UNL     1       7.208   5.385  15.587  0.00  0.00    +0.000 NA
ENDBRANCH   1   9
BRANCH   3  11
ATOM     11  N   UNL     1       8.281   8.567  18.186  0.00  0.00    +0.000 NA
ATOM     12  C   UNL     1       8.397   9.757  17.693  0.00  0.00    +0.000 C 
BRANCH  12  13
ATOM     13  C   UNL     1       8.999  10.844  18.497  0.00  0.00    +0.000 A 
ATOM     14  C   UNL     1       9.437  10.596  19.798  0.00  0.00    +0.000 A 
ATOM     15  C   UNL     1       9.979  11.649  20.511  0.00  0.00    +0.000 A 
ATOM     16  N   UNL     1      10.106  12.899  20.015  0.00  0.00    +0.000 NA
ATOM     17  C   UNL     1       9.675  13.106  18.752  0.00  0.00    +0.000 A 
ATOM     18  C   UNL     1       9.118  12.119  17.955  0.00  0.00    +0.000 A 
ENDBRANCH  12  13
ENDBRANCH   3  11
TORSDOF 3
ENDMDL
MODEL 2
REMARK VINA RESULT:      -6.5      0.807      1.271
REMARK  Name = 
REMARK  4 active torsions:
REMARK  status: ('A' for Active; 'I' for Inactive)
REMARK    1  A    between atoms: C_1  and  N_2
REMARK    2  A    between atoms: C_5  and  C_6
REMARK    3  A    between atoms: N_8  and  N_9
REMARK    4  A    between atoms: C_10  and  C_11
REMARK                            x       y       z     vdW  Elec       q    Type
REMARK                         _______ _______ _______ _____ _____    ______ ____
ROOT
ATOM      1  C   UNL     1       7.574   6.617  18.103  0.00  0.00    +0.000 C 
ATOM      2  O   UNL     1       7.915   6.126  19.176  0.00  0.00    +0.000 OA
ATOM      3  N   UNL     1       7.877   7.907  17.685  0.00  0.00    +0.000 N 
ATOM      4  H   UNL     1       7.532   8.204  16.776  0.00  0.00    +0.000 HD
ENDROOT
BRANCH   1   9
ATOM      5  C   UNL     1       6.374   4.242  14.037  0.00  0.00    +0.000 C 
ATOM      6  N   UNL     1       6.225   4.817  15.354  0.00  0.00    +0.000 N 
ATOM      7  C   UNL     1       5.107   4.777  16.130  0.00  0.00    +0.000 A 
ATOM      8  C   UNL     1       5.429   5.442  17.286  0.00  0.00    +0.000 A 
ATOM      9  C   UNL     1       6.778   5.859  17.123  0.00  0.00    +0.000 A 
ATOM     10  N   UNL     1       7.262   5.468  15.924  0.00  0.00    +0.000 NA
ENDBRANCH   1   9
BRANCH   3  11
ATOM     11  N   UNL     1       8.586   8.736  18.501  0.00  0.00    +0.000 NA
ATOM     12  C   UNL     1       8.811   9.935  18.069  0.00  0.00    +0.000 C 
BRANCH  12  13
ATOM     13  C   UNL     1       9.562  10.901  18.902  0.00  0.00    +0.000 A 
ATOM     14  C   UNL     1      10.537  11.715  18.327  0.00  0.00    +0.000 A 
ATOM     15  C   UNL     1      11.218  12.591  19.152  0.00  0.00    +0.000 A 
ATOM     16  N   UNL     1      10.989  12.698  20.479  0.00  0.00    +0.000 NA
ATOM     17  C   UNL     1      10.037  11.897  21.004  0.00  0.00    +0.000 A 
ATOM     18  C   UNL     1       9.298  10.988  20.265  0.00  0.00    +0.000 A 
ENDBRANCH  12  13
ENDBRANCH   3  11
TORSDOF 3
ENDMDL
MODEL 3
REMARK VINA RESULT:      -6.4      1.385      1.981
REMARK  Name = 
REMARK  4 active torsions:
REMARK  status: ('A' for Active; 'I' for Inactive)
REMARK    1  A    between atoms: C_1  and  N_2
REMARK    2  A    between atoms: C_5  and  C_6
REMARK    3  A    between atoms: N_8  and  N_9
REMARK    4  A    between atoms: C_10  and  C_11
REMARK                            x       y       z     vdW  Elec       q    Type
REMARK                         _______ _______ _______ _____ _____    ______ ____
ROOT
ATOM      1  C   UNL     1       7.592   6.125  18.418  0.00  0.00    +0.000 C 
ATOM      2  O   UNL     1       8.208   5.695  19.390  0.00  0.00    +0.000 OA
ATOM      3  N   UNL     1       7.728   7.402  17.889  0.00  0.00    +0.000 N 
ATOM      4  H   UNL     1       7.157   7.645  17.084  0.00  0.00    +0.000 HD
ENDROOT
BRANCH   1   9
ATOM      5  C   UNL     1       3.428   3.872  17.323  0.00  0.00    +0.000 C 
ATOM      6  N   UNL     1       4.802   4.297  17.194  0.00  0.00    +0.000 N 
ATOM      7  C   UNL     1       5.656   3.970  16.187  0.00  0.00    +0.000 A 
ATOM      8  C   UNL     1       6.840   4.601  16.479  0.00  0.00    +0.000 A 
ATOM      9  C   UNL     1       6.610   5.297  17.697  0.00  0.00    +0.000 A 
ATOM     10  N   UNL     1       5.346   5.103  18.132  0.00  0.00    +0.000 NA
ENDBRANCH   1   9
BRANCH   3  11
ATOM     11  N   UNL     1       8.582   8.290  18.470  0.00  0.00    +0.000 NA
ATOM     12  C   UNL     1       8.461   9.532  18.128  0.00  0.00    +0.000 C 
BRANCH  12  13
ATOM     13  C   UNL     1       9.342  10.561  18.726  0.00  0.00    +0.000 A 
ATOM     14  C   UNL     1      10.160  11.344  17.911  0.00  0.00    +0.000 A 
ATOM     15  C   UNL     1      10.973  12.281  18.521  0.00  0.00    +0.000 A 
ATOM     16  N   UNL     1      11.015  12.477  19.858  0.00  0.00    +0.000 NA
ATOM     17  C   UNL     1      10.209  11.705  20.617  0.00  0.00    +0.000 A 
ATOM     18  C   UNL     1       9.357  10.739  20.105  0.00  0.00    +0.000 A 
ENDBRANCH  12  13
ENDBRANCH   3  11
TORSDOF 3
ENDMDL
MODEL 4
REMARK VINA RESULT:      -6.3      1.207      1.536
REMARK  Name = 
REMARK  4 active torsions:
REMARK  status: ('A' for Active; 'I' for Inactive)
REMARK    1  A    between atoms: C_1  and  N_2
REMARK    2  A    between atoms: C_5  and  C_6
REMARK    3  A    between atoms: N_8  and  N_9
REMARK    4  A    between atoms: C_10  and  C_11
REMARK                            x       y       z     vdW  Elec       q    Type
REMARK                         _______ _______ _______ _____ _____    ______ ____
ROOT
ATOM      1  C   UNL     1       7.549   6.147  18.405  0.00  0.00    +0.000 C 
ATOM      2  O   UNL     1       8.056   5.810  19.472  0.00  0.00    +0.000 OA
ATOM      3  N   UNL     1       7.708   7.389  17.803  0.00  0.00    +0.000 N 
ATOM      4  H   UNL     1       7.232   7.552  16.921  0.00  0.00    +0.000 HD
ENDROOT
BRANCH   1   9
ATOM      5  C   UNL     1       3.734   3.400  17.175  0.00  0.00    +0.000 C 
ATOM      6  N   UNL     1       5.034   4.020  17.072  0.00  0.00    +0.000 N 
ATOM      7  C   UNL     1       5.920   3.874  16.049  0.00  0.00    +0.000 A 
ATOM      8  C   UNL     1       7.005   4.647  16.380  0.00  0.00    +0.000 A 
ATOM      9  C   UNL     1       6.688   5.232  17.635  0.00  0.00    +0.000 A 
ATOM     10  N   UNL     1       5.467   4.839  18.056  0.00  0.00    +0.000 NA
ENDBRANCH   1   9
BRANCH   3  11
ATOM     11  N   UNL     1       8.458   8.348  18.415  0.00  0.00    +0.000 NA
ATOM     12  C   UNL     1       8.321   9.562  17.988  0.00  0.00    +0.000 C 
BRANCH  12  13
ATOM     13  C   UNL     1       9.089  10.664  18.610  0.00  0.00    +0.000 A 
ATOM     14  C   UNL     1       9.606  10.521  19.897  0.00  0.00    +0.000 A 
ATOM     15  C   UNL     1      10.303  11.586  20.437  0.00  0.00    +0.000 A 
ATOM     16  N   UNL     1      10.509  12.751  19.785  0.00  0.00    +0.000 NA
ATOM     17  C   UNL     1       9.997  12.857  18.540  0.00  0.00    +0.000 A 
ATOM     18  C   UNL     1       9.285  11.849  17.909  0.00  0.00    +0.000 A 
ENDBRANCH  12  13
ENDBRANCH   3  11
TORSDOF 3
ENDMDL
MODEL 5
REMARK VINA RESULT:      -6.1      5.769      7.824
REMARK  Name = 
REMARK  4 active torsions:
REMARK  status: ('A' for Active; 'I' for Inactive)
REMARK    1  A    between atoms: C_1  and  N_2
REMARK    2  A    between atoms: C_5  and  C_6
REMARK    3  A    between atoms: N_8  and  N_9
REMARK    4  A    between atoms: C_10  and  C_11
REMARK                            x       y       z     vdW  Elec       q    Type
REMARK                         _______ _______ _______ _____ _____    ______ ____
ROOT
ATOM      1  C   UNL     1       5.427   4.792  16.069  0.00  0.00    +0.000 C 
ATOM      2  O   UNL     1       4.908   5.836  16.457  0.00  0.00    +0.000 OA
ATOM      3  N   UNL     1       5.376   3.578  16.743  0.00  0.00    +0.000 N 
ATOM      4  H   UNL     1       5.851   2.784  16.324  0.00  0.00    +0.000 HD
ENDROOT
BRANCH   1   9
ATOM      5  C   UNL     1       8.770   5.773  12.682  0.00  0.00    +0.000 C 
ATOM      6  N   UNL     1       7.633   5.137  13.306  0.00  0.00    +0.000 N 
ATOM      7  C   UNL     1       6.866   4.149  12.770  0.00  0.00    +0.000 A 
ATOM      8  C   UNL     1       5.916   3.857  13.717  0.00  0.00    +0.000 A 
ATOM      9  C   UNL     1       6.185   4.727  14.808  0.00  0.00    +0.000 A 
ATOM     10  N   UNL     1       7.249   5.516  14.544  0.00  0.00    +0.000 NA
ENDBRANCH   1   9
BRANCH   3  11
ATOM     11  N   UNL     1       4.731   3.493  17.940  0.00  0.00    +0.000 NA
ATOM     12  C   UNL     1       3.468   3.214  17.908  0.00  0.00    +0.000 C 
BRANCH  12  13
ATOM     13  C   UNL     1       2.697   3.089  19.166  0.00  0.00    +0.000 A 
ATOM     14  C   UNL     1       3.346   2.764  20.357  0.00  0.00    +0.000 A 
ATOM     15  C   UNL     1       2.578   2.646  21.501  0.00  0.00    +0.000 A 
ATOM     16  N   UNL     1       1.239   2.828  21.523  0.00  0.00    +0.000 NA
ATOM     17  C   UNL     1       0.642   3.143  20.354  0.00  0.00    +0.000 A 
ATOM     18  C   UNL     1       1.320   3.286  19.154  0.00  0.00    +0.000 A 
ENDBRANCH  12  13
ENDBRANCH   3  11
TORSDOF 3
ENDMDL
MODEL 6
REMARK VINA RESULT:      -6.0      5.595      7.810
REMARK  Name = 
REMARK  4 active torsions:
REMARK  status: ('A' for Active; 'I' for Inactive)
REMARK    1  A    between atoms: C_1  and  N_2
REMARK    2  A    between atoms: C_5  and  C_6
REMARK    3  A    between atoms: N_8  and  N_9
REMARK    4  A    between atoms: C_10  and  C_11
REMARK                            x       y       z     vdW  Elec       q    Type
REMARK                         _______ _______ _______ _____ _____    ______ ____
ROOT
ATOM      1  C   UNL     1       5.816   4.663  16.425  0.00  0.00    +0.000 C 
ATOM      2  O   UNL     1       6.509   4.849  17.422  0.00  0.00    +0.000 OA
ATOM      3  N   UNL     1       4.447   4.421  16.439  0.00  0.00    +0.000 N 
ATOM      4  H   UNL     1       3.983   4.276  15.547  0.00  0.00    +0.000 HD
ENDROOT
BRANCH   1   9
ATOM      5  C   UNL     1       8.670   5.849  12.676  0.00  0.00    +0.000 C 
ATOM      6  N   UNL     1       7.624   5.178  13.411  0.00  0.00    +0.000 N 
ATOM      7  C   UNL     1       6.779   4.227  12.926  0.00  0.00    +0.000 A 
ATOM      8  C   UNL     1       5.965   3.877  13.974  0.00  0.00    +0.000 A 
ATOM      9  C   UNL     1       6.391   4.676  15.069  0.00  0.00    +0.000 A 
ATOM     10  N   UNL     1       7.418   5.478  14.711  0.00  0.00    +0.000 NA
ENDBRANCH   1   9
BRANCH   3  11
ATOM     11  N   UNL     1       3.782   4.354  17.626  0.00  0.00    +0.000 NA
ATOM     12  C   UNL     1       3.478   3.175  18.064  0.00  0.00    +0.000 C 
BRANCH  12  13
ATOM     13  C   UNL     1       2.769   3.015  19.353  0.00  0.00    +0.000 A 
ATOM     14  C   UNL     1       1.404   3.291  19.442  0.00  0.00    +0.000 A 
ATOM     15  C   UNL     1       0.793   3.138  20.673  0.00  0.00    +0.000 A 
ATOM     16  N   UNL     1       1.445   2.739  21.787  0.00  0.00    +0.000 NA
ATOM     17  C   UNL     1       2.764   2.478  21.666  0.00  0.00    +0.000 A 
ATOM     18  C   UNL     1       3.470   2.598  20.479  0.00  0.00    +0.000 A 
ENDBRANCH  12  13
ENDBRANCH   3  11
TORSDOF 3
ENDMDL
MODEL 7
REMARK VINA RESULT:      -6.0      5.808      7.523
REMARK  Name = 
REMARK  4 active torsions:
REMARK  status: ('A' for Active; 'I' for Inactive)
REMARK    1  A    between atoms: C_1  and  N_2
REMARK    2  A    between atoms: C_5  and  C_6
REMARK    3  A    between atoms: N_8  and  N_9
REMARK    4  A    between atoms: C_10  and  C_11
REMARK                            x       y       z     vdW  Elec       q    Type
REMARK                         _______ _______ _______ _____ _____    ______ ____
ROOT
ATOM      1  C   UNL     1       6.350   4.251  16.054  0.00  0.00    +0.000 C 
ATOM      2  O   UNL     1       7.181   4.294  16.958  0.00  0.00    +0.000 OA
ATOM      3  N   UNL     1       4.993   4.015  16.229  0.00  0.00    +0.000 N 
ATOM      4  H   UNL     1       4.404   3.997  15.402  0.00  0.00    +0.000 HD
ENDROOT
BRANCH   1   9
ATOM      5  C   UNL     1       8.510   6.099  12.113  0.00  0.00    +0.000 C 
ATOM      6  N   UNL     1       7.658   5.242  12.902  0.00  0.00    +0.000 N 
ATOM      7  C   UNL     1       6.868   4.236  12.435  0.00  0.00    +0.000 A 
ATOM      8  C   UNL     1       6.251   3.700  13.537  0.00  0.00    +0.000 A 
ATOM      9  C   UNL     1       6.729   4.451  14.645  0.00  0.00    +0.000 A 
ATOM     10  N   UNL     1       7.599   5.403  14.242  0.00  0.00    +0.000 NA
ENDBRANCH   1   9
BRANCH   3  11
ATOM     11  N   UNL     1       4.500   3.785  17.479  0.00  0.00    +0.000 NA
ATOM     12  C   UNL     1       3.247   4.041  17.673  0.00  0.00    +0.000 C 
BRANCH  12  13
ATOM     13  C   UNL     1       2.631   3.805  18.998  0.00  0.00    +0.000 A 
ATOM     14  C   UNL     1       1.856   2.667  19.219  0.00  0.00    +0.000 A 
ATOM     15  C   UNL     1       1.293   2.501  20.471  0.00  0.00    +0.000 A 
ATOM     16  N   UNL     1       1.454   3.379  21.485  0.00  0.00    +0.000 NA
ATOM     17  C   UNL     1       2.212   4.469  21.239  0.00  0.00    +0.000 A 
ATOM     18  C   UNL     1       2.821   4.728  20.021  0.00  0.00    +0.000 A 
ENDBRANCH  12  13
ENDBRANCH   3  11
TORSDOF 3
ENDMDL
MODEL 8
REMARK VINA RESULT:      -6.0      1.710      1.976
REMARK  Name = 
REMARK  4 active torsions:
REMARK  status: ('A' for Active; 'I' for Inactive)
REMARK    1  A    between atoms: C_1  and  N_2
REMARK    2  A    between atoms: C_5  and  C_6
REMARK    3  A    between atoms: N_8  and  N_9
REMARK    4  A    between atoms: C_10  and  C_11
REMARK                            x       y       z     vdW  Elec       q    Type
REMARK                         _______ _______ _______ _____ _____    ______ ____
ROOT
ATOM      1  C   UNL     1       7.474   6.804  18.104  0.00  0.00    +0.000 C 
ATOM      2  O   UNL     1       8.231   6.402  18.983  0.00  0.00    +0.000 OA
ATOM      3  N   UNL     1       7.622   7.999  17.410  0.00  0.00    +0.000 N 
ATOM      4  H   UNL     1       6.925   8.228  16.707  0.00  0.00    +0.000 HD
ENDROOT
BRANCH   1   9
ATOM      5  C   UNL     1       3.811   3.614  18.238  0.00  0.00    +0.000 C 
ATOM      6  N   UNL     1       4.682   4.642  17.717  0.00  0.00    +0.000 N 
ATOM      7  C   UNL     1       4.585   5.240  16.499  0.00  0.00    +0.000 A 
ATOM      8  C   UNL     1       5.613   6.149  16.444  0.00  0.00    +0.000 A 
ATOM      9  C   UNL     1       6.291   6.031  17.687  0.00  0.00    +0.000 A 
ATOM     10  N   UNL     1       5.708   5.096  18.469  0.00  0.00    +0.000 NA
ENDBRANCH   1   9
BRANCH   3  11
ATOM     11  N   UNL     1       8.658   8.833  17.707  0.00  0.00    +0.000 NA
ATOM     12  C   UNL     1       8.391   9.863  18.443  0.00  0.00    +0.000 C 
BRANCH  12  13
ATOM     13  C   UNL     1       9.464  10.808  18.823  0.00  0.00    +0.000 A 
ATOM     14  C   UNL     1       9.701  11.098  20.166  0.00  0.00    +0.000 A 
ATOM     15  C   UNL     1      10.707  11.999  20.466  0.00  0.00    +0.000 A 
ATOM     16  N   UNL     1      11.467  12.609  19.530  0.00  0.00    +0.000 NA
ATOM     17  C   UNL     1      11.213  12.305  18.240  0.00  0.00    +0.000 A 
ATOM     18  C   UNL     1      10.231  11.416  17.834  0.00  0.00    +0.000 A 
ENDBRANCH  12  13
ENDBRANCH   3  11
TORSDOF 3
ENDMDL
MODEL 9
REMARK VINA RESULT:      -6.0      5.847      7.732
REMARK  Name = 
REMARK  4 active torsions:
REMARK  status: ('A' for Active; 'I' for Inactive)
REMARK    1  A    between atoms: C_1  and  N_2
REMARK    2  A    between atoms: C_5  and  C_6
REMARK    3  A    between atoms: N_8  and  N_9
REMARK    4  A    between atoms: C_10  and  C_11
REMARK                            x       y       z     vdW  Elec       q    Type
REMARK                         _______ _______ _______ _____ _____    ______ ____
ROOT
ATOM      1  C   UNL     1       4.563   4.457  18.551  0.00  0.00    +0.000 C 
ATOM      2  O   UNL     1       5.729   4.140  18.772  0.00  0.00    +0.000 OA
ATOM      3  N   UNL     1       4.083   4.939  17.340  0.00  0.00    +0.000 N 
ATOM      4  H   UNL     1       3.097   5.175  17.281  0.00  0.00    +0.000 HD
ENDROOT
BRANCH   1   9
ATOM      5  C   UNL     1       1.608   2.543  21.901  0.00  0.00    +0.000 C 
ATOM      6  N   UNL     1       2.217   3.547  21.059  0.00  0.00    +0.000 N 
ATOM      7  C   UNL     1       1.914   4.873  21.036  0.00  0.00    +0.000 A 
ATOM      8  C   UNL     1       2.742   5.432  20.095  0.00  0.00    +0.000 A 
ATOM      9  C   UNL     1       3.524   4.358  19.591  0.00  0.00    +0.000 A 
ATOM     10  N   UNL     1       3.192   3.195  20.193  0.00  0.00    +0.000 NA
ENDBRANCH   1   9
BRANCH   3  11
ATOM     11  N   UNL     1       4.937   5.110  16.292  0.00  0.00    +0.000 NA
ATOM     12  C   UNL     1       5.021   4.142  15.437  0.00  0.00    +0.000 C 
BRANCH  12  13
ATOM     13  C   UNL     1       5.914   4.256  14.263  0.00  0.00    +0.000 A 
ATOM     14  C   UNL     1       5.631   3.549  13.094  0.00  0.00    +0.000 A 
ATOM     15  C   UNL     1       6.505   3.680  12.031  0.00  0.00    +0.000 A 
ATOM     16  N   UNL     1       7.614   4.452  12.066  0.00  0.00    +0.000 NA
ATOM     17  C   UNL     1       7.858   5.124  13.212  0.00  0.00    +0.000 A 
ATOM     18  C   UNL     1       7.045   5.063  14.332  0.00  0.00    +0.000 A 
ENDBRANCH  12  13
ENDBRANCH   3  11
TORSDOF 3
ENDMDL
