MODEL 1
REMARK VINA RESULT:      -9.3      0.000      0.000
REMARK  Name = 
REMARK  3 active torsions:
REMARK  status: ('A' for Active; 'I' for Inactive)
REMARK    1  A    between atoms: C_12  and  N_13
REMARK    2  A    between atoms: N_13  and  C_14
REMARK    3  A    between atoms: C_20  and  C_21
REMARK                            x       y       z     vdW  Elec       q    Type
REMARK                         _______ _______ _______ _____ _____    ______ ____
ROOT
ATOM      1  O   UNL     1       2.522   8.857  17.121  0.00  0.00    +0.000 OA
ATOM      2  C   UNL     1       2.225   8.398  18.220  0.00  0.00    +0.000 A 
ATOM      3  N   UNL     1       1.322   9.045  18.997  0.00  0.00    +0.000 N 
ATOM      4  C   UNL     1       0.995   8.652  20.259  0.00  0.00    +0.000 A 
ATOM      5  N   UNL     1       0.130   9.460  20.963  0.00  0.00    +0.000 N 
ATOM      6  C   UNL     1      -0.185  10.858  20.638  0.00  0.00    +0.000 C 
ATOM      7  C   UNL     1      -0.126  11.732  21.898  0.00  0.00    +0.000 C 
ATOM      8  O   UNL     1      -0.992  11.226  22.920  0.00  0.00    +0.000 OA
ATOM      9  C   UNL     1      -0.578   9.901  23.295  0.00  0.00    +0.000 C 
ATOM     10  C   UNL     1      -0.640   8.935  22.105  0.00  0.00    +0.000 C 
ATOM     11  N   UNL     1       1.486   7.557  20.751  0.00  0.00    +0.000 NA
ATOM     12  C   UNL     1       2.396   6.795  20.037  0.00  0.00    +0.000 A 
ATOM     13  C   UNL     1       2.798   7.164  18.794  0.00  0.00    +0.000 A 
ATOM     14  H   UNL     1       0.900   9.851  18.574  0.00  0.00    +0.000 HD
ENDROOT
BRANCH  13  15
ATOM     15  C   UNL     1       3.680   6.387  17.981  0.00  0.00    +0.000 A 
ATOM     16  N   UNL     1       3.439   5.180  17.470  0.00  0.00    +0.000 NA
ATOM     17  C   UNL     1       4.560   4.859  16.742  0.00  0.00    +0.000 A 
ATOM     18  C   UNL     1       4.880   3.731  15.981  0.00  0.00    +0.000 A 
ATOM     19  C   UNL     1       6.124   3.697  15.335  0.00  0.00    +0.000 A 
ATOM     20  C   UNL     1       7.026   4.768  15.444  0.00  0.00    +0.000 A 
ATOM     21  C   UNL     1       6.715   5.904  16.198  0.00  0.00    +0.000 A 
ATOM     22  C   UNL     1       5.472   5.891  16.817  0.00  0.00    +0.000 A 
ATOM     23  O   UNL     1       4.928   6.865  17.589  0.00  0.00    +0.000 OA
ENDBRANCH  13  15
BRANCH  12  24
ATOM     24  N   UNL     1       2.869   5.618  20.664  0.00  0.00    +0.000 N 
ATOM     25  H   UNL     1       3.604   5.208  20.074  0.00  0.00    +0.000 HD
BRANCH  24  26
ATOM     26  C   UNL     1       1.897   4.547  20.989  0.00  0.00    +0.000 C 
ATOM     27  C   UNL     1       2.606   3.243  21.378  0.00  0.00    +0.000 C 
ATOM     28  C   UNL     1       2.930   2.328  20.195  0.00  0.00    +0.000 C 
ATOM     29  C   UNL     1       1.753   2.176  19.239  0.00  0.00    +0.000 C 
ATOM     30  N   UNL     1       1.334   3.481  18.736  0.00  0.00    +0.000 NA
ATOM     31  C   UNL     1       0.870   4.326  19.843  0.00  0.00    +0.000 C 
ATOM     32  H   UNL     1       0.577   3.360  18.064  0.00  0.00    +0.000 HD
ENDBRANCH  24  26
ENDBRANCH  12  24
TORSDOF 3
ENDMDL
MODEL 2
REMARK VINA RESULT:      -9.1      0.620      1.097
REMARK  Name = 
REMARK  3 active torsions:
REMARK  status: ('A' for Active; 'I' for Inactive)
REMARK    1  A    between atoms: C_12  and  N_13
REMARK    2  A    between atoms: N_13  and  C_14
REMARK    3  A    between atoms: C_20  and  C_21
REMARK                            x       y       z     vdW  Elec       q    Type
REMARK                         _______ _______ _______ _____ _____    ______ ____
ROOT
ATOM      1  O   UNL     1       2.503   9.092  17.103  0.00  0.00    +0.000 OA
ATOM      2  C   UNL     1       2.216   8.585  18.183  0.00  0.00    +0.000 A 
ATOM      3  N   UNL     1       1.296   9.181  18.981  0.00  0.00    +0.000 N 
ATOM      4  C   UNL     1       0.977   8.733  20.227  0.00  0.00    +0.000 A 
ATOM      5  N   UNL     1       0.090   9.494  20.958  0.00  0.00    +0.000 N 
ATOM      6  C   UNL     1      -0.258  10.895  20.684  0.00  0.00    +0.000 C 
ATOM      7  C   UNL     1      -0.223  11.722  21.976  0.00  0.00    +0.000 C 
ATOM      8  O   UNL     1      -1.079  11.157  22.976  0.00  0.00    +0.000 OA
ATOM      9  C   UNL     1      -0.633   9.831  23.303  0.00  0.00    +0.000 C 
ATOM     10  C   UNL     1      -0.669   8.908  22.078  0.00  0.00    +0.000 C 
ATOM     11  N   UNL     1       1.493   7.634  20.679  0.00  0.00    +0.000 NA
ATOM     12  C   UNL     1       2.423   6.921  19.940  0.00  0.00    +0.000 A 
ATOM     13  C   UNL     1       2.818   7.346  18.713  0.00  0.00    +0.000 A 
ATOM     14  H   UNL     1       0.855   9.992  18.587  0.00  0.00    +0.000 HD
ENDROOT
BRANCH  13  15
ATOM     15  C   UNL     1       3.720   6.621  17.874  0.00  0.00    +0.000 A 
ATOM     16  N   UNL     1       4.874   7.060  17.375  0.00  0.00    +0.000 NA
ATOM     17  C   UNL     1       5.392   6.006  16.662  0.00  0.00    +0.000 A 
ATOM     18  C   UNL     1       6.577   5.872  15.932  0.00  0.00    +0.000 A 
ATOM     19  C   UNL     1       6.837   4.643  15.309  0.00  0.00    +0.000 A 
ATOM     20  C   UNL     1       5.936   3.572  15.415  0.00  0.00    +0.000 A 
ATOM     21  C   UNL     1       4.750   3.692  16.147  0.00  0.00    +0.000 A 
ATOM     22  C   UNL     1       4.537   4.926  16.747  0.00  0.00    +0.000 A 
ATOM     23  O   UNL     1       3.482   5.297  17.513  0.00  0.00    +0.000 OA
ENDBRANCH  13  15
BRANCH  12  24
ATOM     24  N   UNL     1       2.924   5.734  20.525  0.00  0.00    +0.000 N 
ATOM     25  H   UNL     1       3.639   5.340  19.900  0.00  0.00    +0.000 HD
BRANCH  24  26
ATOM     26  C   UNL     1       1.969   4.651  20.861  0.00  0.00    +0.000 C 
ATOM     27  C   UNL     1       2.694   3.403  21.382  0.00  0.00    +0.000 C 
ATOM     28  C   UNL     1       3.124   2.425  20.287  0.00  0.00    +0.000 C 
ATOM     29  C   UNL     1       2.018   2.165  19.272  0.00  0.00    +0.000 C 
ATOM     30  N   UNL     1       1.589   3.417  18.656  0.00  0.00    +0.000 NA
ATOM     31  C   UNL     1       1.026   4.316  19.671  0.00  0.00    +0.000 C 
ATOM     32  H   UNL     1       0.881   3.223  17.948  0.00  0.00    +0.000 HD
ENDBRANCH  24  26
ENDBRANCH  12  24
TORSDOF 3
ENDMDL
MODEL 3
REMARK VINA RESULT:      -8.3      1.504      7.016
REMARK  Name = 
REMARK  3 active torsions:
REMARK  status: ('A' for Active; 'I' for Inactive)
REMARK    1  A    between atoms: C_12  and  N_13
REMARK    2  A    between atoms: N_13  and  C_14
REMARK    3  A    between atoms: C_20  and  C_21
REMARK                            x       y       z     vdW  Elec       q    Type
REMARK                         _______ _______ _______ _____ _____    ______ ____
ROOT
ATOM      1  O   UNL     1       2.456   9.336  17.563  0.00  0.00    +0.000 OA
ATOM      2  C   UNL     1       2.845   8.254  17.994  0.00  0.00    +0.000 A 
ATOM      3  N   UNL     1       3.750   7.535  17.285  0.00  0.00    +0.000 N 
ATOM      4  C   UNL     1       4.173   6.292  17.647  0.00  0.00    +0.000 A 
ATOM      5  N   UNL     1       5.026   5.644  16.780  0.00  0.00    +0.000 N 
ATOM      6  C   UNL     1       5.233   5.994  15.368  0.00  0.00    +0.000 C 
ATOM      7  C   UNL     1       5.194   4.737  14.489  0.00  0.00    +0.000 C 
ATOM      8  O   UNL     1       6.148   3.765  14.932  0.00  0.00    +0.000 OA
ATOM      9  C   UNL     1       5.840   3.359  16.276  0.00  0.00    +0.000 C 
ATOM     10  C   UNL     1       5.893   4.547  17.247  0.00  0.00    +0.000 C 
ATOM     11  N   UNL     1       3.781   5.767  18.765  0.00  0.00    +0.000 NA
ATOM     12  C   UNL     1       2.880   6.422  19.589  0.00  0.00    +0.000 A 
ATOM     13  C   UNL     1       2.384   7.641  19.256  0.00  0.00    +0.000 A 
ATOM     14  H   UNL     1       4.095   7.985  16.458  0.00  0.00    +0.000 HD
ENDROOT
BRANCH  13  15
ATOM     15  C   UNL     1       1.507   8.397  20.093  0.00  0.00    +0.000 A 
ATOM     16  N   UNL     1       1.301   8.224  21.397  0.00  0.00    +0.000 NA
ATOM     17  C   UNL     1       0.406   9.201  21.762  0.00  0.00    +0.000 A 
ATOM     18  C   UNL     1      -0.171   9.517  22.996  0.00  0.00    +0.000 A 
ATOM     19  C   UNL     1      -1.063  10.598  23.053  0.00  0.00    +0.000 A 
ATOM     20  C   UNL     1      -1.368  11.347  21.906  0.00  0.00    +0.000 A 
ATOM     21  C   UNL     1      -0.794  11.043  20.667  0.00  0.00    +0.000 A 
ATOM     22  C   UNL     1       0.083   9.966  20.660  0.00  0.00    +0.000 A 
ATOM     23  O   UNL     1       0.775   9.476  19.602  0.00  0.00    +0.000 OA
ENDBRANCH  13  15
BRANCH  12  24
ATOM     24  N   UNL     1       2.519   5.763  20.787  0.00  0.00    +0.000 N 
ATOM     25  H   UNL     1       3.374   5.414  21.238  0.00  0.00    +0.000 HD
BRANCH  24  26
ATOM     26  C   UNL     1       1.554   4.640  20.715  0.00  0.00    +0.000 C 
ATOM     27  C   UNL     1       1.983   3.470  21.611  0.00  0.00    +0.000 C 
ATOM     28  C   UNL     1       2.914   2.465  20.929  0.00  0.00    +0.000 C 
ATOM     29  C   UNL     1       2.432   2.082  19.535  0.00  0.00    +0.000 C 
ATOM     30  N   UNL     1       2.308   3.268  18.695  0.00  0.00    +0.000 NA
ATOM     31  C   UNL     1       1.302   4.181  19.251  0.00  0.00    +0.000 C 
ATOM     32  H   UNL     1       2.030   2.992  17.754  0.00  0.00    +0.000 HD
ENDBRANCH  24  26
ENDBRANCH  12  24
TORSDOF 3
ENDMDL
MODEL 4
REMARK VINA RESULT:      -8.2      1.041      1.585
REMARK  Name = 
REMARK  3 active torsions:
REMARK  status: ('A' for Active; 'I' for Inactive)
REMARK    1  A    between atoms: C_12  and  N_13
REMARK    2  A    between atoms: N_13  and  C_14
REMARK    3  A    between atoms: C_20  and  C_21
REMARK                            x       y       z     vdW  Elec       q    Type
REMARK                         _______ _______ _______ _____ _____    ______ ____
ROOT
ATOM      1  O   UNL     1       2.688   9.143  17.054  0.00  0.00    +0.000 OA
ATOM      2  C   UNL     1       2.372   8.591  18.103  0.00  0.00    +0.000 A 
ATOM      3  N   UNL     1       1.431   9.154  18.901  0.00  0.00    +0.000 N 
ATOM      4  C   UNL     1       1.078   8.654  20.117  0.00  0.00    +0.000 A 
ATOM      5  N   UNL     1       0.173   9.383  20.857  0.00  0.00    +0.000 N 
ATOM      6  C   UNL     1      -0.167  10.795  20.634  0.00  0.00    +0.000 C 
ATOM      7  C   UNL     1      -0.167  11.567  21.960  0.00  0.00    +0.000 C 
ATOM      8  O   UNL     1      -1.048  10.961  22.912  0.00  0.00    +0.000 OA
ATOM      9  C   UNL     1      -0.612   9.621  23.194  0.00  0.00    +0.000 C 
ATOM     10  C   UNL     1      -0.616   8.751  21.930  0.00  0.00    +0.000 C 
ATOM     11  N   UNL     1       1.583   7.535  20.536  0.00  0.00    +0.000 NA
ATOM     12  C   UNL     1       2.531   6.853  19.792  0.00  0.00    +0.000 A 
ATOM     13  C   UNL     1       2.959   7.329  18.595  0.00  0.00    +0.000 A 
ATOM     14  H   UNL     1       1.001   9.981  18.531  0.00  0.00    +0.000 HD
ENDROOT
BRANCH  13  15
ATOM     15  C   UNL     1       3.883   6.640  17.750  0.00  0.00    +0.000 A 
ATOM     16  N   UNL     1       5.121   7.022  17.440  0.00  0.00    +0.000 NA
ATOM     17  C   UNL     1       5.621   6.029  16.632  0.00  0.00    +0.000 A 
ATOM     18  C   UNL     1       6.865   5.877  16.012  0.00  0.00    +0.000 A 
ATOM     19  C   UNL     1       7.083   4.727  15.239  0.00  0.00    +0.000 A 
ATOM     20  C   UNL     1       6.085   3.752  15.092  0.00  0.00    +0.000 A 
ATOM     21  C   UNL     1       4.838   3.891  15.712  0.00  0.00    +0.000 A 
ATOM     22  C   UNL     1       4.669   5.044  16.467  0.00  0.00    +0.000 A 
ATOM     23  O   UNL     1       3.571   5.412  17.172  0.00  0.00    +0.000 OA
ENDBRANCH  13  15
BRANCH  12  24
ATOM     24  N   UNL     1       3.016   5.641  20.339  0.00  0.00    +0.000 N 
ATOM     25  H   UNL     1       4.039   5.628  20.244  0.00  0.00    +0.000 HD
BRANCH  24  26
ATOM     26  C   UNL     1       2.494   4.362  19.802  0.00  0.00    +0.000 C 
ATOM     27  C   UNL     1       1.194   3.946  20.505  0.00  0.00    +0.000 C 
ATOM     28  C   UNL     1       1.405   3.111  21.769  0.00  0.00    +0.000 C 
ATOM     29  C   UNL     1       2.427   1.999  21.568  0.00  0.00    +0.000 C 
ATOM     30  N   UNL     1       3.707   2.556  21.142  0.00  0.00    +0.000 NA
ATOM     31  C   UNL     1       3.561   3.233  19.848  0.00  0.00    +0.000 C 
ATOM     32  H   UNL     1       4.393   1.806  21.056  0.00  0.00    +0.000 HD
ENDBRANCH  24  26
ENDBRANCH  12  24
TORSDOF 3
ENDMDL
MODEL 5
REMARK VINA RESULT:      -8.1      0.849      1.155
REMARK  Name = 
REMARK  3 active torsions:
REMARK  status: ('A' for Active; 'I' for Inactive)
REMARK    1  A    between atoms: C_12  and  N_13
REMARK    2  A    between atoms: N_13  and  C_14
REMARK    3  A    between atoms: C_20  and  C_21
REMARK                            x       y       z     vdW  Elec       q    Type
REMARK                         _______ _______ _______ _____ _____    ______ ____
ROOT
ATOM      1  O   UNL     1       2.700   8.974  17.062  0.00  0.00    +0.000 OA
ATOM      2  C   UNL     1       2.368   8.470  18.130  0.00  0.00    +0.000 A 
ATOM      3  N   UNL     1       1.453   9.094  18.912  0.00  0.00    +0.000 N 
ATOM      4  C   UNL     1       1.089   8.649  20.146  0.00  0.00    +0.000 A 
ATOM      5  N   UNL     1       0.216   9.436  20.864  0.00  0.00    +0.000 N 
ATOM      6  C   UNL     1      -0.073  10.852  20.595  0.00  0.00    +0.000 C 
ATOM      7  C   UNL     1      -0.036  11.667  21.895  0.00  0.00    +0.000 C 
ATOM      8  O   UNL     1      -0.935  11.127  22.870  0.00  0.00    +0.000 OA
ATOM      9  C   UNL     1      -0.548   9.782  23.195  0.00  0.00    +0.000 C 
ATOM     10  C   UNL     1      -0.591   8.871  21.961  0.00  0.00    +0.000 C 
ATOM     11  N   UNL     1       1.553   7.526  20.601  0.00  0.00    +0.000 NA
ATOM     12  C   UNL     1       2.471   6.785  19.876  0.00  0.00    +0.000 A 
ATOM     13  C   UNL     1       2.911   7.204  18.662  0.00  0.00    +0.000 A 
ATOM     14  H   UNL     1       1.053   9.924  18.516  0.00  0.00    +0.000 HD
ENDROOT
BRANCH  13  15
ATOM     15  C   UNL     1       3.803   6.452  17.837  0.00  0.00    +0.000 A 
ATOM     16  N   UNL     1       3.515   5.351  17.145  0.00  0.00    +0.000 NA
ATOM     17  C   UNL     1       4.675   5.014  16.490  0.00  0.00    +0.000 A 
ATOM     18  C   UNL     1       4.975   3.965  15.615  0.00  0.00    +0.000 A 
ATOM     19  C   UNL     1       6.274   3.890  15.092  0.00  0.00    +0.000 A 
ATOM     20  C   UNL     1       7.248   4.841  15.431  0.00  0.00    +0.000 A 
ATOM     21  C   UNL     1       6.958   5.898  16.301  0.00  0.00    +0.000 A 
ATOM     22  C   UNL     1       5.660   5.931  16.792  0.00  0.00    +0.000 A 
ATOM     23  O   UNL     1       5.123   6.848  17.635  0.00  0.00    +0.000 OA
ENDBRANCH  13  15
BRANCH  12  24
ATOM     24  N   UNL     1       2.913   5.575  20.461  0.00  0.00    +0.000 N 
ATOM     25  H   UNL     1       3.941   5.565  20.454  0.00  0.00    +0.000 HD
BRANCH  24  26
ATOM     26  C   UNL     1       2.444   4.294  19.881  0.00  0.00    +0.000 C 
ATOM     27  C   UNL     1       1.123   3.838  20.517  0.00  0.00    +0.000 C 
ATOM     28  C   UNL     1       1.295   2.986  21.777  0.00  0.00    +0.000 C 
ATOM     29  C   UNL     1       2.350   1.900  21.605  0.00  0.00    +0.000 C 
ATOM     30  N   UNL     1       3.635   2.491  21.247  0.00  0.00    +0.000 NA
ATOM     31  C   UNL     1       3.533   3.187  19.958  0.00  0.00    +0.000 C 
ATOM     32  H   UNL     1       4.340   1.758  21.180  0.00  0.00    +0.000 HD
ENDBRANCH  24  26
ENDBRANCH  12  24
TORSDOF 3
ENDMDL
MODEL 6
REMARK VINA RESULT:      -8.1      1.539      7.034
REMARK  Name = 
REMARK  3 active torsions:
REMARK  status: ('A' for Active; 'I' for Inactive)
REMARK    1  A    between atoms: C_12  and  N_13
REMARK    2  A    between atoms: N_13  and  C_14
REMARK    3  A    between atoms: C_20  and  C_21
REMARK                            x       y       z     vdW  Elec       q    Type
REMARK                         _______ _______ _______ _____ _____    ______ ____
ROOT
ATOM      1  O   UNL     1       2.553   9.371  17.395  0.00  0.00    +0.000 OA
ATOM      2  C   UNL     1       2.910   8.290  17.854  0.00  0.00    +0.000 A 
ATOM      3  N   UNL     1       3.808   7.536  17.174  0.00  0.00    +0.000 N 
ATOM      4  C   UNL     1       4.197   6.292  17.567  0.00  0.00    +0.000 A 
ATOM      5  N   UNL     1       5.048   5.606  16.727  0.00  0.00    +0.000 N 
ATOM      6  C   UNL     1       5.284   5.921  15.311  0.00  0.00    +0.000 C 
ATOM      7  C   UNL     1       5.228   4.647  14.458  0.00  0.00    +0.000 C 
ATOM      8  O   UNL     1       6.152   3.663  14.935  0.00  0.00    +0.000 OA
ATOM      9  C   UNL     1       5.816   3.294  16.282  0.00  0.00    +0.000 C 
ATOM     10  C   UNL     1       5.882   4.499  17.229  0.00  0.00    +0.000 C 
ATOM     11  N   UNL     1       3.777   5.799  18.690  0.00  0.00    +0.000 NA
ATOM     12  C   UNL     1       2.880   6.492  19.486  0.00  0.00    +0.000 A 
ATOM     13  C   UNL     1       2.417   7.715  19.121  0.00  0.00    +0.000 A 
ATOM     14  H   UNL     1       4.176   7.961  16.343  0.00  0.00    +0.000 HD
ENDROOT
BRANCH  13  15
ATOM     15  C   UNL     1       1.546   8.509  19.929  0.00  0.00    +0.000 A 
ATOM     16  N   UNL     1       0.758   9.501  19.517  0.00  0.00    +0.000 NA
ATOM     17  C   UNL     1       0.095   9.935  20.640  0.00  0.00    +0.000 A 
ATOM     18  C   UNL     1      -0.860  10.939  20.823  0.00  0.00    +0.000 A 
ATOM     19  C   UNL     1      -1.367  11.144  22.115  0.00  0.00    +0.000 A 
ATOM     20  C   UNL     1      -0.933  10.362  23.197  0.00  0.00    +0.000 A 
ATOM     21  C   UNL     1       0.019   9.351  23.024  0.00  0.00    +0.000 A 
ATOM     22  C   UNL     1       0.490   9.185  21.729  0.00  0.00    +0.000 A 
ATOM     23  O   UNL     1       1.399   8.277  21.294  0.00  0.00    +0.000 OA
ENDBRANCH  13  15
BRANCH  12  24
ATOM     24  N   UNL     1       2.486   5.866  20.692  0.00  0.00    +0.000 N 
ATOM     25  H   UNL     1       3.327   5.518  21.168  0.00  0.00    +0.000 HD
BRANCH  24  26
ATOM     26  C   UNL     1       1.508   4.754  20.627  0.00  0.00    +0.000 C 
ATOM     27  C   UNL     1       1.895   3.608  21.571  0.00  0.00    +0.000 C 
ATOM     28  C   UNL     1       2.830   2.570  20.946  0.00  0.00    +0.000 C 
ATOM     29  C   UNL     1       2.383   2.150  19.552  0.00  0.00    +0.000 C 
ATOM     30  N   UNL     1       2.299   3.311  18.673  0.00  0.00    +0.000 NA
ATOM     31  C   UNL     1       1.291   4.254  19.172  0.00  0.00    +0.000 C 
ATOM     32  H   UNL     1       2.043   3.009  17.733  0.00  0.00    +0.000 HD
ENDBRANCH  24  26
ENDBRANCH  12  24
TORSDOF 3
ENDMDL
MODEL 7
REMARK VINA RESULT:      -7.6      3.653      6.739
REMARK  Name = 
REMARK  3 active torsions:
REMARK  status: ('A' for Active; 'I' for Inactive)
REMARK    1  A    between atoms: C_12  and  N_13
REMARK    2  A    between atoms: N_13  and  C_14
REMARK    3  A    between atoms: C_20  and  C_21
REMARK                            x       y       z     vdW  Elec       q    Type
REMARK                         _______ _______ _______ _____ _____    ______ ____
ROOT
ATOM      1  O   UNL     1       0.267  10.430  23.069  0.00  0.00    +0.000 OA
ATOM      2  C   UNL     1      -0.431  11.034  22.261  0.00  0.00    +0.000 A 
ATOM      3  N   UNL     1      -1.226  12.048  22.684  0.00  0.00    +0.000 N 
ATOM      4  C   UNL     1      -2.090  12.717  21.872  0.00  0.00    +0.000 A 
ATOM      5  N   UNL     1      -2.901  13.662  22.462  0.00  0.00    +0.000 N 
ATOM      6  C   UNL     1      -3.180  13.766  23.901  0.00  0.00    +0.000 C 
ATOM      7  C   UNL     1      -4.683  13.957  24.147  0.00  0.00    +0.000 C 
ATOM      8  O   UNL     1      -5.183  15.094  23.434  0.00  0.00    +0.000 OA
ATOM      9  C   UNL     1      -5.000  14.902  22.022  0.00  0.00    +0.000 C 
ATOM     10  C   UNL     1      -3.516  14.739  21.666  0.00  0.00    +0.000 C 
ATOM     11  N   UNL     1      -2.126  12.461  20.602  0.00  0.00    +0.000 NA
ATOM     12  C   UNL     1      -1.336  11.467  20.048  0.00  0.00    +0.000 A 
ATOM     13  C   UNL     1      -0.493  10.732  20.817  0.00  0.00    +0.000 A 
ATOM     14  H   UNL     1      -1.135  12.280  23.656  0.00  0.00    +0.000 HD
ENDROOT
BRANCH  13  15
ATOM     15  C   UNL     1       0.396   9.741  20.297  0.00  0.00    +0.000 A 
ATOM     16  N   UNL     1       0.741   8.593  20.879  0.00  0.00    +0.000 NA
ATOM     17  C   UNL     1       1.584   7.969  19.990  0.00  0.00    +0.000 A 
ATOM     18  C   UNL     1       2.249   6.740  20.050  0.00  0.00    +0.000 A 
ATOM     19  C   UNL     1       3.050   6.367  18.960  0.00  0.00    +0.000 A 
ATOM     20  C   UNL     1       3.180   7.199  17.837  0.00  0.00    +0.000 A 
ATOM     21  C   UNL     1       2.515   8.428  17.765  0.00  0.00    +0.000 A 
ATOM     22  C   UNL     1       1.734   8.754  18.866  0.00  0.00    +0.000 A 
ATOM     23  O   UNL     1       0.985   9.871  19.041  0.00  0.00    +0.000 OA
ENDBRANCH  13  15
BRANCH  12  24
ATOM     24  N   UNL     1      -1.450  11.269  18.652  0.00  0.00    +0.000 N 
ATOM     25  H   UNL     1      -1.586  12.183  18.203  0.00  0.00    +0.000 HD
BRANCH  24  26
ATOM     26  C   UNL     1      -2.505  10.356  18.149  0.00  0.00    +0.000 C 
ATOM     27  C   UNL     1      -2.126   9.756  16.788  0.00  0.00    +0.000 C 
ATOM     28  C   UNL     1      -2.553  10.603  15.588  0.00  0.00    +0.000 C 
ATOM     29  C   UNL     1      -3.988  11.102  15.710  0.00  0.00    +0.000 C 
ATOM     30  N   UNL     1      -4.153  11.883  16.931  0.00  0.00    +0.000 NA
ATOM     31  C   UNL     1      -3.898  11.043  18.109  0.00  0.00    +0.000 C 
ATOM     32  H   UNL     1      -5.104  12.247  16.977  0.00  0.00    +0.000 HD
ENDBRANCH  24  26
ENDBRANCH  12  24
TORSDOF 3
ENDMDL
MODEL 8
REMARK VINA RESULT:      -7.5      4.398      7.628
REMARK  Name = 
REMARK  3 active torsions:
REMARK  status: ('A' for Active; 'I' for Inactive)
REMARK    1  A    between atoms: C_12  and  N_13
REMARK    2  A    between atoms: N_13  and  C_14
REMARK    3  A    between atoms: C_20  and  C_21
REMARK                            x       y       z     vdW  Elec       q    Type
REMARK                         _______ _______ _______ _____ _____    ______ ____
ROOT
ATOM      1  O   UNL     1      -0.842  11.606  23.049  0.00  0.00    +0.000 OA
ATOM      2  C   UNL     1      -1.553  12.113  22.187  0.00  0.00    +0.000 A 
ATOM      3  N   UNL     1      -2.436  13.083  22.530  0.00  0.00    +0.000 N 
ATOM      4  C   UNL     1      -3.318  13.642  21.656  0.00  0.00    +0.000 A 
ATOM      5  N   UNL     1      -4.218  14.551  22.168  0.00  0.00    +0.000 N 
ATOM      6  C   UNL     1      -4.557  14.705  23.590  0.00  0.00    +0.000 C 
ATOM      7  C   UNL     1      -6.077  14.793  23.775  0.00  0.00    +0.000 C 
ATOM      8  O   UNL     1      -6.635  15.851  22.988  0.00  0.00    +0.000 OA
ATOM      9  C   UNL     1      -6.386  15.602  21.594  0.00  0.00    +0.000 C 
ATOM     10  C   UNL     1      -4.882  15.536  21.295  0.00  0.00    +0.000 C 
ATOM     11  N   UNL     1      -3.288  13.320  20.400  0.00  0.00    +0.000 NA
ATOM     12  C   UNL     1      -2.406  12.363  19.926  0.00  0.00    +0.000 A 
ATOM     13  C   UNL     1      -1.538  11.734  20.760  0.00  0.00    +0.000 A 
ATOM     14  H   UNL     1      -2.398  13.370  23.490  0.00  0.00    +0.000 HD
ENDROOT
BRANCH  13  15
ATOM     15  C   UNL     1      -0.560  10.789  20.322  0.00  0.00    +0.000 A 
ATOM     16  N   UNL     1      -0.121   9.725  20.993  0.00  0.00    +0.000 NA
ATOM     17  C   UNL     1       0.783   9.112  20.160  0.00  0.00    +0.000 A 
ATOM     18  C   UNL     1       1.554   7.955  20.317  0.00  0.00    +0.000 A 
ATOM     19  C   UNL     1       2.397   7.572  19.264  0.00  0.00    +0.000 A 
ATOM     20  C   UNL     1       2.466   8.324  18.081  0.00  0.00    +0.000 A 
ATOM     21  C   UNL     1       1.696   9.480  17.910  0.00  0.00    +0.000 A 
ATOM     22  C   UNL     1       0.877   9.818  18.979  0.00  0.00    +0.000 A 
ATOM     23  O   UNL     1       0.030  10.875  19.064  0.00  0.00    +0.000 OA
ENDBRANCH  13  15
BRANCH  12  24
ATOM     24  N   UNL     1      -2.454  12.086  18.540  0.00  0.00    +0.000 N 
ATOM     25  H   UNL     1      -2.579  12.973  18.035  0.00  0.00    +0.000 HD
BRANCH  24  26
ATOM     26  C   UNL     1      -3.474  11.133  18.041  0.00  0.00    +0.000 C 
ATOM     27  C   UNL     1      -2.852   9.774  17.693  0.00  0.00    +0.000 C 
ATOM     28  C   UNL     1      -2.330   9.671  16.259  0.00  0.00    +0.000 C 
ATOM     29  C   UNL     1      -3.320  10.220  15.239  0.00  0.00    +0.000 C 
ATOM     30  N   UNL     1      -3.637  11.613  15.536  0.00  0.00    +0.000 NA
ATOM     31  C   UNL     1      -4.284  11.718  16.850  0.00  0.00    +0.000 C 
ATOM     32  H   UNL     1      -4.265  11.980  14.821  0.00  0.00    +0.000 HD
ENDBRANCH  24  26
ENDBRANCH  12  24
TORSDOF 3
ENDMDL
MODEL 9
REMARK VINA RESULT:      -7.5      3.572      6.542
REMARK  Name = 
REMARK  3 active torsions:
REMARK  status: ('A' for Active; 'I' for Inactive)
REMARK    1  A    between atoms: C_12  and  N_13
REMARK    2  A    between atoms: N_13  and  C_14
REMARK    3  A    between atoms: C_20  and  C_21
REMARK                            x       y       z     vdW  Elec       q    Type
REMARK                         _______ _______ _______ _____ _____    ______ ____
ROOT
ATOM      1  O   UNL     1       0.717  10.295  22.717  0.00  0.00    +0.000 OA
ATOM      2  C   UNL     1      -0.054  10.884  21.966  0.00  0.00    +0.000 A 
ATOM      3  N   UNL     1      -0.841  11.875  22.454  0.00  0.00    +0.000 N 
ATOM      4  C   UNL     1      -1.780  12.524  21.712  0.00  0.00    +0.000 A 
ATOM      5  N   UNL     1      -2.569  13.445  22.367  0.00  0.00    +0.000 N 
ATOM      6  C   UNL     1      -2.744  13.535  23.823  0.00  0.00    +0.000 C 
ATOM      7  C   UNL     1      -4.229  13.685  24.180  0.00  0.00    +0.000 C 
ATOM      8  O   UNL     1      -4.810  14.812  23.514  0.00  0.00    +0.000 OA
ATOM      9  C   UNL     1      -4.726  14.631  22.090  0.00  0.00    +0.000 C 
ATOM     10  C   UNL     1      -3.269  14.509  21.624  0.00  0.00    +0.000 C 
ATOM     11  N   UNL     1      -1.903  12.273  20.446  0.00  0.00    +0.000 NA
ATOM     12  C   UNL     1      -1.131  11.302  19.829  0.00  0.00    +0.000 A 
ATOM     13  C   UNL     1      -0.214  10.586  20.529  0.00  0.00    +0.000 A 
ATOM     14  H   UNL     1      -0.685  12.104  23.418  0.00  0.00    +0.000 HD
ENDROOT
BRANCH  13  15
ATOM     15  C   UNL     1       0.659   9.621  19.938  0.00  0.00    +0.000 A 
ATOM     16  N   UNL     1       1.300   9.730  18.776  0.00  0.00    +0.000 NA
ATOM     17  C   UNL     1       2.035   8.575  18.651  0.00  0.00    +0.000 A 
ATOM     18  C   UNL     1       2.905   8.133  17.650  0.00  0.00    +0.000 A 
ATOM     19  C   UNL     1       3.524   6.885  17.814  0.00  0.00    +0.000 A 
ATOM     20  C   UNL     1       3.283   6.100  18.952  0.00  0.00    +0.000 A 
ATOM     21  C   UNL     1       2.419   6.535  19.963  0.00  0.00    +0.000 A 
ATOM     22  C   UNL     1       1.831   7.776  19.757  0.00  0.00    +0.000 A 
ATOM     23  O   UNL     1       0.971   8.425  20.580  0.00  0.00    +0.000 OA
ENDBRANCH  13  15
BRANCH  12  24
ATOM     24  N   UNL     1      -1.343  11.108  18.444  0.00  0.00    +0.000 N 
ATOM     25  H   UNL     1      -1.449  12.028  17.999  0.00  0.00    +0.000 HD
BRANCH  24  26
ATOM     26  C   UNL     1      -2.480  10.260  18.012  0.00  0.00    +0.000 C 
ATOM     27  C   UNL     1      -2.222   9.631  16.636  0.00  0.00    +0.000 C 
ATOM     28  C   UNL     1      -2.667  10.498  15.457  0.00  0.00    +0.000 C 
ATOM     29  C   UNL     1      -4.058  11.086  15.660  0.00  0.00    +0.000 C 
ATOM     30  N   UNL     1      -4.101  11.881  16.883  0.00  0.00    +0.000 NA
ATOM     31  C   UNL     1      -3.828  11.032  18.050  0.00  0.00    +0.000 C 
ATOM     32  H   UNL     1      -5.023  12.304  16.982  0.00  0.00    +0.000 HD
ENDBRANCH  24  26
ENDBRANCH  12  24
TORSDOF 3
ENDMDL
