MODEL 1
REMARK VINA RESULT:      -8.1      0.000      0.000
REMARK  Name = 
REMARK  5 active torsions:
REMARK  status: ('A' for Active; 'I' for Inactive)
REMARK    1  A    between atoms: C_1  and  C_2
REMARK    2  A    between atoms: C_4  and  C_5
REMARK    3  A    between atoms: C_8  and  C_9
REMARK    4  A    between atoms: C_18  and  C_19
REMARK    5  A    between atoms: N_24  and  N_25
REMARK                            x       y       z     vdW  Elec       q    Type
REMARK                         _______ _______ _______ _____ _____    ______ ____
ROOT
ATOM      1  C   UNL     1      -0.564   9.733  23.368  0.00  0.00    +0.000 C 
ATOM      2  C   UNL     1      -0.147   9.815  21.940  0.00  0.00    +0.000 A 
ATOM      3  N   UNL     1       0.644   8.789  21.447  0.00  0.00    +0.000 NA
ATOM      4  C   UNL     1       1.017   9.038  20.209  0.00  0.00    +0.000 A 
ATOM      5  S   UNL     1       0.340  10.459  19.533  0.00  0.00    +0.000 S 
ATOM      6  C   UNL     1      -0.399  10.844  21.042  0.00  0.00    +0.000 A 
ENDROOT
BRANCH   6   7
ATOM      7  C   UNL     1      -1.106  12.113  21.233  0.00  0.00    +0.000 A 
ATOM      8  C   UNL     1      -0.712  13.019  22.198  0.00  0.00    +0.000 A 
ATOM      9  C   UNL     1      -1.552  14.078  22.394  0.00  0.00    +0.000 A 
ATOM     10  N   UNL     1      -2.688  14.234  21.711  0.00  0.00    +0.000 NA
ATOM     11  C   UNL     1      -2.997  13.328  20.763  0.00  0.00    +0.000 A 
ATOM     12  N   UNL     1      -4.228  13.449  20.076  0.00  0.00    +0.000 N 
ATOM     13  N   UNL     1      -2.215  12.273  20.477  0.00  0.00    +0.000 NA
ATOM     14  H   UNL     1      -4.038  13.567  19.086  0.00  0.00    +0.000 HD
BRANCH  12  15
ATOM     15  N   UNL     1      -5.190  14.237  20.690  0.00  0.00    +0.000 NA
ATOM     16  C   UNL     1      -5.630  15.464  20.053  0.00  0.00    +0.000 C 
ATOM     17  C   UNL     1      -5.999  16.405  21.210  0.00  0.00    +0.000 C 
ATOM     18  O   UNL     1      -7.040  15.834  22.026  0.00  0.00    +0.000 OA
ATOM     19  C   UNL     1      -6.624  14.568  22.578  0.00  0.00    +0.000 C 
ATOM     20  C   UNL     1      -6.202  13.571  21.484  0.00  0.00    +0.000 C 
ENDBRANCH  12  15
ENDBRANCH   6   7
BRANCH   4  21
ATOM     21  C   UNL     1       1.907   8.161  19.438  0.00  0.00    +0.000 A 
ATOM     22  C   UNL     1       2.327   8.585  18.175  0.00  0.00    +0.000 A 
ATOM     23  C   UNL     1       3.138   7.779  17.377  0.00  0.00    +0.000 A 
ATOM     24  C   UNL     1       3.572   6.512  17.809  0.00  0.00    +0.000 A 
ATOM     25  C   UNL     1       3.143   6.088  19.076  0.00  0.00    +0.000 A 
ATOM     26  C   UNL     1       2.318   6.895  19.879  0.00  0.00    +0.000 A 
BRANCH  24  27
ATOM     27  C   UNL     1       4.436   5.673  16.944  0.00  0.00    +0.000 A 
ATOM     28  C   UNL     1       5.161   6.237  15.877  0.00  0.00    +0.000 A 
ATOM     29  C   UNL     1       5.946   5.453  15.027  0.00  0.00    +0.000 A 
ATOM     30  C   UNL     1       6.040   4.083  15.236  0.00  0.00    +0.000 A 
ATOM     31  C   UNL     1       5.349   3.498  16.294  0.00  0.00    +0.000 A 
ATOM     32  C   UNL     1       4.554   4.284  17.136  0.00  0.00    +0.000 A 
ENDBRANCH  24  27
ENDBRANCH   4  21
TORSDOF 4
ENDMDL
MODEL 2
REMARK VINA RESULT:      -8.0      1.519      2.040
REMARK  Name = 
REMARK  5 active torsions:
REMARK  status: ('A' for Active; 'I' for Inactive)
REMARK    1  A    between atoms: C_1  and  C_2
REMARK    2  A    between atoms: C_4  and  C_5
REMARK    3  A    between atoms: C_8  and  C_9
REMARK    4  A    between atoms: C_18  and  C_19
REMARK    5  A    between atoms: N_24  and  N_25
REMARK                            x       y       z     vdW  Elec       q    Type
REMARK                         _______ _______ _______ _____ _____    ______ ____
ROOT
ATOM      1  C   UNL     1      -0.419   9.780  23.278  0.00  0.00    +0.000 C 
ATOM      2  C   UNL     1      -0.041   9.823  21.839  0.00  0.00    +0.000 A 
ATOM      3  N   UNL     1       0.754   8.794  21.357  0.00  0.00    +0.000 NA
ATOM      4  C   UNL     1       1.091   9.009  20.102  0.00  0.00    +0.000 A 
ATOM      5  S   UNL     1       0.374  10.398  19.401  0.00  0.00    +0.000 S 
ATOM      6  C   UNL     1      -0.332  10.819  20.916  0.00  0.00    +0.000 A 
ENDROOT
BRANCH   6   7
ATOM      7  C   UNL     1      -1.053  12.083  21.087  0.00  0.00    +0.000 A 
ATOM      8  C   UNL     1      -0.541  13.275  20.613  0.00  0.00    +0.000 A 
ATOM      9  C   UNL     1      -1.219  14.400  20.986  0.00  0.00    +0.000 A 
ATOM     10  N   UNL     1      -2.301  14.366  21.766  0.00  0.00    +0.000 NA
ATOM     11  C   UNL     1      -2.764  13.166  22.168  0.00  0.00    +0.000 A 
ATOM     12  N   UNL     1      -3.875  13.120  23.045  0.00  0.00    +0.000 N 
ATOM     13  N   UNL     1      -2.184  12.005  21.823  0.00  0.00    +0.000 NA
ATOM     14  H   UNL     1      -4.628  12.615  22.590  0.00  0.00    +0.000 HD
BRANCH  12  15
ATOM     15  N   UNL     1      -4.151  14.291  23.734  0.00  0.00    +0.000 NA
ATOM     16  C   UNL     1      -5.496  14.835  23.721  0.00  0.00    +0.000 C 
ATOM     17  C   UNL     1      -5.314  16.356  23.830  0.00  0.00    +0.000 C 
ATOM     18  O   UNL     1      -4.618  16.706  25.043  0.00  0.00    +0.000 OA
ATOM     19  C   UNL     1      -3.317  16.083  25.086  0.00  0.00    +0.000 C 
ATOM     20  C   UNL     1      -3.405  14.552  24.948  0.00  0.00    +0.000 C 
ENDBRANCH  12  15
ENDBRANCH   6   7
BRANCH   4  21
ATOM     21  C   UNL     1       1.974   8.122  19.335  0.00  0.00    +0.000 A 
ATOM     22  C   UNL     1       2.445   8.563  18.096  0.00  0.00    +0.000 A 
ATOM     23  C   UNL     1       3.253   7.749  17.302  0.00  0.00    +0.000 A 
ATOM     24  C   UNL     1       3.631   6.458  17.714  0.00  0.00    +0.000 A 
ATOM     25  C   UNL     1       3.150   6.018  18.957  0.00  0.00    +0.000 A 
ATOM     26  C   UNL     1       2.329   6.832  19.755  0.00  0.00    +0.000 A 
BRANCH  24  27
ATOM     27  C   UNL     1       4.492   5.611  16.854  0.00  0.00    +0.000 A 
ATOM     28  C   UNL     1       4.649   4.236  17.113  0.00  0.00    +0.000 A 
ATOM     29  C   UNL     1       5.490   3.434  16.338  0.00  0.00    +0.000 A 
ATOM     30  C   UNL     1       6.184   3.986  15.268  0.00  0.00    +0.000 A 
ATOM     31  C   UNL     1       6.036   5.338  14.975  0.00  0.00    +0.000 A 
ATOM     32  C   UNL     1       5.203   6.142  15.762  0.00  0.00    +0.000 A 
ENDBRANCH  24  27
ENDBRANCH   4  21
TORSDOF 4
ENDMDL
MODEL 3
REMARK VINA RESULT:      -7.9      1.044      1.142
REMARK  Name = 
REMARK  5 active torsions:
REMARK  status: ('A' for Active; 'I' for Inactive)
REMARK    1  A    between atoms: C_1  and  C_2
REMARK    2  A    between atoms: C_4  and  C_5
REMARK    3  A    between atoms: C_8  and  C_9
REMARK    4  A    between atoms: C_18  and  C_19
REMARK    5  A    between atoms: N_24  and  N_25
REMARK                            x       y       z     vdW  Elec       q    Type
REMARK                         _______ _______ _______ _____ _____    ______ ____
ROOT
ATOM      1  C   UNL     1      -0.832  10.529  23.029  0.00  0.00    +0.000 C 
ATOM      2  C   UNL     1      -0.406  10.459  21.604  0.00  0.00    +0.000 A 
ATOM      3  N   UNL     1       0.398   9.393  21.230  0.00  0.00    +0.000 NA
ATOM      4  C   UNL     1       0.777   9.508  19.974  0.00  0.00    +0.000 A 
ATOM      5  S   UNL     1       0.091  10.840  19.143  0.00  0.00    +0.000 S 
ATOM      6  C   UNL     1      -0.662  11.380  20.596  0.00  0.00    +0.000 A 
ENDROOT
BRANCH   6   7
ATOM      7  C   UNL     1      -1.382  12.656  20.644  0.00  0.00    +0.000 A 
ATOM      8  C   UNL     1      -0.716  13.863  20.561  0.00  0.00    +0.000 A 
ATOM      9  C   UNL     1      -1.475  14.974  20.792  0.00  0.00    +0.000 A 
ATOM     10  N   UNL     1      -2.774  14.913  21.090  0.00  0.00    +0.000 NA
ATOM     11  C   UNL     1      -3.367  13.703  21.125  0.00  0.00    +0.000 A 
ATOM     12  N   UNL     1      -4.730  13.620  21.500  0.00  0.00    +0.000 N 
ATOM     13  N   UNL     1      -2.710  12.558  20.878  0.00  0.00    +0.000 NA
ATOM     14  H   UNL     1      -5.255  13.216  20.731  0.00  0.00    +0.000 HD
BRANCH  12  15
ATOM     15  N   UNL     1      -5.239  14.716  22.179  0.00  0.00    +0.000 NA
ATOM     16  C   UNL     1      -6.262  15.537  21.558  0.00  0.00    +0.000 C 
ATOM     17  C   UNL     1      -6.029  16.952  22.109  0.00  0.00    +0.000 C 
ATOM     18  O   UNL     1      -6.141  16.970  23.546  0.00  0.00    +0.000 OA
ATOM     19  C   UNL     1      -5.180  16.078  24.147  0.00  0.00    +0.000 C 
ATOM     20  C   UNL     1      -5.321  14.637  23.624  0.00  0.00    +0.000 C 
ENDBRANCH  12  15
ENDBRANCH   6   7
BRANCH   4  21
ATOM     21  C   UNL     1       1.680   8.562  19.309  0.00  0.00    +0.000 A 
ATOM     22  C   UNL     1       2.098   8.845  18.006  0.00  0.00    +0.000 A 
ATOM     23  C   UNL     1       2.921   7.964  17.306  0.00  0.00    +0.000 A 
ATOM     24  C   UNL     1       3.370   6.760  17.879  0.00  0.00    +0.000 A 
ATOM     25  C   UNL     1       2.943   6.477  19.186  0.00  0.00    +0.000 A 
ATOM     26  C   UNL     1       2.106   7.360  19.890  0.00  0.00    +0.000 A 
BRANCH  24  27
ATOM     27  C   UNL     1       4.247   5.840  17.116  0.00  0.00    +0.000 A 
ATOM     28  C   UNL     1       5.094   6.321  16.100  0.00  0.00    +0.000 A 
ATOM     29  C   UNL     1       5.895   5.461  15.343  0.00  0.00    +0.000 A 
ATOM     30  C   UNL     1       5.882   4.095  15.599  0.00  0.00    +0.000 A 
ATOM     31  C   UNL     1       5.069   3.592  16.610  0.00  0.00    +0.000 A 
ATOM     32  C   UNL     1       4.259   4.454  17.357  0.00  0.00    +0.000 A 
ENDBRANCH  24  27
ENDBRANCH   4  21
TORSDOF 4
ENDMDL
MODEL 4
REMARK VINA RESULT:      -7.8      1.603      2.187
REMARK  Name = 
REMARK  5 active torsions:
REMARK  status: ('A' for Active; 'I' for Inactive)
REMARK    1  A    between atoms: C_1  and  C_2
REMARK    2  A    between atoms: C_4  and  C_5
REMARK    3  A    between atoms: C_8  and  C_9
REMARK    4  A    between atoms: C_18  and  C_19
REMARK    5  A    between atoms: N_24  and  N_25
REMARK                            x       y       z     vdW  Elec       q    Type
REMARK                         _______ _______ _______ _____ _____    ______ ____
ROOT
ATOM      1  C   UNL     1      -0.388   9.843  23.202  0.00  0.00    +0.000 C 
ATOM      2  C   UNL     1      -0.097   9.861  21.742  0.00  0.00    +0.000 A 
ATOM      3  N   UNL     1       0.769   8.895  21.252  0.00  0.00    +0.000 NA
ATOM      4  C   UNL     1       1.012   9.088  19.973  0.00  0.00    +0.000 A 
ATOM      5  S   UNL     1       0.120  10.368  19.264  0.00  0.00    +0.000 S 
ATOM      6  C   UNL     1      -0.539  10.782  20.802  0.00  0.00    +0.000 A 
ENDROOT
BRANCH   6   7
ATOM      7  C   UNL     1      -1.374  11.975  20.968  0.00  0.00    +0.000 A 
ATOM      8  C   UNL     1      -1.161  13.115  20.217  0.00  0.00    +0.000 A 
ATOM      9  C   UNL     1      -1.887  14.211  20.586  0.00  0.00    +0.000 A 
ATOM     10  N   UNL     1      -2.744  14.199  21.609  0.00  0.00    +0.000 NA
ATOM     11  C   UNL     1      -2.925  13.044  22.280  0.00  0.00    +0.000 A 
ATOM     12  N   UNL     1      -3.784  13.034  23.405  0.00  0.00    +0.000 N 
ATOM     13  N   UNL     1      -2.281  11.907  21.968  0.00  0.00    +0.000 NA
ATOM     14  H   UNL     1      -4.542  12.383  23.230  0.00  0.00    +0.000 HD
BRANCH  12  15
ATOM     15  N   UNL     1      -4.058  14.271  23.969  0.00  0.00    +0.000 NA
ATOM     16  C   UNL     1      -5.414  14.788  23.951  0.00  0.00    +0.000 C 
ATOM     17  C   UNL     1      -5.260  16.314  23.881  0.00  0.00    +0.000 C 
ATOM     18  O   UNL     1      -4.523  16.811  25.016  0.00  0.00    +0.000 OA
ATOM     19  C   UNL     1      -3.209  16.218  25.075  0.00  0.00    +0.000 C 
ATOM     20  C   UNL     1      -3.270  14.680  25.114  0.00  0.00    +0.000 C 
ENDBRANCH  12  15
ENDBRANCH   6   7
BRANCH   4  21
ATOM     21  C   UNL     1       1.936   8.260  19.188  0.00  0.00    +0.000 A 
ATOM     22  C   UNL     1       2.370   7.050  19.734  0.00  0.00    +0.000 A 
ATOM     23  C   UNL     1       3.281   6.240  19.055  0.00  0.00    +0.000 A 
ATOM     24  C   UNL     1       3.794   6.601  17.796  0.00  0.00    +0.000 A 
ATOM     25  C   UNL     1       3.358   7.821  17.255  0.00  0.00    +0.000 A 
ATOM     26  C   UNL     1       2.447   8.643  17.940  0.00  0.00    +0.000 A 
BRANCH  24  27
ATOM     27  C   UNL     1       4.759   5.723  17.092  0.00  0.00    +0.000 A 
ATOM     28  C   UNL     1       6.082   6.142  16.855  0.00  0.00    +0.000 A 
ATOM     29  C   UNL     1       6.991   5.343  16.155  0.00  0.00    +0.000 A 
ATOM     30  C   UNL     1       6.602   4.093  15.691  0.00  0.00    +0.000 A 
ATOM     31  C   UNL     1       5.307   3.643  15.925  0.00  0.00    +0.000 A 
ATOM     32  C   UNL     1       4.394   4.450  16.615  0.00  0.00    +0.000 A 
ENDBRANCH  24  27
ENDBRANCH   4  21
TORSDOF 4
ENDMDL
MODEL 5
REMARK VINA RESULT:      -7.8      2.104      2.676
REMARK  Name = 
REMARK  5 active torsions:
REMARK  status: ('A' for Active; 'I' for Inactive)
REMARK    1  A    between atoms: C_1  and  C_2
REMARK    2  A    between atoms: C_4  and  C_5
REMARK    3  A    between atoms: C_8  and  C_9
REMARK    4  A    between atoms: C_18  and  C_19
REMARK    5  A    between atoms: N_24  and  N_25
REMARK                            x       y       z     vdW  Elec       q    Type
REMARK                         _______ _______ _______ _____ _____    ______ ____
ROOT
ATOM      1  C   UNL     1       0.574  13.089  18.753  0.00  0.00    +0.000 C 
ATOM      2  C   UNL     1       0.499  11.854  19.582  0.00  0.00    +0.000 A 
ATOM      3  N   UNL     1       1.134  10.721  19.098  0.00  0.00    +0.000 NA
ATOM      4  C   UNL     1       0.906   9.685  19.878  0.00  0.00    +0.000 A 
ATOM      5  S   UNL     1       0.015  10.045  21.297  0.00  0.00    +0.000 S 
ATOM      6  C   UNL     1      -0.197  11.673  20.770  0.00  0.00    +0.000 A 
ENDROOT
BRANCH   6   7
ATOM      7  C   UNL     1      -1.048  12.602  21.517  0.00  0.00    +0.000 A 
ATOM      8  C   UNL     1      -0.669  13.095  22.751  0.00  0.00    +0.000 A 
ATOM      9  C   UNL     1      -1.620  13.809  23.421  0.00  0.00    +0.000 A 
ATOM     10  N   UNL     1      -2.844  14.018  22.932  0.00  0.00    +0.000 NA
ATOM     11  C   UNL     1      -3.138  13.534  21.709  0.00  0.00    +0.000 A 
ATOM     12  N   UNL     1      -4.452  13.695  21.206  0.00  0.00    +0.000 N 
ATOM     13  N   UNL     1      -2.256  12.849  20.962  0.00  0.00    +0.000 NA
ATOM     14  H   UNL     1      -4.407  14.237  20.350  0.00  0.00    +0.000 HD
BRANCH  12  15
ATOM     15  N   UNL     1      -5.430  13.976  22.148  0.00  0.00    +0.000 NA
ATOM     16  C   UNL     1      -6.042  15.291  22.182  0.00  0.00    +0.000 C 
ATOM     17  C   UNL     1      -6.401  15.528  23.656  0.00  0.00    +0.000 C 
ATOM     18  O   UNL     1      -7.308  14.514  24.134  0.00  0.00    +0.000 OA
ATOM     19  C   UNL     1      -6.723  13.201  24.008  0.00  0.00    +0.000 C 
ATOM     20  C   UNL     1      -6.300  12.893  22.561  0.00  0.00    +0.000 C 
ENDBRANCH  12  15
ENDBRANCH   6   7
BRANCH   4  21
ATOM     21  C   UNL     1       1.399   8.332  19.596  0.00  0.00    +0.000 A 
ATOM     22  C   UNL     1       1.313   7.369  20.604  0.00  0.00    +0.000 A 
ATOM     23  C   UNL     1       1.803   6.078  20.411  0.00  0.00    +0.000 A 
ATOM     24  C   UNL     1       2.398   5.688  19.197  0.00  0.00    +0.000 A 
ATOM     25  C   UNL     1       2.488   6.661  18.190  0.00  0.00    +0.000 A 
ATOM     26  C   UNL     1       2.002   7.965  18.384  0.00  0.00    +0.000 A 
BRANCH  24  27
ATOM     27  C   UNL     1       2.910   4.309  19.014  0.00  0.00    +0.000 A 
ATOM     28  C   UNL     1       2.464   3.505  17.948  0.00  0.00    +0.000 A 
ATOM     29  C   UNL     1       2.905   2.189  17.786  0.00  0.00    +0.000 A 
ATOM     30  C   UNL     1       3.821   1.649  18.680  0.00  0.00    +0.000 A 
ATOM     31  C   UNL     1       4.294   2.424  19.734  0.00  0.00    +0.000 A 
ATOM     32  C   UNL     1       3.841   3.738  19.901  0.00  0.00    +0.000 A 
ENDBRANCH  24  27
ENDBRANCH   4  21
TORSDOF 4
ENDMDL
MODEL 6
REMARK VINA RESULT:      -7.7      2.074      2.455
REMARK  Name = 
REMARK  5 active torsions:
REMARK  status: ('A' for Active; 'I' for Inactive)
REMARK    1  A    between atoms: C_1  and  C_2
REMARK    2  A    between atoms: C_4  and  C_5
REMARK    3  A    between atoms: C_8  and  C_9
REMARK    4  A    between atoms: C_18  and  C_19
REMARK    5  A    between atoms: N_24  and  N_25
REMARK                            x       y       z     vdW  Elec       q    Type
REMARK                         _______ _______ _______ _____ _____    ______ ____
ROOT
ATOM      1  C   UNL     1       1.296  13.292  18.593  0.00  0.00    +0.000 C 
ATOM      2  C   UNL     1       0.968  12.087  19.403  0.00  0.00    +0.000 A 
ATOM      3  N   UNL     1       1.593  10.898  19.061  0.00  0.00    +0.000 NA
ATOM      4  C   UNL     1       1.139   9.901  19.791  0.00  0.00    +0.000 A 
ATOM      5  S   UNL     1       0.024  10.361  21.008  0.00  0.00    +0.000 S 
ATOM      6  C   UNL     1       0.044  11.986  20.436  0.00  0.00    +0.000 A 
ENDROOT
BRANCH   6   7
ATOM      7  C   UNL     1      -0.859  12.995  20.996  0.00  0.00    +0.000 A 
ATOM      8  C   UNL     1      -0.539  13.691  22.145  0.00  0.00    +0.000 A 
ATOM      9  C   UNL     1      -1.534  14.471  22.661  0.00  0.00    +0.000 A 
ATOM     10  N   UNL     1      -2.745  14.558  22.107  0.00  0.00    +0.000 NA
ATOM     11  C   UNL     1      -2.980  13.875  20.969  0.00  0.00    +0.000 A 
ATOM     12  N   UNL     1      -4.278  13.909  20.405  0.00  0.00    +0.000 N 
ATOM     13  N   UNL     1      -2.052  13.109  20.370  0.00  0.00    +0.000 NA
ATOM     14  H   UNL     1      -4.218  14.308  19.474  0.00  0.00    +0.000 HD
BRANCH  12  15
ATOM     15  N   UNL     1      -5.298  14.305  21.258  0.00  0.00    +0.000 NA
ATOM     16  C   UNL     1      -6.050  15.512  20.972  0.00  0.00    +0.000 C 
ATOM     17  C   UNL     1      -6.459  16.063  22.346  0.00  0.00    +0.000 C 
ATOM     18  O   UNL     1      -7.258  15.106  23.068  0.00  0.00    +0.000 OA
ATOM     19  C   UNL     1      -6.532  13.875  23.264  0.00  0.00    +0.000 C 
ATOM     20  C   UNL     1      -6.052  13.268  21.934  0.00  0.00    +0.000 C 
ENDBRANCH  12  15
ENDBRANCH   6   7
BRANCH   4  21
ATOM     21  C   UNL     1       1.571   8.508  19.622  0.00  0.00    +0.000 A 
ATOM     22  C   UNL     1       2.028   8.102  18.366  0.00  0.00    +0.000 A 
ATOM     23  C   UNL     1       2.412   6.782  18.133  0.00  0.00    +0.000 A 
ATOM     24  C   UNL     1       2.362   5.808  19.147  0.00  0.00    +0.000 A 
ATOM     25  C   UNL     1       1.896   6.220  20.405  0.00  0.00    +0.000 A 
ATOM     26  C   UNL     1       1.501   7.548  20.641  0.00  0.00    +0.000 A 
BRANCH  24  27
ATOM     27  C   UNL     1       2.777   4.411  18.876  0.00  0.00    +0.000 A 
ATOM     28  C   UNL     1       2.071   3.608  17.960  0.00  0.00    +0.000 A 
ATOM     29  C   UNL     1       2.423   2.276  17.725  0.00  0.00    +0.000 A 
ATOM     30  C   UNL     1       3.509   1.719  18.389  0.00  0.00    +0.000 A 
ATOM     31  C   UNL     1       4.239   2.492  19.287  0.00  0.00    +0.000 A 
ATOM     32  C   UNL     1       3.875   3.821  19.530  0.00  0.00    +0.000 A 
ENDBRANCH  24  27
ENDBRANCH   4  21
TORSDOF 4
ENDMDL
MODEL 7
REMARK VINA RESULT:      -7.6      4.101     11.517
REMARK  Name = 
REMARK  5 active torsions:
REMARK  status: ('A' for Active; 'I' for Inactive)
REMARK    1  A    between atoms: C_1  and  C_2
REMARK    2  A    between atoms: C_4  and  C_5
REMARK    3  A    between atoms: C_8  and  C_9
REMARK    4  A    between atoms: C_18  and  C_19
REMARK    5  A    between atoms: N_24  and  N_25
REMARK                            x       y       z     vdW  Elec       q    Type
REMARK                         _______ _______ _______ _____ _____    ______ ____
ROOT
ATOM      1  C   UNL     1       2.362  11.874  18.222  0.00  0.00    +0.000 C 
ATOM      2  C   UNL     1       1.185  11.242  18.879  0.00  0.00    +0.000 A 
ATOM      3  N   UNL     1       0.179  12.083  19.332  0.00  0.00    +0.000 NA
ATOM      4  C   UNL     1      -0.747  11.403  19.975  0.00  0.00    +0.000 A 
ATOM      5  S   UNL     1      -0.518   9.705  19.967  0.00  0.00    +0.000 S 
ATOM      6  C   UNL     1       0.995   9.896  19.163  0.00  0.00    +0.000 A 
ENDROOT
BRANCH   6   7
ATOM      7  C   UNL     1       1.873   8.747  18.926  0.00  0.00    +0.000 A 
ATOM      8  C   UNL     1       2.636   8.647  17.779  0.00  0.00    +0.000 A 
ATOM      9  C   UNL     1       3.275   7.454  17.595  0.00  0.00    +0.000 A 
ATOM     10  N   UNL     1       3.170   6.439  18.454  0.00  0.00    +0.000 NA
ATOM     11  C   UNL     1       2.432   6.615  19.569  0.00  0.00    +0.000 A 
ATOM     12  N   UNL     1       2.263   5.526  20.457  0.00  0.00    +0.000 N 
ATOM     13  N   UNL     1       1.796   7.764  19.851  0.00  0.00    +0.000 NA
ATOM     14  H   UNL     1       2.644   5.782  21.362  0.00  0.00    +0.000 HD
BRANCH  12  15
ATOM     15  N   UNL     1       2.525   4.270  19.931  0.00  0.00    +0.000 NA
ATOM     16  C   UNL     1       3.566   3.446  20.516  0.00  0.00    +0.000 C 
ATOM     17  C   UNL     1       4.117   2.610  19.352  0.00  0.00    +0.000 C 
ATOM     18  O   UNL     1       3.080   1.803  18.760  0.00  0.00    +0.000 OA
ATOM     19  C   UNL     1       2.006   2.630  18.265  0.00  0.00    +0.000 C 
ATOM     20  C   UNL     1       1.415   3.530  19.365  0.00  0.00    +0.000 C 
ENDBRANCH  12  15
ENDBRANCH   6   7
BRANCH   4  21
ATOM     21  C   UNL     1      -1.911  12.025  20.618  0.00  0.00    +0.000 A 
ATOM     22  C   UNL     1      -1.951  12.074  22.013  0.00  0.00    +0.000 A 
ATOM     23  C   UNL     1      -3.049  12.614  22.683  0.00  0.00    +0.000 A 
ATOM     24  C   UNL     1      -4.155  13.135  21.987  0.00  0.00    +0.000 A 
ATOM     25  C   UNL     1      -4.112  13.078  20.585  0.00  0.00    +0.000 A 
ATOM     26  C   UNL     1      -3.010  12.527  19.908  0.00  0.00    +0.000 A 
BRANCH  24  27
ATOM     27  C   UNL     1      -5.310  13.706  22.720  0.00  0.00    +0.000 A 
ATOM     28  C   UNL     1      -5.429  15.095  22.918  0.00  0.00    +0.000 A 
ATOM     29  C   UNL     1      -6.489  15.646  23.643  0.00  0.00    +0.000 A 
ATOM     30  C   UNL     1      -7.471  14.818  24.174  0.00  0.00    +0.000 A 
ATOM     31  C   UNL     1      -7.391  13.442  23.979  0.00  0.00    +0.000 A 
ATOM     32  C   UNL     1      -6.321  12.893  23.263  0.00  0.00    +0.000 A 
ENDBRANCH  24  27
ENDBRANCH   4  21
TORSDOF 4
ENDMDL
MODEL 8
REMARK VINA RESULT:      -7.6      1.244      1.784
REMARK  Name = 
REMARK  5 active torsions:
REMARK  status: ('A' for Active; 'I' for Inactive)
REMARK    1  A    between atoms: C_1  and  C_2
REMARK    2  A    between atoms: C_4  and  C_5
REMARK    3  A    between atoms: C_8  and  C_9
REMARK    4  A    between atoms: C_18  and  C_19
REMARK    5  A    between atoms: N_24  and  N_25
REMARK                            x       y       z     vdW  Elec       q    Type
REMARK                         _______ _______ _______ _____ _____    ______ ____
ROOT
ATOM      1  C   UNL     1      -0.899  10.920  23.075  0.00  0.00    +0.000 C 
ATOM      2  C   UNL     1      -0.650  10.734  21.618  0.00  0.00    +0.000 A 
ATOM      3  N   UNL     1       0.279   9.774  21.248  0.00  0.00    +0.000 NA
ATOM      4  C   UNL     1       0.470   9.784  19.945  0.00  0.00    +0.000 A 
ATOM      5  S   UNL     1      -0.544  10.865  19.085  0.00  0.00    +0.000 S 
ATOM      6  C   UNL     1      -1.193  11.461  20.566  0.00  0.00    +0.000 A 
ENDROOT
BRANCH   6   7
ATOM      7  C   UNL     1      -2.119  12.596  20.581  0.00  0.00    +0.000 A 
ATOM      8  C   UNL     1      -1.662  13.899  20.606  0.00  0.00    +0.000 A 
ATOM      9  C   UNL     1      -2.617  14.858  20.795  0.00  0.00    +0.000 A 
ATOM     10  N   UNL     1      -3.909  14.568  20.956  0.00  0.00    +0.000 NA
ATOM     11  C   UNL     1      -4.290  13.277  20.891  0.00  0.00    +0.000 A 
ATOM     12  N   UNL     1      -5.649  12.951  21.121  0.00  0.00    +0.000 N 
ATOM     13  N   UNL     1      -3.428  12.269  20.675  0.00  0.00    +0.000 NA
ATOM     14  H   UNL     1      -6.021  12.505  20.290  0.00  0.00    +0.000 HD
BRANCH  12  15
ATOM     15  N   UNL     1      -6.398  13.914  21.779  0.00  0.00    +0.000 NA
ATOM     16  C   UNL     1      -7.500  14.563  21.094  0.00  0.00    +0.000 C 
ATOM     17  C   UNL     1      -7.569  15.975  21.695  0.00  0.00    +0.000 C 
ATOM     18  O   UNL     1      -7.795  15.920  23.117  0.00  0.00    +0.000 OA
ATOM     19  C   UNL     1      -6.739  15.190  23.777  0.00  0.00    +0.000 C 
ATOM     20  C   UNL     1      -6.577  13.768  23.210  0.00  0.00    +0.000 C 
ENDBRANCH  12  15
ENDBRANCH   6   7
BRANCH   4  21
ATOM     21  C   UNL     1       1.438   8.919  19.260  0.00  0.00    +0.000 A 
ATOM     22  C   UNL     1       1.820   7.727  19.881  0.00  0.00    +0.000 A 
ATOM     23  C   UNL     1       2.767   6.884  19.299  0.00  0.00    +0.000 A 
ATOM     24  C   UNL     1       3.371   7.192  18.067  0.00  0.00    +0.000 A 
ATOM     25  C   UNL     1       2.988   8.393  17.450  0.00  0.00    +0.000 A 
ATOM     26  C   UNL     1       2.041   9.249  18.038  0.00  0.00    +0.000 A 
BRANCH  24  27
ATOM     27  C   UNL     1       4.374   6.279  17.467  0.00  0.00    +0.000 A 
ATOM     28  C   UNL     1       4.924   5.217  18.209  0.00  0.00    +0.000 A 
ATOM     29  C   UNL     1       5.901   4.374  17.672  0.00  0.00    +0.000 A 
ATOM     30  C   UNL     1       6.339   4.563  16.367  0.00  0.00    +0.000 A 
ATOM     31  C   UNL     1       5.801   5.593  15.602  0.00  0.00    +0.000 A 
ATOM     32  C   UNL     1       4.832   6.443  16.147  0.00  0.00    +0.000 A 
ENDBRANCH  24  27
ENDBRANCH   4  21
TORSDOF 4
ENDMDL
MODEL 9
REMARK VINA RESULT:      -7.5      0.444      1.294
REMARK  Name = 
REMARK  5 active torsions:
REMARK  status: ('A' for Active; 'I' for Inactive)
REMARK    1  A    between atoms: C_1  and  C_2
REMARK    2  A    between atoms: C_4  and  C_5
REMARK    3  A    between atoms: C_8  and  C_9
REMARK    4  A    between atoms: C_18  and  C_19
REMARK    5  A    between atoms: N_24  and  N_25
REMARK                            x       y       z     vdW  Elec       q    Type
REMARK                         _______ _______ _______ _____ _____    ______ ____
ROOT
ATOM      1  C   UNL     1      -0.366   9.633  23.447  0.00  0.00    +0.000 C 
ATOM      2  C   UNL     1      -0.093   9.743  21.987  0.00  0.00    +0.000 A 
ATOM      3  N   UNL     1       0.721   8.777  21.416  0.00  0.00    +0.000 NA
ATOM      4  C   UNL     1       0.956   9.050  20.150  0.00  0.00    +0.000 A 
ATOM      5  S   UNL     1       0.116  10.417  19.548  0.00  0.00    +0.000 S 
ATOM      6  C   UNL     1      -0.503  10.749  21.122  0.00  0.00    +0.000 A 
ENDROOT
BRANCH   6   7
ATOM      7  C   UNL     1      -1.279  11.964  21.386  0.00  0.00    +0.000 A 
ATOM      8  C   UNL     1      -1.065  12.725  22.518  0.00  0.00    +0.000 A 
ATOM      9  C   UNL     1      -1.965  13.728  22.737  0.00  0.00    +0.000 A 
ATOM     10  N   UNL     1      -2.996  13.963  21.923  0.00  0.00    +0.000 NA
ATOM     11  C   UNL     1      -3.129  13.201  20.819  0.00  0.00    +0.000 A 
ATOM     12  N   UNL     1      -4.252  13.400  19.981  0.00  0.00    +0.000 N 
ATOM     13  N   UNL     1      -2.273  12.214  20.504  0.00  0.00    +0.000 NA
ATOM     14  H   UNL     1      -3.926  13.665  19.058  0.00  0.00    +0.000 HD
BRANCH  12  15
ATOM     15  N   UNL     1      -5.322  14.072  20.552  0.00  0.00    +0.000 NA
ATOM     16  C   UNL     1      -6.048  13.469  21.654  0.00  0.00    +0.000 C 
ATOM     17  C   UNL     1      -7.488  13.983  21.513  0.00  0.00    +0.000 C 
ATOM     18  O   UNL     1      -7.531  15.422  21.582  0.00  0.00    +0.000 OA
ATOM     19  C   UNL     1      -6.728  16.010  20.537  0.00  0.00    +0.000 C 
ATOM     20  C   UNL     1      -5.270  15.520  20.583  0.00  0.00    +0.000 C 
ENDBRANCH  12  15
ENDBRANCH   6   7
BRANCH   4  21
ATOM     21  C   UNL     1       1.830   8.239  19.294  0.00  0.00    +0.000 A 
ATOM     22  C   UNL     1       2.212   6.973  19.743  0.00  0.00    +0.000 A 
ATOM     23  C   UNL     1       3.075   6.173  18.994  0.00  0.00    +0.000 A 
ATOM     24  C   UNL     1       3.591   6.601  17.757  0.00  0.00    +0.000 A 
ATOM     25  C   UNL     1       3.210   7.877  17.313  0.00  0.00    +0.000 A 
ATOM     26  C   UNL     1       2.347   8.688  18.070  0.00  0.00    +0.000 A 
BRANCH  24  27
ATOM     27  C   UNL     1       4.505   5.733  16.977  0.00  0.00    +0.000 A 
ATOM     28  C   UNL     1       5.211   6.234  15.867  0.00  0.00    +0.000 A 
ATOM     29  C   UNL     1       6.043   5.418  15.095  0.00  0.00    +0.000 A 
ATOM     30  C   UNL     1       6.204   4.079  15.429  0.00  0.00    +0.000 A 
ATOM     31  C   UNL     1       5.535   3.558  16.533  0.00  0.00    +0.000 A 
ATOM     32  C   UNL     1       4.692   4.375  17.295  0.00  0.00    +0.000 A 
ENDBRANCH  24  27
ENDBRANCH   4  21
TORSDOF 4
ENDMDL
