MODEL 1
REMARK VINA RESULT:      -7.1      0.000      0.000
REMARK  Name = 
REMARK  7 active torsions:
REMARK  status: ('A' for Active; 'I' for Inactive)
REMARK    1  A    between atoms: C_1  and  C_2
REMARK    2  A    between atoms: C_5  and  S_6
REMARK    3  A    between atoms: S_6  and  C_7
REMARK    4  A    between atoms: C_7  and  C_8
REMARK    5  A    between atoms: N_10  and  N_11
REMARK    6  A    between atoms: C_12  and  C_14
REMARK    7  A    between atoms: C_20  and  O_21
REMARK                            x       y       z     vdW  Elec       q    Type
REMARK                         _______ _______ _______ _____ _____    ______ ____
ROOT
ATOM      1  C   UNL     1       2.042   4.251  20.507  0.00  0.00    +0.000 C 
ATOM      2  O   UNL     1       0.863   4.265  20.155  0.00  0.00    +0.000 OA
ATOM      3  N   UNL     1       2.740   5.414  20.767  0.00  0.00    +0.000 N 
ATOM      4  H   UNL     1       3.744   5.458  20.947  0.00  0.00    +0.000 HD
ENDROOT
BRANCH   3   5
ATOM      5  N   UNL     1       2.094   6.632  20.516  0.00  0.00    +0.000 N 
ATOM      6  C   UNL     1       2.345   7.326  19.347  0.00  0.00    +0.000 C 
ATOM      7  O   UNL     1       3.108   6.890  18.486  0.00  0.00    +0.000 OA
ATOM      8  H   UNL     1       1.454   6.987  21.225  0.00  0.00    +0.000 HD
BRANCH   6   9
ATOM      9  C   UNL     1       1.640   8.587  19.246  0.00  0.00    +0.000 A 
ATOM     10  C   UNL     1       1.537   9.491  18.204  0.00  0.00    +0.000 A 
ATOM     11  C   UNL     1       0.733  10.561  18.669  0.00  0.00    +0.000 A 
ATOM     12  C   UNL     1       0.393  10.249  19.963  0.00  0.00    +0.000 A 
ATOM     13  O   UNL     1       0.932   9.055  20.323  0.00  0.00    +0.000 OA
ENDBRANCH   6   9
ENDBRANCH   3   5
BRANCH   1  14
ATOM     14  C   UNL     1       2.833   2.970  20.709  0.00  0.00    +0.000 C 
BRANCH  14  15
ATOM     15  S   UNL     1       3.298   2.231  19.110  0.00  0.00    +0.000 S 
BRANCH  15  20
ATOM     16  C   UNL     1       7.109   6.339  17.134  0.00  0.00    +0.000 C 
ATOM     17  C   UNL     1       6.162   5.305  17.640  0.00  0.00    +0.000 A 
ATOM     18  N   UNL     1       5.280   4.764  16.779  0.00  0.00    +0.000 NA
ATOM     19  N   UNL     1       4.413   3.820  17.240  0.00  0.00    +0.000 NA
ATOM     20  C   UNL     1       4.463   3.441  18.539  0.00  0.00    +0.000 A 
ATOM     21  N   UNL     1       5.315   3.952  19.443  0.00  0.00    +0.000 NA
ATOM     22  C   UNL     1       6.148   4.878  18.951  0.00  0.00    +0.000 A 
BRANCH  22  23
ATOM     23  O   UNL     1       7.012   5.383  19.872  0.00  0.00    +0.000 OA
ATOM     24  H   UNL     1       6.415   5.518  20.632  0.00  0.00    +0.000 HD
ENDBRANCH  22  23
ENDBRANCH  15  20
ENDBRANCH  14  15
ENDBRANCH   1  14
TORSDOF 6
ENDMDL
MODEL 2
REMARK VINA RESULT:      -7.0      0.845      1.122
REMARK  Name = 
REMARK  7 active torsions:
REMARK  status: ('A' for Active; 'I' for Inactive)
REMARK    1  A    between atoms: C_1  and  C_2
REMARK    2  A    between atoms: C_5  and  S_6
REMARK    3  A    between atoms: S_6  and  C_7
REMARK    4  A    between atoms: C_7  and  C_8
REMARK    5  A    between atoms: N_10  and  N_11
REMARK    6  A    between atoms: C_12  and  C_14
REMARK    7  A    between atoms: C_20  and  O_21
REMARK                            x       y       z     vdW  Elec       q    Type
REMARK                         _______ _______ _______ _____ _____    ______ ____
ROOT
ATOM      1  C   UNL     1       2.211   4.130  20.268  0.00  0.00    +0.000 C 
ATOM      2  O   UNL     1       0.990   4.093  20.119  0.00  0.00    +0.000 OA
ATOM      3  N   UNL     1       2.864   5.283  20.658  0.00  0.00    +0.000 N 
ATOM      4  H   UNL     1       3.879   5.392  20.682  0.00  0.00    +0.000 HD
ENDROOT
BRANCH   3   5
ATOM      5  N   UNL     1       2.105   6.453  20.783  0.00  0.00    +0.000 N 
ATOM      6  C   UNL     1       2.135   7.413  19.788  0.00  0.00    +0.000 C 
ATOM      7  O   UNL     1       2.796   7.261  18.762  0.00  0.00    +0.000 OA
ATOM      8  H   UNL     1       1.548   6.573  21.629  0.00  0.00    +0.000 HD
BRANCH   6   9
ATOM      9  C   UNL     1       1.335   8.586  20.074  0.00  0.00    +0.000 A 
ATOM     10  C   UNL     1       0.561   8.913  21.173  0.00  0.00    +0.000 A 
ATOM     11  C   UNL     1      -0.014  10.180  20.906  0.00  0.00    +0.000 A 
ATOM     12  C   UNL     1       0.440  10.551  19.662  0.00  0.00    +0.000 A 
ATOM     13  O   UNL     1       1.261   9.597  19.151  0.00  0.00    +0.000 OA
ENDBRANCH   6   9
ENDBRANCH   3   5
BRANCH   1  14
ATOM     14  C   UNL     1       3.110   2.923  20.059  0.00  0.00    +0.000 C 
BRANCH  14  15
ATOM     15  S   UNL     1       3.553   2.735  18.302  0.00  0.00    +0.000 S 
BRANCH  15  20
ATOM     16  C   UNL     1       7.433   7.199  17.727  0.00  0.00    +0.000 C 
ATOM     17  C   UNL     1       6.468   6.073  17.880  0.00  0.00    +0.000 A 
ATOM     18  N   UNL     1       5.572   5.855  16.899  0.00  0.00    +0.000 NA
ATOM     19  N   UNL     1       4.691   4.826  17.038  0.00  0.00    +0.000 NA
ATOM     20  C   UNL     1       4.739   4.046  18.143  0.00  0.00    +0.000 A 
ATOM     21  N   UNL     1       5.604   4.221  19.155  0.00  0.00    +0.000 NA
ATOM     22  C   UNL     1       6.452   5.243  18.981  0.00  0.00    +0.000 A 
BRANCH  22  23
ATOM     23  O   UNL     1       7.329   5.408  20.008  0.00  0.00    +0.000 OA
ATOM     24  H   UNL     1       7.820   4.566  19.971  0.00  0.00    +0.000 HD
ENDBRANCH  22  23
ENDBRANCH  15  20
ENDBRANCH  14  15
ENDBRANCH   1  14
TORSDOF 6
ENDMDL
MODEL 3
REMARK VINA RESULT:      -7.0      4.153      7.142
REMARK  Name = 
REMARK  7 active torsions:
REMARK  status: ('A' for Active; 'I' for Inactive)
REMARK    1  A    between atoms: C_1  and  C_2
REMARK    2  A    between atoms: C_5  and  S_6
REMARK    3  A    between atoms: S_6  and  C_7
REMARK    4  A    between atoms: C_7  and  C_8
REMARK    5  A    between atoms: N_10  and  N_11
REMARK    6  A    between atoms: C_12  and  C_14
REMARK    7  A    between atoms: C_20  and  O_21
REMARK                            x       y       z     vdW  Elec       q    Type
REMARK                         _______ _______ _______ _____ _____    ______ ____
ROOT
ATOM      1  C   UNL     1       6.693   6.113  16.537  0.00  0.00    +0.000 C 
ATOM      2  O   UNL     1       5.687   6.575  15.999  0.00  0.00    +0.000 OA
ATOM      3  N   UNL     1       7.288   4.948  16.094  0.00  0.00    +0.000 N 
ATOM      4  H   UNL     1       8.049   4.468  16.576  0.00  0.00    +0.000 HD
ENDROOT
BRANCH   3   5
ATOM      5  N   UNL     1       6.651   4.240  15.066  0.00  0.00    +0.000 N 
ATOM      6  C   UNL     1       6.930   4.531  13.744  0.00  0.00    +0.000 C 
ATOM      7  O   UNL     1       7.756   5.386  13.428  0.00  0.00    +0.000 OA
ATOM      8  H   UNL     1       5.975   3.524  15.328  0.00  0.00    +0.000 HD
BRANCH   6   9
ATOM      9  C   UNL     1       6.166   3.749  12.794  0.00  0.00    +0.000 A 
ATOM     10  C   UNL     1       4.833   3.811  12.428  0.00  0.00    +0.000 A 
ATOM     11  C   UNL     1       4.625   2.793  11.465  0.00  0.00    +0.000 A 
ATOM     12  C   UNL     1       5.839   2.170  11.300  0.00  0.00    +0.000 A 
ATOM     13  O   UNL     1       6.780   2.742  12.095  0.00  0.00    +0.000 OA
ENDBRANCH   6   9
ENDBRANCH   3   5
BRANCH   1  14
ATOM     14  C   UNL     1       7.384   6.778  17.715  0.00  0.00    +0.000 C 
BRANCH  14  15
ATOM     15  S   UNL     1       7.454   5.657  19.149  0.00  0.00    +0.000 S 
BRANCH  15  20
ATOM     16  C   UNL     1       1.856   3.667  19.030  0.00  0.00    +0.000 C 
ATOM     17  C   UNL     1       3.265   4.153  19.063  0.00  0.00    +0.000 A 
ATOM     18  N   UNL     1       3.493   5.443  19.372  0.00  0.00    +0.000 NA
ATOM     19  N   UNL     1       4.780   5.888  19.402  0.00  0.00    +0.000 NA
ATOM     20  C   UNL     1       5.793   5.032  19.131  0.00  0.00    +0.000 A 
ATOM     21  N   UNL     1       5.624   3.739  18.808  0.00  0.00    +0.000 NA
ATOM     22  C   UNL     1       4.345   3.341  18.789  0.00  0.00    +0.000 A 
BRANCH  22  23
ATOM     23  O   UNL     1       4.185   2.029  18.467  0.00  0.00    +0.000 OA
ATOM     24  H   UNL     1       4.506   2.022  17.546  0.00  0.00    +0.000 HD
ENDBRANCH  22  23
ENDBRANCH  15  20
ENDBRANCH  14  15
ENDBRANCH   1  14
TORSDOF 6
ENDMDL
MODEL 4
REMARK VINA RESULT:      -6.9      1.229      1.714
REMARK  Name = 
REMARK  7 active torsions:
REMARK  status: ('A' for Active; 'I' for Inactive)
REMARK    1  A    between atoms: C_1  and  C_2
REMARK    2  A    between atoms: C_5  and  S_6
REMARK    3  A    between atoms: S_6  and  C_7
REMARK    4  A    between atoms: C_7  and  C_8
REMARK    5  A    between atoms: N_10  and  N_11
REMARK    6  A    between atoms: C_12  and  C_14
REMARK    7  A    between atoms: C_20  and  O_21
REMARK                            x       y       z     vdW  Elec       q    Type
REMARK                         _______ _______ _______ _____ _____    ______ ____
ROOT
ATOM      1  C   UNL     1       1.922   3.967  20.491  0.00  0.00    +0.000 C 
ATOM      2  O   UNL     1       0.709   4.029  20.290  0.00  0.00    +0.000 OA
ATOM      3  N   UNL     1       2.657   5.073  20.869  0.00  0.00    +0.000 N 
ATOM      4  H   UNL     1       3.676   5.095  20.934  0.00  0.00    +0.000 HD
ENDROOT
BRANCH   3   5
ATOM      5  N   UNL     1       1.998   6.308  20.920  0.00  0.00    +0.000 N 
ATOM      6  C   UNL     1       2.161   7.226  19.899  0.00  0.00    +0.000 C 
ATOM      7  O   UNL     1       2.853   6.982  18.912  0.00  0.00    +0.000 OA
ATOM      8  H   UNL     1       1.416   6.505  21.733  0.00  0.00    +0.000 HD
BRANCH   6   9
ATOM      9  C   UNL     1       1.454   8.473  20.108  0.00  0.00    +0.000 A 
ATOM     10  C   UNL     1       0.895   9.021  21.248  0.00  0.00    +0.000 A 
ATOM     11  C   UNL     1       0.315  10.256  20.867  0.00  0.00    +0.000 A 
ATOM     12  C   UNL     1       0.553  10.389  19.519  0.00  0.00    +0.000 A 
ATOM     13  O   UNL     1       1.245   9.320  19.050  0.00  0.00    +0.000 OA
ENDBRANCH   6   9
ENDBRANCH   3   5
BRANCH   1  14
ATOM     14  C   UNL     1       2.719   2.680  20.364  0.00  0.00    +0.000 C 
BRANCH  14  15
ATOM     15  S   UNL     1       3.151   2.348  18.626  0.00  0.00    +0.000 S 
BRANCH  15  20
ATOM     16  C   UNL     1       7.323   6.497  17.801  0.00  0.00    +0.000 C 
ATOM     17  C   UNL     1       6.269   5.463  18.000  0.00  0.00    +0.000 A 
ATOM     18  N   UNL     1       6.284   4.737  19.133  0.00  0.00    +0.000 NA
ATOM     19  N   UNL     1       5.320   3.792  19.315  0.00  0.00    +0.000 NA
ATOM     20  C   UNL     1       4.372   3.610  18.367  0.00  0.00    +0.000 A 
ATOM     21  N   UNL     1       4.312   4.298  17.215  0.00  0.00    +0.000 NA
ATOM     22  C   UNL     1       5.277   5.217  17.073  0.00  0.00    +0.000 A 
BRANCH  22  23
ATOM     23  O   UNL     1       5.205   5.913  15.907  0.00  0.00    +0.000 OA
ATOM     24  H   UNL     1       6.066   6.371  15.910  0.00  0.00    +0.000 HD
ENDBRANCH  22  23
ENDBRANCH  15  20
ENDBRANCH  14  15
ENDBRANCH   1  14
TORSDOF 6
ENDMDL
MODEL 5
REMARK VINA RESULT:      -6.8      4.141      7.180
REMARK  Name = 
REMARK  7 active torsions:
REMARK  status: ('A' for Active; 'I' for Inactive)
REMARK    1  A    between atoms: C_1  and  C_2
REMARK    2  A    between atoms: C_5  and  S_6
REMARK    3  A    between atoms: S_6  and  C_7
REMARK    4  A    between atoms: C_7  and  C_8
REMARK    5  A    between atoms: N_10  and  N_11
REMARK    6  A    between atoms: C_12  and  C_14
REMARK    7  A    between atoms: C_20  and  O_21
REMARK                            x       y       z     vdW  Elec       q    Type
REMARK                         _______ _______ _______ _____ _____    ______ ____
ROOT
ATOM      1  C   UNL     1       6.508   6.161  16.419  0.00  0.00    +0.000 C 
ATOM      2  O   UNL     1       5.464   6.565  15.908  0.00  0.00    +0.000 OA
ATOM      3  N   UNL     1       7.159   5.034  15.957  0.00  0.00    +0.000 N 
ATOM      4  H   UNL     1       7.958   4.598  16.419  0.00  0.00    +0.000 HD
ENDROOT
BRANCH   3   5
ATOM      5  N   UNL     1       6.539   4.292  14.943  0.00  0.00    +0.000 N 
ATOM      6  C   UNL     1       6.894   4.488  13.621  0.00  0.00    +0.000 C 
ATOM      7  O   UNL     1       7.773   5.285  13.297  0.00  0.00    +0.000 OA
ATOM      8  H   UNL     1       5.819   3.624  15.213  0.00  0.00    +0.000 HD
BRANCH   6   9
ATOM      9  C   UNL     1       6.140   3.683  12.682  0.00  0.00    +0.000 A 
ATOM     10  C   UNL     1       4.809   3.731  12.306  0.00  0.00    +0.000 A 
ATOM     11  C   UNL     1       4.613   2.692  11.363  0.00  0.00    +0.000 A 
ATOM     12  C   UNL     1       5.831   2.072  11.219  0.00  0.00    +0.000 A 
ATOM     13  O   UNL     1       6.764   2.665  12.008  0.00  0.00    +0.000 OA
ENDBRANCH   6   9
ENDBRANCH   3   5
BRANCH   1  14
ATOM     14  C   UNL     1       7.188   6.862  17.582  0.00  0.00    +0.000 C 
BRANCH  14  15
ATOM     15  S   UNL     1       7.469   5.710  18.966  0.00  0.00    +0.000 S 
BRANCH  15  20
ATOM     16  C   UNL     1       2.068   3.306  19.557  0.00  0.00    +0.000 C 
ATOM     17  C   UNL     1       3.417   3.921  19.407  0.00  0.00    +0.000 A 
ATOM     18  N   UNL     1       4.422   3.163  18.931  0.00  0.00    +0.000 NA
ATOM     19  N   UNL     1       5.655   3.725  18.794  0.00  0.00    +0.000 NA
ATOM     20  C   UNL     1       5.841   5.023  19.128  0.00  0.00    +0.000 A 
ATOM     21  N   UNL     1       4.880   5.824  19.617  0.00  0.00    +0.000 NA
ATOM     22  C   UNL     1       3.683   5.234  19.737  0.00  0.00    +0.000 A 
BRANCH  22  23
ATOM     23  O   UNL     1       2.714   6.055  20.225  0.00  0.00    +0.000 OA
ATOM     24  H   UNL     1       1.965   5.435  20.299  0.00  0.00    +0.000 HD
ENDBRANCH  22  23
ENDBRANCH  15  20
ENDBRANCH  14  15
ENDBRANCH   1  14
TORSDOF 6
ENDMDL
MODEL 6
REMARK VINA RESULT:      -6.8      1.131      1.520
REMARK  Name = 
REMARK  7 active torsions:
REMARK  status: ('A' for Active; 'I' for Inactive)
REMARK    1  A    between atoms: C_1  and  C_2
REMARK    2  A    between atoms: C_5  and  S_6
REMARK    3  A    between atoms: S_6  and  C_7
REMARK    4  A    between atoms: C_7  and  C_8
REMARK    5  A    between atoms: N_10  and  N_11
REMARK    6  A    between atoms: C_12  and  C_14
REMARK    7  A    between atoms: C_20  and  O_21
REMARK                            x       y       z     vdW  Elec       q    Type
REMARK                         _______ _______ _______ _____ _____    ______ ____
ROOT
ATOM      1  C   UNL     1       2.279   4.373  20.310  0.00  0.00    +0.000 C 
ATOM      2  O   UNL     1       1.050   4.330  20.257  0.00  0.00    +0.000 OA
ATOM      3  N   UNL     1       2.964   5.569  20.397  0.00  0.00    +0.000 N 
ATOM      4  H   UNL     1       3.978   5.660  20.327  0.00  0.00    +0.000 HD
ENDROOT
BRANCH   3   5
ATOM      5  N   UNL     1       2.221   6.754  20.317  0.00  0.00    +0.000 N 
ATOM      6  C   UNL     1       2.282   7.539  19.180  0.00  0.00    +0.000 C 
ATOM      7  O   UNL     1       2.956   7.215  18.204  0.00  0.00    +0.000 OA
ATOM      8  H   UNL     1       1.654   7.016  21.122  0.00  0.00    +0.000 HD
BRANCH   6   9
ATOM      9  C   UNL     1       1.496   8.753  19.259  0.00  0.00    +0.000 A 
ATOM     10  C   UNL     1       1.140   9.671  18.287  0.00  0.00    +0.000 A 
ATOM     11  C   UNL     1       0.378  10.676  18.933  0.00  0.00    +0.000 A 
ATOM     12  C   UNL     1       0.313  10.314  20.257  0.00  0.00    +0.000 A 
ATOM     13  O   UNL     1       0.982   9.150  20.467  0.00  0.00    +0.000 OA
ENDBRANCH   6   9
ENDBRANCH   3   5
BRANCH   1  14
ATOM     14  C   UNL     1       3.154   3.131  20.307  0.00  0.00    +0.000 C 
BRANCH  14  15
ATOM     15  S   UNL     1       3.725   2.739  18.622  0.00  0.00    +0.000 S 
BRANCH  15  20
ATOM     16  C   UNL     1       7.732   7.061  17.870  0.00  0.00    +0.000 C 
ATOM     17  C   UNL     1       6.719   5.983  18.050  0.00  0.00    +0.000 A 
ATOM     18  N   UNL     1       6.682   5.323  19.222  0.00  0.00    +0.000 NA
ATOM     19  N   UNL     1       5.756   4.338  19.387  0.00  0.00    +0.000 NA
ATOM     20  C   UNL     1       4.896   4.051  18.382  0.00  0.00    +0.000 A 
ATOM     21  N   UNL     1       4.893   4.669  17.189  0.00  0.00    +0.000 NA
ATOM     22  C   UNL     1       5.818   5.631  17.067  0.00  0.00    +0.000 A 
BRANCH  22  23
ATOM     23  O   UNL     1       5.802   6.256  15.859  0.00  0.00    +0.000 OA
ATOM     24  H   UNL     1       5.942   5.501  15.257  0.00  0.00    +0.000 HD
ENDBRANCH  22  23
ENDBRANCH  15  20
ENDBRANCH  14  15
ENDBRANCH   1  14
TORSDOF 6
ENDMDL
MODEL 7
REMARK VINA RESULT:      -6.7      4.307      7.393
REMARK  Name = 
REMARK  7 active torsions:
REMARK  status: ('A' for Active; 'I' for Inactive)
REMARK    1  A    between atoms: C_1  and  C_2
REMARK    2  A    between atoms: C_5  and  S_6
REMARK    3  A    between atoms: S_6  and  C_7
REMARK    4  A    between atoms: C_7  and  C_8
REMARK    5  A    between atoms: N_10  and  N_11
REMARK    6  A    between atoms: C_12  and  C_14
REMARK    7  A    between atoms: C_20  and  O_21
REMARK                            x       y       z     vdW  Elec       q    Type
REMARK                         _______ _______ _______ _____ _____    ______ ____
ROOT
ATOM      1  C   UNL     1       7.229   5.300  16.575  0.00  0.00    +0.000 C 
ATOM      2  O   UNL     1       7.847   4.236  16.610  0.00  0.00    +0.000 OA
ATOM      3  N   UNL     1       6.247   5.544  15.636  0.00  0.00    +0.000 N 
ATOM      4  H   UNL     1       5.792   6.447  15.496  0.00  0.00    +0.000 HD
ENDROOT
BRANCH   3   5
ATOM      5  N   UNL     1       6.039   4.576  14.644  0.00  0.00    +0.000 N 
ATOM      6  C   UNL     1       6.771   4.613  13.471  0.00  0.00    +0.000 C 
ATOM      7  O   UNL     1       7.638   5.463  13.274  0.00  0.00    +0.000 OA
ATOM      8  H   UNL     1       5.329   3.865  14.812  0.00  0.00    +0.000 HD
BRANCH   6   9
ATOM      9  C   UNL     1       6.417   3.577  12.522  0.00  0.00    +0.000 A 
ATOM     10  C   UNL     1       5.185   3.119  12.092  0.00  0.00    +0.000 A 
ATOM     11  C   UNL     1       5.436   2.076  11.167  0.00  0.00    +0.000 A 
ATOM     12  C   UNL     1       6.803   1.957  11.087  0.00  0.00    +0.000 A 
ATOM     13  O   UNL     1       7.408   2.862  11.899  0.00  0.00    +0.000 OA
ENDBRANCH   6   9
ENDBRANCH   3   5
BRANCH   1  14
ATOM     14  C   UNL     1       7.467   6.431  17.562  0.00  0.00    +0.000 C 
BRANCH  14  15
ATOM     15  S   UNL     1       7.157   5.882  19.271  0.00  0.00    +0.000 S 
BRANCH  15  20
ATOM     16  C   UNL     1       1.922   3.200  18.432  0.00  0.00    +0.000 C 
ATOM     17  C   UNL     1       3.238   3.864  18.652  0.00  0.00    +0.000 A 
ATOM     18  N   UNL     1       3.346   5.180  18.395  0.00  0.00    +0.000 NA
ATOM     19  N   UNL     1       4.549   5.787  18.596  0.00  0.00    +0.000 NA
ATOM     20  C   UNL     1       5.598   5.063  19.052  0.00  0.00    +0.000 A 
ATOM     21  N   UNL     1       5.550   3.747  19.317  0.00  0.00    +0.000 NA
ATOM     22  C   UNL     1       4.351   3.188  19.106  0.00  0.00    +0.000 A 
BRANCH  22  23
ATOM     23  O   UNL     1       4.311   1.857  19.383  0.00  0.00    +0.000 OA
ATOM     24  H   UNL     1       4.829   1.823  20.209  0.00  0.00    +0.000 HD
ENDBRANCH  22  23
ENDBRANCH  15  20
ENDBRANCH  14  15
ENDBRANCH   1  14
TORSDOF 6
ENDMDL
MODEL 8
REMARK VINA RESULT:      -6.6      1.429      1.654
REMARK  Name = 
REMARK  7 active torsions:
REMARK  status: ('A' for Active; 'I' for Inactive)
REMARK    1  A    between atoms: C_1  and  C_2
REMARK    2  A    between atoms: C_5  and  S_6
REMARK    3  A    between atoms: S_6  and  C_7
REMARK    4  A    between atoms: C_7  and  C_8
REMARK    5  A    between atoms: N_10  and  N_11
REMARK    6  A    between atoms: C_12  and  C_14
REMARK    7  A    between atoms: C_20  and  O_21
REMARK                            x       y       z     vdW  Elec       q    Type
REMARK                         _______ _______ _______ _____ _____    ______ ____
ROOT
ATOM      1  C   UNL     1       1.948   4.419  20.247  0.00  0.00    +0.000 C 
ATOM      2  O   UNL     1       0.738   4.311  20.448  0.00  0.00    +0.000 OA
ATOM      3  N   UNL     1       2.640   5.571  20.560  0.00  0.00    +0.000 N 
ATOM      4  H   UNL     1       3.613   5.748  20.306  0.00  0.00    +0.000 HD
ENDROOT
BRANCH   3   5
ATOM      5  N   UNL     1       1.904   6.669  21.024  0.00  0.00    +0.000 N 
ATOM      6  C   UNL     1       1.762   7.796  20.234  0.00  0.00    +0.000 C 
ATOM      7  O   UNL     1       2.243   7.860  19.104  0.00  0.00    +0.000 OA
ATOM      8  H   UNL     1       1.496   6.611  21.956  0.00  0.00    +0.000 HD
BRANCH   6   9
ATOM      9  C   UNL     1       1.013   8.865  20.861  0.00  0.00    +0.000 A 
ATOM     10  C   UNL     1       0.497  10.040  20.344  0.00  0.00    +0.000 A 
ATOM     11  C   UNL     1      -0.130  10.720  21.418  0.00  0.00    +0.000 A 
ATOM     12  C   UNL     1       0.040   9.923  22.525  0.00  0.00    +0.000 A 
ATOM     13  O   UNL     1       0.726   8.796  22.201  0.00  0.00    +0.000 OA
ENDBRANCH   6   9
ENDBRANCH   3   5
BRANCH   1  14
ATOM     14  C   UNL     1       2.794   3.302  19.660  0.00  0.00    +0.000 C 
BRANCH  14  15
ATOM     15  S   UNL     1       2.914   3.456  17.849  0.00  0.00    +0.000 S 
BRANCH  15  20
ATOM     16  C   UNL     1       7.545   7.164  17.505  0.00  0.00    +0.000 C 
ATOM     17  C   UNL     1       6.391   6.224  17.588  0.00  0.00    +0.000 A 
ATOM     18  N   UNL     1       5.149   6.711  17.411  0.00  0.00    +0.000 NA
ATOM     19  N   UNL     1       4.095   5.852  17.487  0.00  0.00    +0.000 NA
ATOM     20  C   UNL     1       4.316   4.539  17.726  0.00  0.00    +0.000 A 
ATOM     21  N   UNL     1       5.530   3.998  17.919  0.00  0.00    +0.000 NA
ATOM     22  C   UNL     1       6.540   4.875  17.838  0.00  0.00    +0.000 A 
BRANCH  22  23
ATOM     23  O   UNL     1       7.766   4.318  18.027  0.00  0.00    +0.000 OA
ATOM     24  H   UNL     1       8.204   4.543  17.184  0.00  0.00    +0.000 HD
ENDBRANCH  22  23
ENDBRANCH  15  20
ENDBRANCH  14  15
ENDBRANCH   1  14
TORSDOF 6
ENDMDL
MODEL 9
REMARK VINA RESULT:      -6.6      4.621      6.743
REMARK  Name = 
REMARK  7 active torsions:
REMARK  status: ('A' for Active; 'I' for Inactive)
REMARK    1  A    between atoms: C_1  and  C_2
REMARK    2  A    between atoms: C_5  and  S_6
REMARK    3  A    between atoms: S_6  and  C_7
REMARK    4  A    between atoms: C_7  and  C_8
REMARK    5  A    between atoms: N_10  and  N_11
REMARK    6  A    between atoms: C_12  and  C_14
REMARK    7  A    between atoms: C_20  and  O_21
REMARK                            x       y       z     vdW  Elec       q    Type
REMARK                         _______ _______ _______ _____ _____    ______ ____
ROOT
ATOM      1  C   UNL     1       7.939   7.331  18.209  0.00  0.00    +0.000 C 
ATOM      2  O   UNL     1       7.610   7.597  17.052  0.00  0.00    +0.000 OA
ATOM      3  N   UNL     1       8.577   8.252  19.015  0.00  0.00    +0.000 N 
ATOM      4  H   UNL     1       8.970   8.041  19.934  0.00  0.00    +0.000 HD
ENDROOT
BRANCH   3   5
ATOM      5  N   UNL     1       8.939   9.479  18.445  0.00  0.00    +0.000 N 
ATOM      6  C   UNL     1       9.324  10.535  19.251  0.00  0.00    +0.000 C 
ATOM      7  O   UNL     1       9.391  10.425  20.474  0.00  0.00    +0.000 OA
ATOM      8  H   UNL     1       8.894   9.566  17.431  0.00  0.00    +0.000 HD
BRANCH   6   9
ATOM      9  C   UNL     1       9.628  11.751  18.526  0.00  0.00    +0.000 A 
ATOM     10  C   UNL     1      10.654  12.057  17.650  0.00  0.00    +0.000 A 
ATOM     11  C   UNL     1      10.466  13.404  17.253  0.00  0.00    +0.000 A 
ATOM     12  C   UNL     1       9.339  13.841  17.908  0.00  0.00    +0.000 A 
ATOM     13  O   UNL     1       8.820  12.850  18.678  0.00  0.00    +0.000 OA
ENDBRANCH   6   9
ENDBRANCH   3   5
BRANCH   1  14
ATOM     14  C   UNL     1       7.662   5.988  18.862  0.00  0.00    +0.000 C 
BRANCH  14  15
ATOM     15  S   UNL     1       6.745   4.890  17.735  0.00  0.00    +0.000 S 
BRANCH  15  20
ATOM     16  C   UNL     1       1.889   3.919  21.019  0.00  0.00    +0.000 C 
ATOM     17  C   UNL     1       3.101   4.173  20.190  0.00  0.00    +0.000 A 
ATOM     18  N   UNL     1       3.880   3.129  19.850  0.00  0.00    +0.000 NA
ATOM     19  N   UNL     1       4.988   3.361  19.093  0.00  0.00    +0.000 NA
ATOM     20  C   UNL     1       5.276   4.622  18.694  0.00  0.00    +0.000 A 
ATOM     21  N   UNL     1       4.541   5.702  19.010  0.00  0.00    +0.000 NA
ATOM     22  C   UNL     1       3.462   5.432  19.756  0.00  0.00    +0.000 A 
BRANCH  22  23
ATOM     23  O   UNL     1       2.720   6.530  20.065  0.00  0.00    +0.000 OA
ATOM     24  H   UNL     1       3.270   6.935  20.762  0.00  0.00    +0.000 HD
ENDBRANCH  22  23
ENDBRANCH  15  20
ENDBRANCH  14  15
ENDBRANCH   1  14
TORSDOF 6
ENDMDL
