MODEL 1
REMARK VINA RESULT:      -7.2      0.000      0.000
REMARK  Name = 
REMARK  8 active torsions:
REMARK  status: ('A' for Active; 'I' for Inactive)
REMARK    1  A    between atoms: C_1  and  C_2
REMARK    2  A    between atoms: C_2  and  O_3
REMARK    3  A    between atoms: O_3  and  C_4
REMARK    4  A    between atoms: C_7  and  C_8
REMARK    5  A    between atoms: C_11  and  C_12
REMARK    6  A    between atoms: C_12  and  C_13
REMARK    7  A    between atoms: C_13  and  C_14
REMARK    8  A    between atoms: N_16  and  C_17
REMARK                            x       y       z     vdW  Elec       q    Type
REMARK                         _______ _______ _______ _____ _____    ______ ____
ROOT
ATOM      1  C   UNL     1       5.764   5.091  15.628  0.00  0.00    +0.000 A 
ATOM      2  N   UNL     1       6.953   5.712  15.693  0.00  0.00    +0.000 NA
ATOM      3  O   UNL     1       7.569   5.379  14.491  0.00  0.00    +0.000 OA
ATOM      4  C   UNL     1       6.690   4.593  13.812  0.00  0.00    +0.000 A 
ATOM      5  N   UNL     1       5.566   4.387  14.458  0.00  0.00    +0.000 NA
ENDROOT
BRANCH   1   9
ATOM      6  C   UNL     1       2.822   5.267  18.719  0.00  0.00    +0.000 A 
ATOM      7  C   UNL     1       3.166   4.042  18.149  0.00  0.00    +0.000 A 
ATOM      8  C   UNL     1       4.132   3.976  17.142  0.00  0.00    +0.000 A 
ATOM      9  C   UNL     1       4.755   5.143  16.680  0.00  0.00    +0.000 A 
ATOM     10  C   UNL     1       4.386   6.372  17.243  0.00  0.00    +0.000 A 
ATOM     11  C   UNL     1       3.417   6.436  18.251  0.00  0.00    +0.000 A 
BRANCH   6  12
ATOM     12  O   UNL     1       1.886   5.204  19.713  0.00  0.00    +0.000 OA
BRANCH  12  14
ATOM     13  C   UNL     1       1.262   3.308  21.006  0.00  0.00    +0.000 C 
ATOM     14  C   UNL     1       2.252   4.449  20.868  0.00  0.00    +0.000 C 
ENDBRANCH  12  14
ENDBRANCH   6  12
ENDBRANCH   1   9
BRANCH   4  15
ATOM     15  C   UNL     1       7.109   4.114  12.477  0.00  0.00    +0.000 C 
BRANCH  15  16
ATOM     16  C   UNL     1       6.041   3.220  11.862  0.00  0.00    +0.000 C 
BRANCH  16  17
ATOM     17  C   UNL     1       6.633   1.904  11.418  0.00  0.00    +0.000 C 
ATOM     18  O   UNL     1       7.748   1.807  10.915  0.00  0.00    +0.000 OA
ATOM     19  N   UNL     1       5.795   0.834  11.632  0.00  0.00    +0.000 N 
ATOM     20  C   UNL     1       6.165  -0.515  11.281  0.00  0.00    +0.000 C 
ATOM     21  H   UNL     1       4.889   0.987  12.058  0.00  0.00    +0.000 HD
ENDBRANCH  16  17
ENDBRANCH  15  16
ENDBRANCH   4  15
TORSDOF 6
ENDMDL
MODEL 2
REMARK VINA RESULT:      -7.0      3.881      6.701
REMARK  Name = 
REMARK  8 active torsions:
REMARK  status: ('A' for Active; 'I' for Inactive)
REMARK    1  A    between atoms: C_1  and  C_2
REMARK    2  A    between atoms: C_2  and  O_3
REMARK    3  A    between atoms: O_3  and  C_4
REMARK    4  A    between atoms: C_7  and  C_8
REMARK    5  A    between atoms: C_11  and  C_12
REMARK    6  A    between atoms: C_12  and  C_13
REMARK    7  A    between atoms: C_13  and  C_14
REMARK    8  A    between atoms: N_16  and  C_17
REMARK                            x       y       z     vdW  Elec       q    Type
REMARK                         _______ _______ _______ _____ _____    ______ ____
ROOT
ATOM      1  C   UNL     1       5.739   6.036  17.168  0.00  0.00    +0.000 A 
ATOM      2  N   UNL     1       6.497   5.908  16.068  0.00  0.00    +0.000 NA
ATOM      3  O   UNL     1       7.604   6.709  16.332  0.00  0.00    +0.000 OA
ATOM      4  C   UNL     1       7.411   7.239  17.570  0.00  0.00    +0.000 A 
ATOM      5  N   UNL     1       6.287   6.858  18.132  0.00  0.00    +0.000 NA
ENDROOT
BRANCH   1   9
ATOM      6  C   UNL     1       1.966   4.117  17.740  0.00  0.00    +0.000 A 
ATOM      7  C   UNL     1       3.027   3.417  17.167  0.00  0.00    +0.000 A 
ATOM      8  C   UNL     1       4.266   4.036  16.984  0.00  0.00    +0.000 A 
ATOM      9  C   UNL     1       4.452   5.375  17.356  0.00  0.00    +0.000 A 
ATOM     10  C   UNL     1       3.372   6.076  17.908  0.00  0.00    +0.000 A 
ATOM     11  C   UNL     1       2.131   5.455  18.091  0.00  0.00    +0.000 A 
BRANCH   6  12
ATOM     12  O   UNL     1       0.813   3.400  17.894  0.00  0.00    +0.000 OA
BRANCH  12  14
ATOM     13  C   UNL     1       0.848   2.920  20.223  0.00  0.00    +0.000 C 
ATOM     14  C   UNL     1       0.868   2.323  18.829  0.00  0.00    +0.000 C 
ENDBRANCH  12  14
ENDBRANCH   6  12
ENDBRANCH   1   9
BRANCH   4  15
ATOM     15  C   UNL     1       8.470   8.126  18.095  0.00  0.00    +0.000 C 
BRANCH  15  16
ATOM     16  C   UNL     1       8.064   9.588  17.973  0.00  0.00    +0.000 C 
BRANCH  16  17
ATOM     17  C   UNL     1       9.162  10.494  18.478  0.00  0.00    +0.000 C 
ATOM     18  O   UNL     1      10.015  10.985  17.744  0.00  0.00    +0.000 OA
ATOM     19  N   UNL     1       9.109  10.704  19.836  0.00  0.00    +0.000 N 
ATOM     20  C   UNL     1      10.064  11.538  20.523  0.00  0.00    +0.000 C 
ATOM     21  H   UNL     1       8.373  10.271  20.380  0.00  0.00    +0.000 HD
ENDBRANCH  16  17
ENDBRANCH  15  16
ENDBRANCH   4  15
TORSDOF 6
ENDMDL
MODEL 3
REMARK VINA RESULT:      -7.0      1.469      1.669
REMARK  Name = 
REMARK  8 active torsions:
REMARK  status: ('A' for Active; 'I' for Inactive)
REMARK    1  A    between atoms: C_1  and  C_2
REMARK    2  A    between atoms: C_2  and  O_3
REMARK    3  A    between atoms: O_3  and  C_4
REMARK    4  A    between atoms: C_7  and  C_8
REMARK    5  A    between atoms: C_11  and  C_12
REMARK    6  A    between atoms: C_12  and  C_13
REMARK    7  A    between atoms: C_13  and  C_14
REMARK    8  A    between atoms: N_16  and  C_17
REMARK                            x       y       z     vdW  Elec       q    Type
REMARK                         _______ _______ _______ _____ _____    ______ ____
ROOT
ATOM      1  C   UNL     1       6.215   4.837  15.700  0.00  0.00    +0.000 A 
ATOM      2  N   UNL     1       7.331   5.581  15.642  0.00  0.00    +0.000 NA
ATOM      3  O   UNL     1       7.747   5.454  14.320  0.00  0.00    +0.000 OA
ATOM      4  C   UNL     1       6.838   4.648  13.705  0.00  0.00    +0.000 A 
ATOM      5  N   UNL     1       5.876   4.245  14.501  0.00  0.00    +0.000 NA
ENDROOT
BRANCH   1   9
ATOM      6  C   UNL     1       3.894   4.311  19.247  0.00  0.00    +0.000 A 
ATOM      7  C   UNL     1       3.427   3.824  18.026  0.00  0.00    +0.000 A 
ATOM      8  C   UNL     1       4.185   3.986  16.863  0.00  0.00    +0.000 A 
ATOM      9  C   UNL     1       5.414   4.657  16.906  0.00  0.00    +0.000 A 
ATOM     10  C   UNL     1       5.863   5.164  18.133  0.00  0.00    +0.000 A 
ATOM     11  C   UNL     1       5.103   5.001  19.297  0.00  0.00    +0.000 A 
BRANCH   6  12
ATOM     12  O   UNL     1       3.081   4.069  20.318  0.00  0.00    +0.000 OA
BRANCH  12  14
ATOM     13  C   UNL     1       1.586   2.695  21.556  0.00  0.00    +0.000 C 
ATOM     14  C   UNL     1       2.199   2.953  20.193  0.00  0.00    +0.000 C 
ENDBRANCH  12  14
ENDBRANCH   6  12
ENDBRANCH   1   9
BRANCH   4  15
ATOM     15  C   UNL     1       7.051   4.369  12.269  0.00  0.00    +0.000 C 
BRANCH  15  16
ATOM     16  C   UNL     1       7.112   2.870  12.011  0.00  0.00    +0.000 C 
BRANCH  16  17
ATOM     17  C   UNL     1       5.780   2.355  11.520  0.00  0.00    +0.000 C 
ATOM     18  O   UNL     1       5.587   1.182  11.216  0.00  0.00    +0.000 OA
ATOM     19  N   UNL     1       4.815   3.333  11.447  0.00  0.00    +0.000 N 
ATOM     20  C   UNL     1       3.471   3.055  11.003  0.00  0.00    +0.000 C 
ATOM     21  H   UNL     1       5.043   4.281  11.720  0.00  0.00    +0.000 HD
ENDBRANCH  16  17
ENDBRANCH  15  16
ENDBRANCH   4  15
TORSDOF 6
ENDMDL
MODEL 4
REMARK VINA RESULT:      -7.0      3.956      6.835
REMARK  Name = 
REMARK  8 active torsions:
REMARK  status: ('A' for Active; 'I' for Inactive)
REMARK    1  A    between atoms: C_1  and  C_2
REMARK    2  A    between atoms: C_2  and  O_3
REMARK    3  A    between atoms: O_3  and  C_4
REMARK    4  A    between atoms: C_7  and  C_8
REMARK    5  A    between atoms: C_11  and  C_12
REMARK    6  A    between atoms: C_12  and  C_13
REMARK    7  A    between atoms: C_13  and  C_14
REMARK    8  A    between atoms: N_16  and  C_17
REMARK                            x       y       z     vdW  Elec       q    Type
REMARK                         _______ _______ _______ _____ _____    ______ ____
ROOT
ATOM      1  C   UNL     1       5.843   6.092  17.204  0.00  0.00    +0.000 A 
ATOM      2  N   UNL     1       6.633   5.974  16.125  0.00  0.00    +0.000 NA
ATOM      3  O   UNL     1       7.702   6.821  16.401  0.00  0.00    +0.000 OA
ATOM      4  C   UNL     1       7.458   7.365  17.625  0.00  0.00    +0.000 A 
ATOM      5  N   UNL     1       6.335   6.951  18.165  0.00  0.00    +0.000 NA
ENDROOT
BRANCH   1   9
ATOM      6  C   UNL     1       2.145   4.006  17.675  0.00  0.00    +0.000 A 
ATOM      7  C   UNL     1       2.252   5.340  18.068  0.00  0.00    +0.000 A 
ATOM      8  C   UNL     1       3.456   6.030  17.910  0.00  0.00    +0.000 A 
ATOM      9  C   UNL     1       4.578   5.385  17.373  0.00  0.00    +0.000 A 
ATOM     10  C   UNL     1       4.468   4.038  17.003  0.00  0.00    +0.000 A 
ATOM     11  C   UNL     1       3.260   3.348  17.162  0.00  0.00    +0.000 A 
BRANCH   6  12
ATOM     12  O   UNL     1       0.912   3.444  17.852  0.00  0.00    +0.000 OA
BRANCH  12  14
ATOM     13  C   UNL     1       0.931   2.950  20.179  0.00  0.00    +0.000 C 
ATOM     14  C   UNL     1       0.848   2.363  18.782  0.00  0.00    +0.000 C 
ENDBRANCH  12  14
ENDBRANCH   6  12
ENDBRANCH   1   9
BRANCH   4  15
ATOM     15  C   UNL     1       8.469   8.301  18.159  0.00  0.00    +0.000 C 
BRANCH  15  16
ATOM     16  C   UNL     1       8.082   9.744  17.866  0.00  0.00    +0.000 C 
BRANCH  16  17
ATOM     17  C   UNL     1       9.096  10.700  18.447  0.00  0.00    +0.000 C 
ATOM     18  O   UNL     1       9.809  10.419  19.406  0.00  0.00    +0.000 OA
ATOM     19  N   UNL     1       9.133  11.912  17.796  0.00  0.00    +0.000 N 
ATOM     20  C   UNL     1      10.031  12.969  18.190  0.00  0.00    +0.000 C 
ATOM     21  H   UNL     1       8.519  12.073  17.008  0.00  0.00    +0.000 HD
ENDBRANCH  16  17
ENDBRANCH  15  16
ENDBRANCH   4  15
TORSDOF 6
ENDMDL
MODEL 5
REMARK VINA RESULT:      -7.0      4.642      7.429
REMARK  Name = 
REMARK  8 active torsions:
REMARK  status: ('A' for Active; 'I' for Inactive)
REMARK    1  A    between atoms: C_1  and  C_2
REMARK    2  A    between atoms: C_2  and  O_3
REMARK    3  A    between atoms: O_3  and  C_4
REMARK    4  A    between atoms: C_7  and  C_8
REMARK    5  A    between atoms: C_11  and  C_12
REMARK    6  A    between atoms: C_12  and  C_13
REMARK    7  A    between atoms: C_13  and  C_14
REMARK    8  A    between atoms: N_16  and  C_17
REMARK                            x       y       z     vdW  Elec       q    Type
REMARK                         _______ _______ _______ _____ _____    ______ ____
ROOT
ATOM      1  C   UNL     1       4.937   3.926  18.697  0.00  0.00    +0.000 A 
ATOM      2  N   UNL     1       5.231   3.084  19.701  0.00  0.00    +0.000 NA
ATOM      3  O   UNL     1       4.177   2.176  19.694  0.00  0.00    +0.000 OA
ATOM      4  C   UNL     1       3.349   2.553  18.680  0.00  0.00    +0.000 A 
ATOM      5  N   UNL     1       3.767   3.616  18.033  0.00  0.00    +0.000 NA
ENDROOT
BRANCH   1   9
ATOM      6  C   UNL     1       7.342   7.268  17.563  0.00  0.00    +0.000 A 
ATOM      7  C   UNL     1       7.774   6.404  18.569  0.00  0.00    +0.000 A 
ATOM      8  C   UNL     1       6.995   5.305  18.940  0.00  0.00    +0.000 A 
ATOM      9  C   UNL     1       5.762   5.067  18.319  0.00  0.00    +0.000 A 
ATOM     10  C   UNL     1       5.326   5.955  17.326  0.00  0.00    +0.000 A 
ATOM     11  C   UNL     1       6.107   7.056  16.955  0.00  0.00    +0.000 A 
BRANCH   6  12
ATOM     12  O   UNL     1       8.199   8.291  17.267  0.00  0.00    +0.000 OA
BRANCH  12  14
ATOM     13  C   UNL     1       9.086   9.864  18.815  0.00  0.00    +0.000 C 
ATOM     14  C   UNL     1       7.920   9.540  17.900  0.00  0.00    +0.000 C 
ENDBRANCH  12  14
ENDBRANCH   6  12
ENDBRANCH   1   9
BRANCH   4  15
ATOM     15  C   UNL     1       2.146   1.726  18.451  0.00  0.00    +0.000 C 
BRANCH  15  16
ATOM     16  C   UNL     1       0.884   2.485  18.836  0.00  0.00    +0.000 C 
BRANCH  16  17
ATOM     17  C   UNL     1       1.114   3.316  20.076  0.00  0.00    +0.000 C 
ATOM     18  O   UNL     1       1.037   2.858  21.212  0.00  0.00    +0.000 OA
ATOM     19  N   UNL     1       1.411   4.630  19.800  0.00  0.00    +0.000 N 
ATOM     20  C   UNL     1       1.667   5.596  20.840  0.00  0.00    +0.000 C 
ATOM     21  H   UNL     1       1.463   4.938  18.837  0.00  0.00    +0.000 HD
ENDBRANCH  16  17
ENDBRANCH  15  16
ENDBRANCH   4  15
TORSDOF 6
ENDMDL
MODEL 6
REMARK VINA RESULT:      -6.9      4.625      7.463
REMARK  Name = 
REMARK  8 active torsions:
REMARK  status: ('A' for Active; 'I' for Inactive)
REMARK    1  A    between atoms: C_1  and  C_2
REMARK    2  A    between atoms: C_2  and  O_3
REMARK    3  A    between atoms: O_3  and  C_4
REMARK    4  A    between atoms: C_7  and  C_8
REMARK    5  A    between atoms: C_11  and  C_12
REMARK    6  A    between atoms: C_12  and  C_13
REMARK    7  A    between atoms: C_13  and  C_14
REMARK    8  A    between atoms: N_16  and  C_17
REMARK                            x       y       z     vdW  Elec       q    Type
REMARK                         _______ _______ _______ _____ _____    ______ ____
ROOT
ATOM      1  C   UNL     1       4.869   3.893  18.710  0.00  0.00    +0.000 A 
ATOM      2  N   UNL     1       5.116   3.050  19.726  0.00  0.00    +0.000 NA
ATOM      3  O   UNL     1       4.035   2.174  19.703  0.00  0.00    +0.000 OA
ATOM      4  C   UNL     1       3.240   2.569  18.671  0.00  0.00    +0.000 A 
ATOM      5  N   UNL     1       3.703   3.614  18.025  0.00  0.00    +0.000 NA
ENDROOT
BRANCH   1   9
ATOM      6  C   UNL     1       7.418   7.153  17.656  0.00  0.00    +0.000 A 
ATOM      7  C   UNL     1       6.228   6.942  16.961  0.00  0.00    +0.000 A 
ATOM      8  C   UNL     1       5.386   5.882  17.305  0.00  0.00    +0.000 A 
ATOM      9  C   UNL     1       5.736   5.005  18.341  0.00  0.00    +0.000 A 
ATOM     10  C   UNL     1       6.946   5.212  19.018  0.00  0.00    +0.000 A 
ATOM     11  C   UNL     1       7.789   6.274  18.672  0.00  0.00    +0.000 A 
BRANCH   6  12
ATOM     12  O   UNL     1       8.145   8.236  17.249  0.00  0.00    +0.000 OA
BRANCH  12  14
ATOM     13  C   UNL     1       9.078   9.828  18.750  0.00  0.00    +0.000 C 
ATOM     14  C   UNL     1       7.862   9.465  17.918  0.00  0.00    +0.000 C 
ENDBRANCH  12  14
ENDBRANCH   6  12
ENDBRANCH   1   9
BRANCH   4  15
ATOM     15  C   UNL     1       2.016   1.778  18.424  0.00  0.00    +0.000 C 
BRANCH  15  16
ATOM     16  C   UNL     1       0.777   2.540  18.872  0.00  0.00    +0.000 C 
BRANCH  16  17
ATOM     17  C   UNL     1       1.069   3.365  20.103  0.00  0.00    +0.000 C 
ATOM     18  O   UNL     1       1.038   2.904  21.240  0.00  0.00    +0.000 OA
ATOM     19  N   UNL     1       1.367   4.677  19.817  0.00  0.00    +0.000 N 
ATOM     20  C   UNL     1       1.678   5.637  20.847  0.00  0.00    +0.000 C 
ATOM     21  H   UNL     1       1.380   4.987  18.853  0.00  0.00    +0.000 HD
ENDBRANCH  16  17
ENDBRANCH  15  16
ENDBRANCH   4  15
TORSDOF 6
ENDMDL
MODEL 7
REMARK VINA RESULT:      -6.9      1.376      1.841
REMARK  Name = 
REMARK  8 active torsions:
REMARK  status: ('A' for Active; 'I' for Inactive)
REMARK    1  A    between atoms: C_1  and  C_2
REMARK    2  A    between atoms: C_2  and  O_3
REMARK    3  A    between atoms: O_3  and  C_4
REMARK    4  A    between atoms: C_7  and  C_8
REMARK    5  A    between atoms: C_11  and  C_12
REMARK    6  A    between atoms: C_12  and  C_13
REMARK    7  A    between atoms: C_13  and  C_14
REMARK    8  A    between atoms: N_16  and  C_17
REMARK                            x       y       z     vdW  Elec       q    Type
REMARK                         _______ _______ _______ _____ _____    ______ ____
ROOT
ATOM      1  C   UNL     1       6.219   4.875  15.709  0.00  0.00    +0.000 A 
ATOM      2  N   UNL     1       7.376   5.555  15.662  0.00  0.00    +0.000 NA
ATOM      3  O   UNL     1       7.780   5.434  14.336  0.00  0.00    +0.000 OA
ATOM      4  C   UNL     1       6.824   4.696  13.707  0.00  0.00    +0.000 A 
ATOM      5  N   UNL     1       5.842   4.331  14.497  0.00  0.00    +0.000 NA
ENDROOT
BRANCH   1   9
ATOM      6  C   UNL     1       3.835   4.397  19.220  0.00  0.00    +0.000 A 
ATOM      7  C   UNL     1       4.875   5.325  19.201  0.00  0.00    +0.000 A 
ATOM      8  C   UNL     1       5.654   5.492  18.054  0.00  0.00    +0.000 A 
ATOM      9  C   UNL     1       5.412   4.714  16.913  0.00  0.00    +0.000 A 
ATOM     10  C   UNL     1       4.380   3.767  16.951  0.00  0.00    +0.000 A 
ATOM     11  C   UNL     1       3.601   3.601  18.101  0.00  0.00    +0.000 A 
BRANCH   6  12
ATOM     12  O   UNL     1       3.126   4.342  20.387  0.00  0.00    +0.000 OA
BRANCH  12  14
ATOM     13  C   UNL     1       0.915   3.477  20.522  0.00  0.00    +0.000 C 
ATOM     14  C   UNL     1       1.753   4.722  20.300  0.00  0.00    +0.000 C 
ENDBRANCH  12  14
ENDBRANCH   6  12
ENDBRANCH   1   9
BRANCH   4  15
ATOM     15  C   UNL     1       7.016   4.438  12.264  0.00  0.00    +0.000 C 
BRANCH  15  16
ATOM     16  C   UNL     1       7.119   2.944  11.990  0.00  0.00    +0.000 C 
BRANCH  16  17
ATOM     17  C   UNL     1       5.793   2.390  11.524  0.00  0.00    +0.000 C 
ATOM     18  O   UNL     1       5.625   1.209  11.236  0.00  0.00    +0.000 OA
ATOM     19  N   UNL     1       4.804   3.344  11.452  0.00  0.00    +0.000 N 
ATOM     20  C   UNL     1       3.461   3.028  11.030  0.00  0.00    +0.000 C 
ATOM     21  H   UNL     1       5.013   4.300  11.710  0.00  0.00    +0.000 HD
ENDBRANCH  16  17
ENDBRANCH  15  16
ENDBRANCH   4  15
TORSDOF 6
ENDMDL
MODEL 8
REMARK VINA RESULT:      -6.9      2.221      2.828
REMARK  Name = 
REMARK  8 active torsions:
REMARK  status: ('A' for Active; 'I' for Inactive)
REMARK    1  A    between atoms: C_1  and  C_2
REMARK    2  A    between atoms: C_2  and  O_3
REMARK    3  A    between atoms: O_3  and  C_4
REMARK    4  A    between atoms: C_7  and  C_8
REMARK    5  A    between atoms: C_11  and  C_12
REMARK    6  A    between atoms: C_12  and  C_13
REMARK    7  A    between atoms: C_13  and  C_14
REMARK    8  A    between atoms: N_16  and  C_17
REMARK                            x       y       z     vdW  Elec       q    Type
REMARK                         _______ _______ _______ _____ _____    ______ ____
ROOT
ATOM      1  C   UNL     1       4.631   5.991  16.706  0.00  0.00    +0.000 A 
ATOM      2  N   UNL     1       5.244   6.885  15.914  0.00  0.00    +0.000 NA
ATOM      3  O   UNL     1       5.953   6.098  15.011  0.00  0.00    +0.000 OA
ATOM      4  C   UNL     1       5.695   4.803  15.342  0.00  0.00    +0.000 A 
ATOM      5  N   UNL     1       4.887   4.677  16.369  0.00  0.00    +0.000 NA
ENDROOT
BRANCH   1   9
ATOM      6  C   UNL     1       2.088   7.009  19.984  0.00  0.00    +0.000 A 
ATOM      7  C   UNL     1       2.264   7.904  18.930  0.00  0.00    +0.000 A 
ATOM      8  C   UNL     1       3.088   7.575  17.851  0.00  0.00    +0.000 A 
ATOM      9  C   UNL     1       3.764   6.348  17.824  0.00  0.00    +0.000 A 
ATOM     10  C   UNL     1       3.600   5.465  18.900  0.00  0.00    +0.000 A 
ATOM     11  C   UNL     1       2.774   5.796  19.980  0.00  0.00    +0.000 A 
BRANCH   6  12
ATOM     12  O   UNL     1       1.238   7.428  20.968  0.00  0.00    +0.000 OA
BRANCH  12  14
ATOM     13  C   UNL     1       0.755   9.271  22.391  0.00  0.00    +0.000 C 
ATOM     14  C   UNL     1       0.902   8.815  20.952  0.00  0.00    +0.000 C 
ENDBRANCH  12  14
ENDBRANCH   6  12
ENDBRANCH   1   9
BRANCH   4  15
ATOM     15  C   UNL     1       6.327   3.758  14.510  0.00  0.00    +0.000 C 
BRANCH  15  16
ATOM     16  C   UNL     1       6.412   4.199  13.055  0.00  0.00    +0.000 C 
BRANCH  16  17
ATOM     17  C   UNL     1       5.761   3.183  12.147  0.00  0.00    +0.000 C 
ATOM     18  O   UNL     1       4.606   3.287  11.745  0.00  0.00    +0.000 OA
ATOM     19  N   UNL     1       6.592   2.135  11.824  0.00  0.00    +0.000 N 
ATOM     20  C   UNL     1       6.169   1.055  10.967  0.00  0.00    +0.000 C 
ATOM     21  H   UNL     1       7.537   2.117  12.188  0.00  0.00    +0.000 HD
ENDBRANCH  16  17
ENDBRANCH  15  16
ENDBRANCH   4  15
TORSDOF 6
ENDMDL
MODEL 9
REMARK VINA RESULT:      -6.9      1.231      1.524
REMARK  Name = 
REMARK  8 active torsions:
REMARK  status: ('A' for Active; 'I' for Inactive)
REMARK    1  A    between atoms: C_1  and  C_2
REMARK    2  A    between atoms: C_2  and  O_3
REMARK    3  A    between atoms: O_3  and  C_4
REMARK    4  A    between atoms: C_7  and  C_8
REMARK    5  A    between atoms: C_11  and  C_12
REMARK    6  A    between atoms: C_12  and  C_13
REMARK    7  A    between atoms: C_13  and  C_14
REMARK    8  A    between atoms: N_16  and  C_17
REMARK                            x       y       z     vdW  Elec       q    Type
REMARK                         _______ _______ _______ _____ _____    ______ ____
ROOT
ATOM      1  C   UNL     1       6.006   4.942  16.080  0.00  0.00    +0.000 A 
ATOM      2  N   UNL     1       7.147   5.640  15.961  0.00  0.00    +0.000 NA
ATOM      3  O   UNL     1       7.604   5.319  14.687  0.00  0.00    +0.000 OA
ATOM      4  C   UNL     1       6.691   4.460  14.155  0.00  0.00    +0.000 A 
ATOM      5  N   UNL     1       5.689   4.198  14.962  0.00  0.00    +0.000 NA
ENDROOT
BRANCH   1   9
ATOM      6  C   UNL     1       3.533   4.951  19.562  0.00  0.00    +0.000 A 
ATOM      7  C   UNL     1       3.266   5.827  18.512  0.00  0.00    +0.000 A 
ATOM      8  C   UNL     1       4.066   5.825  17.366  0.00  0.00    +0.000 A 
ATOM      9  C   UNL     1       5.160   4.955  17.268  0.00  0.00    +0.000 A 
ATOM     10  C   UNL     1       5.435   4.094  18.339  0.00  0.00    +0.000 A 
ATOM     11  C   UNL     1       4.632   4.098  19.486  0.00  0.00    +0.000 A 
BRANCH   6  12
ATOM     12  O   UNL     1       2.667   5.024  20.617  0.00  0.00    +0.000 OA
BRANCH  12  14
ATOM     13  C   UNL     1       1.364   3.104  21.138  0.00  0.00    +0.000 C 
ATOM     14  C   UNL     1       1.383   4.435  20.411  0.00  0.00    +0.000 C 
ENDBRANCH  12  14
ENDBRANCH   6  12
ENDBRANCH   1   9
BRANCH   4  15
ATOM     15  C   UNL     1       6.942   3.978  12.781  0.00  0.00    +0.000 C 
BRANCH  15  16
ATOM     16  C   UNL     1       5.667   4.017  11.950  0.00  0.00    +0.000 C 
BRANCH  16  17
ATOM     17  C   UNL     1       5.272   2.628  11.507  0.00  0.00    +0.000 C 
ATOM     18  O   UNL     1       4.141   2.343  11.126  0.00  0.00    +0.000 OA
ATOM     19  N   UNL     1       6.305   1.722  11.580  0.00  0.00    +0.000 N 
ATOM     20  C   UNL     1       6.144   0.340  11.203  0.00  0.00    +0.000 C 
ATOM     21  H   UNL     1       7.216   2.029  11.899  0.00  0.00    +0.000 HD
ENDBRANCH  16  17
ENDBRANCH  15  16
ENDBRANCH   4  15
TORSDOF 6
ENDMDL
