MODEL 1
REMARK VINA RESULT:      -8.0      0.000      0.000
REMARK  Name = 
REMARK  4 active torsions:
REMARK  status: ('A' for Active; 'I' for Inactive)
REMARK    1  A    between atoms: C_1  and  C_2
REMARK    2  A    between atoms: C_2  and  C_3
REMARK    3  A    between atoms: C_3  and  C_4
REMARK    4  A    between atoms: C_4  and  C_5
REMARK                            x       y       z     vdW  Elec       q    Type
REMARK                         _______ _______ _______ _____ _____    ______ ____
ROOT
ATOM      1  C   UNL     1       5.892   4.567  14.678  0.00  0.00    +0.000 A 
ATOM      2  N   UNL     1       7.004   5.333  14.385  0.00  0.00    +0.000 N 
ATOM      3  N   UNL     1       7.636   5.823  15.468  0.00  0.00    +0.000 NA
ATOM      4  C   UNL     1       6.892   5.362  16.464  0.00  0.00    +0.000 A 
ATOM      5  O   UNL     1       7.227   5.638  17.731  0.00  0.00    +0.000 OA
ATOM      6  C   UNL     1       6.442   5.123  18.727  0.00  0.00    +0.000 A 
ATOM      7  O   UNL     1       6.708   5.320  19.910  0.00  0.00    +0.000 OA
ATOM      8  C   UNL     1       5.229   4.308  18.365  0.00  0.00    +0.000 A 
ATOM      9  C   UNL     1       4.417   3.813  19.395  0.00  0.00    +0.000 A 
ATOM     10  C   UNL     1       3.280   3.067  19.091  0.00  0.00    +0.000 A 
ATOM     11  C   UNL     1       2.949   2.814  17.760  0.00  0.00    +0.000 A 
ATOM     12  C   UNL     1       3.753   3.302  16.724  0.00  0.00    +0.000 A 
ATOM     13  C   UNL     1       4.897   4.043  17.020  0.00  0.00    +0.000 A 
ATOM     14  C   UNL     1       5.797   4.599  16.054  0.00  0.00    +0.000 A 
ATOM     15  H   UNL     1       7.386   5.554  13.471  0.00  0.00    +0.000 HD
ENDROOT
BRANCH   1  16
ATOM     16  C   UNL     1       5.113   3.933  13.578  0.00  0.00    +0.000 C 
BRANCH  16  17
ATOM     17  C   UNL     1       6.035   3.342  12.509  0.00  0.00    +0.000 C 
BRANCH  17  19
ATOM     18  C   UNL     1       3.925   3.221  11.141  0.00  0.00    +0.000 C 
ATOM     19  C   UNL     1       5.247   2.545  11.469  0.00  0.00    +0.000 C 
ENDBRANCH  17  19
ENDBRANCH  16  17
ENDBRANCH   1  16
TORSDOF 3
ENDMDL
MODEL 2
REMARK VINA RESULT:      -7.6      2.171      2.441
REMARK  Name = 
REMARK  4 active torsions:
REMARK  status: ('A' for Active; 'I' for Inactive)
REMARK    1  A    between atoms: C_1  and  C_2
REMARK    2  A    between atoms: C_2  and  C_3
REMARK    3  A    between atoms: C_3  and  C_4
REMARK    4  A    between atoms: C_4  and  C_5
REMARK                            x       y       z     vdW  Elec       q    Type
REMARK                         _______ _______ _______ _____ _____    ______ ____
ROOT
ATOM      1  C   UNL     1       5.467   4.883  15.855  0.00  0.00    +0.000 A 
ATOM      2  N   UNL     1       6.079   6.099  15.622  0.00  0.00    +0.000 N 
ATOM      3  N   UNL     1       5.573   7.118  16.342  0.00  0.00    +0.000 NA
ATOM      4  C   UNL     1       4.609   6.524  17.034  0.00  0.00    +0.000 A 
ATOM      5  O   UNL     1       3.873   7.236  17.898  0.00  0.00    +0.000 OA
ATOM      6  C   UNL     1       2.905   6.578  18.606  0.00  0.00    +0.000 A 
ATOM      7  O   UNL     1       2.210   7.167  19.430  0.00  0.00    +0.000 OA
ATOM      8  C   UNL     1       2.684   5.108  18.365  0.00  0.00    +0.000 A 
ATOM      9  C   UNL     1       1.667   4.454  19.076  0.00  0.00    +0.000 A 
ATOM     10  C   UNL     1       1.429   3.097  18.864  0.00  0.00    +0.000 A 
ATOM     11  C   UNL     1       2.202   2.389  17.944  0.00  0.00    +0.000 A 
ATOM     12  C   UNL     1       3.220   3.032  17.230  0.00  0.00    +0.000 A 
ATOM     13  C   UNL     1       3.469   4.388  17.442  0.00  0.00    +0.000 A 
ATOM     14  C   UNL     1       4.476   5.159  16.774  0.00  0.00    +0.000 A 
ATOM     15  H   UNL     1       6.848   6.299  14.990  0.00  0.00    +0.000 HD
ENDROOT
BRANCH   1  16
ATOM     16  C   UNL     1       5.945   3.659  15.151  0.00  0.00    +0.000 C 
BRANCH  16  17
ATOM     17  C   UNL     1       6.343   3.967  13.706  0.00  0.00    +0.000 C 
BRANCH  17  19
ATOM     18  C   UNL     1       5.651   2.563  11.734  0.00  0.00    +0.000 C 
ATOM     19  C   UNL     1       5.216   3.625  12.731  0.00  0.00    +0.000 C 
ENDBRANCH  17  19
ENDBRANCH  16  17
ENDBRANCH   1  16
TORSDOF 3
ENDMDL
MODEL 3
REMARK VINA RESULT:      -7.2      1.077      1.432
REMARK  Name = 
REMARK  4 active torsions:
REMARK  status: ('A' for Active; 'I' for Inactive)
REMARK    1  A    between atoms: C_1  and  C_2
REMARK    2  A    between atoms: C_2  and  C_3
REMARK    3  A    between atoms: C_3  and  C_4
REMARK    4  A    between atoms: C_4  and  C_5
REMARK                            x       y       z     vdW  Elec       q    Type
REMARK                         _______ _______ _______ _____ _____    ______ ____
ROOT
ATOM      1  C   UNL     1       5.953   4.007  13.739  0.00  0.00    +0.000 A 
ATOM      2  N   UNL     1       7.039   4.571  13.099  0.00  0.00    +0.000 N 
ATOM      3  N   UNL     1       7.804   5.346  13.891  0.00  0.00    +0.000 NA
ATOM      4  C   UNL     1       7.171   5.276  15.054  0.00  0.00    +0.000 A 
ATOM      5  O   UNL     1       7.658   5.925  16.119  0.00  0.00    +0.000 OA
ATOM      6  C   UNL     1       6.984   5.806  17.304  0.00  0.00    +0.000 A 
ATOM      7  O   UNL     1       7.390   6.358  18.324  0.00  0.00    +0.000 OA
ATOM      8  C   UNL     1       5.719   4.990  17.355  0.00  0.00    +0.000 A 
ATOM      9  C   UNL     1       5.022   4.903  18.569  0.00  0.00    +0.000 A 
ATOM     10  C   UNL     1       3.841   4.167  18.644  0.00  0.00    +0.000 A 
ATOM     11  C   UNL     1       3.351   3.518  17.511  0.00  0.00    +0.000 A 
ATOM     12  C   UNL     1       4.039   3.598  16.295  0.00  0.00    +0.000 A 
ATOM     13  C   UNL     1       5.226   4.327  16.213  0.00  0.00    +0.000 A 
ATOM     14  C   UNL     1       6.019   4.487  15.030  0.00  0.00    +0.000 A 
ATOM     15  H   UNL     1       7.317   4.463  12.128  0.00  0.00    +0.000 HD
ENDROOT
BRANCH   1  16
ATOM     16  C   UNL     1       5.036   3.099  12.994  0.00  0.00    +0.000 C 
BRANCH  16  17
ATOM     17  C   UNL     1       4.853   3.557  11.545  0.00  0.00    +0.000 C 
BRANCH  17  19
ATOM     18  C   UNL     1       3.115   3.980   9.774  0.00  0.00    +0.000 C 
ATOM     19  C   UNL     1       3.480   3.162  11.002  0.00  0.00    +0.000 C 
ENDBRANCH  17  19
ENDBRANCH  16  17
ENDBRANCH   1  16
TORSDOF 3
ENDMDL
MODEL 4
REMARK VINA RESULT:      -7.2      2.723      3.577
REMARK  Name = 
REMARK  4 active torsions:
REMARK  status: ('A' for Active; 'I' for Inactive)
REMARK    1  A    between atoms: C_1  and  C_2
REMARK    2  A    between atoms: C_2  and  C_3
REMARK    3  A    between atoms: C_3  and  C_4
REMARK    4  A    between atoms: C_4  and  C_5
REMARK                            x       y       z     vdW  Elec       q    Type
REMARK                         _______ _______ _______ _____ _____    ______ ____
ROOT
ATOM      1  C   UNL     1       4.402   5.122  16.875  0.00  0.00    +0.000 A 
ATOM      2  N   UNL     1       4.766   6.420  16.572  0.00  0.00    +0.000 N 
ATOM      3  N   UNL     1       4.211   7.349  17.372  0.00  0.00    +0.000 NA
ATOM      4  C   UNL     1       3.469   6.614  18.189  0.00  0.00    +0.000 A 
ATOM      5  O   UNL     1       2.760   7.205  19.159  0.00  0.00    +0.000 OA
ATOM      6  C   UNL     1       2.026   6.405  19.992  0.00  0.00    +0.000 A 
ATOM      7  O   UNL     1       1.372   6.881  20.917  0.00  0.00    +0.000 OA
ATOM      8  C   UNL     1       2.016   4.916  19.767  0.00  0.00    +0.000 A 
ATOM      9  C   UNL     1       1.234   4.112  20.609  0.00  0.00    +0.000 A 
ATOM     10  C   UNL     1       1.192   2.732  20.416  0.00  0.00    +0.000 A 
ATOM     11  C   UNL     1       1.928   2.151  19.383  0.00  0.00    +0.000 A 
ATOM     12  C   UNL     1       2.712   2.944  18.537  0.00  0.00    +0.000 A 
ATOM     13  C   UNL     1       2.764   4.325  18.729  0.00  0.00    +0.000 A 
ATOM     14  C   UNL     1       3.524   5.243  17.932  0.00  0.00    +0.000 A 
ATOM     15  H   UNL     1       5.392   6.736  15.838  0.00  0.00    +0.000 HD
ENDROOT
BRANCH   1  16
ATOM     16  C   UNL     1       4.966   3.986  16.093  0.00  0.00    +0.000 C 
BRANCH  16  17
ATOM     17  C   UNL     1       6.472   4.151  15.877  0.00  0.00    +0.000 C 
BRANCH  17  19
ATOM     18  C   UNL     1       5.873   3.783  13.460  0.00  0.00    +0.000 C 
ATOM     19  C   UNL     1       6.793   4.512  14.427  0.00  0.00    +0.000 C 
ENDBRANCH  17  19
ENDBRANCH  16  17
ENDBRANCH   1  16
TORSDOF 3
ENDMDL
MODEL 5
REMARK VINA RESULT:      -7.2      3.375      4.881
REMARK  Name = 
REMARK  4 active torsions:
REMARK  status: ('A' for Active; 'I' for Inactive)
REMARK    1  A    between atoms: C_1  and  C_2
REMARK    2  A    between atoms: C_2  and  C_3
REMARK    3  A    between atoms: C_3  and  C_4
REMARK    4  A    between atoms: C_4  and  C_5
REMARK                            x       y       z     vdW  Elec       q    Type
REMARK                         _______ _______ _______ _____ _____    ______ ____
ROOT
ATOM      1  C   UNL     1       4.237   3.556  17.189  0.00  0.00    +0.000 A 
ATOM      2  N   UNL     1       4.397   2.183  17.187  0.00  0.00    +0.000 N 
ATOM      3  N   UNL     1       3.763   1.554  18.194  0.00  0.00    +0.000 NA
ATOM      4  C   UNL     1       3.203   2.561  18.850  0.00  0.00    +0.000 A 
ATOM      5  O   UNL     1       2.456   2.317  19.935  0.00  0.00    +0.000 OA
ATOM      6  C   UNL     1       1.879   3.384  20.567  0.00  0.00    +0.000 A 
ATOM      7  O   UNL     1       1.164   3.228  21.554  0.00  0.00    +0.000 OA
ATOM      8  C   UNL     1       2.133   4.775  20.049  0.00  0.00    +0.000 A 
ATOM      9  C   UNL     1       1.561   5.862  20.726  0.00  0.00    +0.000 A 
ATOM     10  C   UNL     1       1.789   7.162  20.279  0.00  0.00    +0.000 A 
ATOM     11  C   UNL     1       2.588   7.382  19.157  0.00  0.00    +0.000 A 
ATOM     12  C   UNL     1       3.163   6.305  18.473  0.00  0.00    +0.000 A 
ATOM     13  C   UNL     1       2.933   5.000  18.911  0.00  0.00    +0.000 A 
ATOM     14  C   UNL     1       3.465   3.817  18.301  0.00  0.00    +0.000 A 
ATOM     15  H   UNL     1       4.920   1.617  16.526  0.00  0.00    +0.000 HD
ENDROOT
BRANCH   1  16
ATOM     16  C   UNL     1       4.857   4.380  16.113  0.00  0.00    +0.000 C 
BRANCH  16  17
ATOM     17  C   UNL     1       6.375   4.198  16.075  0.00  0.00    +0.000 C 
BRANCH  17  19
ATOM     18  C   UNL     1       7.169   6.234  17.325  0.00  0.00    +0.000 C 
ATOM     19  C   UNL     1       7.034   4.720  17.352  0.00  0.00    +0.000 C 
ENDBRANCH  17  19
ENDBRANCH  16  17
ENDBRANCH   1  16
TORSDOF 3
ENDMDL
MODEL 6
REMARK VINA RESULT:      -7.1      3.456      5.987
REMARK  Name = 
REMARK  4 active torsions:
REMARK  status: ('A' for Active; 'I' for Inactive)
REMARK    1  A    between atoms: C_1  and  C_2
REMARK    2  A    between atoms: C_2  and  C_3
REMARK    3  A    between atoms: C_3  and  C_4
REMARK    4  A    between atoms: C_4  and  C_5
REMARK                            x       y       z     vdW  Elec       q    Type
REMARK                         _______ _______ _______ _____ _____    ______ ____
ROOT
ATOM      1  C   UNL     1       1.963   2.987  18.551  0.00  0.00    +0.000 A 
ATOM      2  N   UNL     1       2.435   1.709  18.322  0.00  0.00    +0.000 N 
ATOM      3  N   UNL     1       3.619   1.664  17.684  0.00  0.00    +0.000 NA
ATOM      4  C   UNL     1       3.889   2.949  17.496  0.00  0.00    +0.000 A 
ATOM      5  O   UNL     1       5.026   3.310  16.888  0.00  0.00    +0.000 OA
ATOM      6  C   UNL     1       5.273   4.647  16.735  0.00  0.00    +0.000 A 
ATOM      7  O   UNL     1       6.308   5.046  16.206  0.00  0.00    +0.000 OA
ATOM      8  C   UNL     1       4.254   5.646  17.218  0.00  0.00    +0.000 A 
ATOM      9  C   UNL     1       4.507   7.012  17.026  0.00  0.00    +0.000 A 
ATOM     10  C   UNL     1       3.576   7.960  17.449  0.00  0.00    +0.000 A 
ATOM     11  C   UNL     1       2.393   7.549  18.062  0.00  0.00    +0.000 A 
ATOM     12  C   UNL     1       2.131   6.188  18.259  0.00  0.00    +0.000 A 
ATOM     13  C   UNL     1       3.061   5.234  17.845  0.00  0.00    +0.000 A 
ATOM     14  C   UNL     1       2.910   3.816  17.986  0.00  0.00    +0.000 A 
ATOM     15  H   UNL     1       2.000   0.828  18.581  0.00  0.00    +0.000 HD
ENDROOT
BRANCH   1  16
ATOM     16  C   UNL     1       0.678   3.190  19.277  0.00  0.00    +0.000 C 
BRANCH  16  17
ATOM     17  C   UNL     1       0.854   4.136  20.467  0.00  0.00    +0.000 C 
BRANCH  17  19
ATOM     18  C   UNL     1       1.757   2.399  22.049  0.00  0.00    +0.000 C 
ATOM     19  C   UNL     1       2.033   3.718  21.345  0.00  0.00    +0.000 C 
ENDBRANCH  17  19
ENDBRANCH  16  17
ENDBRANCH   1  16
TORSDOF 3
ENDMDL
MODEL 7
REMARK VINA RESULT:      -7.0      3.364      4.511
REMARK  Name = 
REMARK  4 active torsions:
REMARK  status: ('A' for Active; 'I' for Inactive)
REMARK    1  A    between atoms: C_1  and  C_2
REMARK    2  A    between atoms: C_2  and  C_3
REMARK    3  A    between atoms: C_3  and  C_4
REMARK    4  A    between atoms: C_4  and  C_5
REMARK                            x       y       z     vdW  Elec       q    Type
REMARK                         _______ _______ _______ _____ _____    ______ ____
ROOT
ATOM      1  C   UNL     1       4.251   3.797  17.227  0.00  0.00    +0.000 A 
ATOM      2  N   UNL     1       4.467   2.438  17.104  0.00  0.00    +0.000 N 
ATOM      3  N   UNL     1       3.835   1.693  18.031  0.00  0.00    +0.000 NA
ATOM      4  C   UNL     1       3.219   2.613  18.761  0.00  0.00    +0.000 A 
ATOM      5  O   UNL     1       2.456   2.240  19.797  0.00  0.00    +0.000 OA
ATOM      6  C   UNL     1       1.821   3.221  20.509  0.00  0.00    +0.000 A 
ATOM      7  O   UNL     1       1.089   2.946  21.457  0.00  0.00    +0.000 OA
ATOM      8  C   UNL     1       2.029   4.663  20.128  0.00  0.00    +0.000 A 
ATOM      9  C   UNL     1       1.397   5.659  20.886  0.00  0.00    +0.000 A 
ATOM     10  C   UNL     1       1.582   7.003  20.567  0.00  0.00    +0.000 A 
ATOM     11  C   UNL     1       2.398   7.357  19.492  0.00  0.00    +0.000 A 
ATOM     12  C   UNL     1       3.034   6.371  18.729  0.00  0.00    +0.000 A 
ATOM     13  C   UNL     1       2.847   5.024  19.038  0.00  0.00    +0.000 A 
ATOM     14  C   UNL     1       3.442   3.924  18.337  0.00  0.00    +0.000 A 
ATOM     15  H   UNL     1       5.028   1.957  16.409  0.00  0.00    +0.000 HD
ENDROOT
BRANCH   1  16
ATOM     16  C   UNL     1       4.861   4.742  16.250  0.00  0.00    +0.000 C 
BRANCH  16  17
ATOM     17  C   UNL     1       6.389   4.698  16.312  0.00  0.00    +0.000 C 
BRANCH  17  19
ATOM     18  C   UNL     1       6.050   3.967  13.927  0.00  0.00    +0.000 C 
ATOM     19  C   UNL     1       7.004   4.621  14.914  0.00  0.00    +0.000 C 
ENDBRANCH  17  19
ENDBRANCH  16  17
ENDBRANCH   1  16
TORSDOF 3
ENDMDL
MODEL 8
REMARK VINA RESULT:      -7.0      3.095      4.379
REMARK  Name = 
REMARK  4 active torsions:
REMARK  status: ('A' for Active; 'I' for Inactive)
REMARK    1  A    between atoms: C_1  and  C_2
REMARK    2  A    between atoms: C_2  and  C_3
REMARK    3  A    between atoms: C_3  and  C_4
REMARK    4  A    between atoms: C_4  and  C_5
REMARK                            x       y       z     vdW  Elec       q    Type
REMARK                         _______ _______ _______ _____ _____    ______ ____
ROOT
ATOM      1  C   UNL     1       4.828   5.377  17.012  0.00  0.00    +0.000 A 
ATOM      2  N   UNL     1       4.741   6.629  16.433  0.00  0.00    +0.000 N 
ATOM      3  N   UNL     1       3.916   7.477  17.075  0.00  0.00    +0.000 NA
ATOM      4  C   UNL     1       3.464   6.731  18.074  0.00  0.00    +0.000 A 
ATOM      5  O   UNL     1       2.607   7.252  18.962  0.00  0.00    +0.000 OA
ATOM      6  C   UNL     1       2.184   6.452  19.988  0.00  0.00    +0.000 A 
ATOM      7  O   UNL     1       1.415   6.876  20.848  0.00  0.00    +0.000 OA
ATOM      8  C   UNL     1       2.664   5.027  20.060  0.00  0.00    +0.000 A 
ATOM      9  C   UNL     1       2.198   4.210  21.100  0.00  0.00    +0.000 A 
ATOM     10  C   UNL     1       2.614   2.882  21.185  0.00  0.00    +0.000 A 
ATOM     11  C   UNL     1       3.493   2.366  20.234  0.00  0.00    +0.000 A 
ATOM     12  C   UNL     1       3.964   3.172  19.192  0.00  0.00    +0.000 A 
ATOM     13  C   UNL     1       3.559   4.504  19.105  0.00  0.00    +0.000 A 
ATOM     14  C   UNL     1       3.967   5.429  18.088  0.00  0.00    +0.000 A 
ATOM     15  H   UNL     1       5.222   6.968  15.606  0.00  0.00    +0.000 HD
ENDROOT
BRANCH   1  16
ATOM     16  C   UNL     1       5.730   4.346  16.427  0.00  0.00    +0.000 C 
BRANCH  16  17
ATOM     17  C   UNL     1       7.201   4.683  16.680  0.00  0.00    +0.000 C 
BRANCH  17  19
ATOM     18  C   UNL     1       7.739   6.310  18.524  0.00  0.00    +0.000 C 
ATOM     19  C   UNL     1       7.488   4.852  18.172  0.00  0.00    +0.000 C 
ENDBRANCH  17  19
ENDBRANCH  16  17
ENDBRANCH   1  16
TORSDOF 3
ENDMDL
MODEL 9
REMARK VINA RESULT:      -7.0      2.271      5.001
REMARK  Name = 
REMARK  4 active torsions:
REMARK  status: ('A' for Active; 'I' for Inactive)
REMARK    1  A    between atoms: C_1  and  C_2
REMARK    2  A    between atoms: C_2  and  C_3
REMARK    3  A    between atoms: C_3  and  C_4
REMARK    4  A    between atoms: C_4  and  C_5
REMARK                            x       y       z     vdW  Elec       q    Type
REMARK                         _______ _______ _______ _____ _____    ______ ____
ROOT
ATOM      1  C   UNL     1       4.326   3.617  18.254  0.00  0.00    +0.000 A 
ATOM      2  N   UNL     1       4.345   4.118  19.541  0.00  0.00    +0.000 N 
ATOM      3  N   UNL     1       5.192   5.149  19.718  0.00  0.00    +0.000 NA
ATOM      4  C   UNL     1       5.725   5.288  18.512  0.00  0.00    +0.000 A 
ATOM      5  O   UNL     1       6.627   6.253  18.289  0.00  0.00    +0.000 OA
ATOM      6  C   UNL     1       7.135   6.373  17.024  0.00  0.00    +0.000 A 
ATOM      7  O   UNL     1       7.949   7.251  16.747  0.00  0.00    +0.000 OA
ATOM      8  C   UNL     1       6.693   5.408  15.956  0.00  0.00    +0.000 A 
ATOM      9  C   UNL     1       7.246   5.524  14.672  0.00  0.00    +0.000 A 
ATOM     10  C   UNL     1       6.868   4.636  13.666  0.00  0.00    +0.000 A 
ATOM     11  C   UNL     1       5.940   3.631  13.937  0.00  0.00    +0.000 A 
ATOM     12  C   UNL     1       5.382   3.507  15.215  0.00  0.00    +0.000 A 
ATOM     13  C   UNL     1       5.750   4.396  16.225  0.00  0.00    +0.000 A 
ATOM     14  C   UNL     1       5.254   4.373  17.570  0.00  0.00    +0.000 A 
ATOM     15  H   UNL     1       3.803   3.804  20.340  0.00  0.00    +0.000 HD
ENDROOT
BRANCH   1  16
ATOM     16  C   UNL     1       3.411   2.494  17.904  0.00  0.00    +0.000 C 
BRANCH  16  17
ATOM     17  C   UNL     1       1.968   2.978  17.748  0.00  0.00    +0.000 C 
BRANCH  17  19
ATOM     18  C   UNL     1       0.885   3.315  19.996  0.00  0.00    +0.000 C 
ATOM     19  C   UNL     1       1.056   2.372  18.816  0.00  0.00    +0.000 C 
ENDBRANCH  17  19
ENDBRANCH  16  17
ENDBRANCH   1  16
TORSDOF 3
ENDMDL
