MODEL 1
REMARK VINA RESULT:      -8.6      0.000      0.000
REMARK  Name = 
REMARK  9 active torsions:
REMARK  status: ('A' for Active; 'I' for Inactive)
REMARK    1  A    between atoms: C_1  and  C_2
REMARK    2  A    between atoms: N_4  and  C_5
REMARK    3  A    between atoms: C_8  and  N_9
REMARK    4  A    between atoms: C_10  and  C_11
REMARK    5  A    between atoms: C_13  and  C_14
REMARK    6  A    between atoms: C_17  and  C_18
REMARK    7  A    between atoms: C_26  and  O_27
REMARK    8  A    between atoms: C_28  and  C_29
REMARK    9  A    between atoms: C_29  and  O_31
REMARK                            x       y       z     vdW  Elec       q    Type
REMARK                         _______ _______ _______ _____ _____    ______ ____
ROOT
ATOM      1  C   UNL     1       2.109   7.499  19.217  0.00  0.00    +0.000 A 
ATOM      2  N   UNL     1       1.626   8.803  19.187  0.00  0.00    +0.000 NA
ATOM      3  C   UNL     1       1.216   9.030  20.426  0.00  0.00    +0.000 A 
ATOM      4  O   UNL     1       1.417   7.972  21.279  0.00  0.00    +0.000 OA
ATOM      5  C   UNL     1       1.976   7.019  20.497  0.00  0.00    +0.000 A 
ENDROOT
BRANCH   3   6
ATOM      6  C   UNL     1       0.584  10.217  21.020  0.00  0.00    +0.000 A 
ATOM      7  C   UNL     1       0.932  11.507  20.590  0.00  0.00    +0.000 A 
ATOM      8  C   UNL     1       0.334  12.645  21.156  0.00  0.00    +0.000 A 
ATOM      9  C   UNL     1      -0.631  12.518  22.166  0.00  0.00    +0.000 A 
ATOM     10  C   UNL     1      -0.974  11.240  22.589  0.00  0.00    +0.000 A 
ATOM     11  F   UNL     1      -1.891  11.079  23.553  0.00  0.00    +0.000 F 
ATOM     12  C   UNL     1      -0.385  10.104  22.031  0.00  0.00    +0.000 A 
BRANCH   9  13
ATOM     13  C   UNL     1      -1.299  13.706  22.798  0.00  0.00    +0.000 C 
ATOM     14  F   UNL     1      -0.899  14.894  22.259  0.00  0.00    +0.000 F 
ATOM     15  F   UNL     1      -2.654  13.685  22.666  0.00  0.00    +0.000 F 
ATOM     16  F   UNL     1      -1.047  13.810  24.133  0.00  0.00    +0.000 F 
ENDBRANCH   9  13
ENDBRANCH   3   6
BRANCH   1  18
ATOM     17  N   UNL     1       3.839   6.211  18.191  0.00  0.00    +0.000 NA
ATOM     18  C   UNL     1       2.660   6.748  18.102  0.00  0.00    +0.000 C 
BRANCH  17  22
ATOM     19  C   UNL     1       5.779   4.371  14.861  0.00  0.00    +0.000 A 
ATOM     20  C   UNL     1       5.581   5.748  14.954  0.00  0.00    +0.000 A 
ATOM     21  C   UNL     1       4.894   6.306  16.044  0.00  0.00    +0.000 A 
ATOM     22  C   UNL     1       4.395   5.517  17.087  0.00  0.00    +0.000 A 
ATOM     23  C   UNL     1       4.610   4.131  16.994  0.00  0.00    +0.000 A 
ATOM     24  C   UNL     1       5.255   3.560  15.869  0.00  0.00    +0.000 A 
BRANCH  19  28
ATOM     25  C   UNL     1       6.991   2.681  11.699  0.00  0.00    +0.000 C 
ATOM     26  C   UNL     1       5.980   3.380  12.577  0.00  0.00    +0.000 C 
ATOM     27  O   UNL     1       4.835   3.565  12.179  0.00  0.00    +0.000 OA
ATOM     28  N   UNL     1       6.496   3.753  13.809  0.00  0.00    +0.000 N 
ATOM     29  H   UNL     1       7.499   3.679  13.924  0.00  0.00    +0.000 HD
ENDBRANCH  19  28
BRANCH  23  30
ATOM     30  C   UNL     1       4.239   3.189  18.071  0.00  0.00    +0.000 C 
ATOM     31  O   UNL     1       3.286   2.430  17.986  0.00  0.00    +0.000 OA
BRANCH  30  32
ATOM     32  O   UNL     1       5.094   3.199  19.115  0.00  0.00    +0.000 OA
ATOM     33  H   UNL     1       5.910   2.674  18.963  0.00  0.00    +0.000 HD
ENDBRANCH  30  32
ENDBRANCH  23  30
ENDBRANCH  17  22
ENDBRANCH   1  18
BRANCH   5  34
ATOM     34  O   UNL     1       2.273   5.897  21.129  0.00  0.00    +0.000 OA
ATOM     35  H   UNL     1       2.000   5.197  20.512  0.00  0.00    +0.000 HD
ENDBRANCH   5  34
TORSDOF 8
ENDMDL
MODEL 2
REMARK VINA RESULT:      -8.6      0.602      1.250
REMARK  Name = 
REMARK  9 active torsions:
REMARK  status: ('A' for Active; 'I' for Inactive)
REMARK    1  A    between atoms: C_1  and  C_2
REMARK    2  A    between atoms: N_4  and  C_5
REMARK    3  A    between atoms: C_8  and  N_9
REMARK    4  A    between atoms: C_10  and  C_11
REMARK    5  A    between atoms: C_13  and  C_14
REMARK    6  A    between atoms: C_17  and  C_18
REMARK    7  A    between atoms: C_26  and  O_27
REMARK    8  A    between atoms: C_28  and  C_29
REMARK    9  A    between atoms: C_29  and  O_31
REMARK                            x       y       z     vdW  Elec       q    Type
REMARK                         _______ _______ _______ _____ _____    ______ ____
ROOT
ATOM      1  C   UNL     1       2.038   7.546  19.384  0.00  0.00    +0.000 A 
ATOM      2  N   UNL     1       1.497   8.827  19.434  0.00  0.00    +0.000 NA
ATOM      3  C   UNL     1       1.054   8.948  20.677  0.00  0.00    +0.000 A 
ATOM      4  O   UNL     1       1.285   7.842  21.458  0.00  0.00    +0.000 OA
ATOM      5  C   UNL     1       1.902   6.972  20.624  0.00  0.00    +0.000 A 
ENDROOT
BRANCH   3   6
ATOM      6  C   UNL     1       0.357  10.061  21.337  0.00  0.00    +0.000 A 
ATOM      7  C   UNL     1      -0.489   9.829  22.433  0.00  0.00    +0.000 A 
ATOM      8  C   UNL     1      -1.162  10.888  23.066  0.00  0.00    +0.000 A 
ATOM      9  C   UNL     1      -1.001  12.206  22.617  0.00  0.00    +0.000 A 
ATOM     10  C   UNL     1      -0.163  12.433  21.533  0.00  0.00    +0.000 A 
ATOM     11  F   UNL     1       0.015  13.680  21.075  0.00  0.00    +0.000 F 
ATOM     12  C   UNL     1       0.510  11.387  20.899  0.00  0.00    +0.000 A 
BRANCH   9  13
ATOM     13  C   UNL     1      -1.696  13.370  23.264  0.00  0.00    +0.000 C 
ATOM     14  F   UNL     1      -0.845  14.192  23.943  0.00  0.00    +0.000 F 
ATOM     15  F   UNL     1      -2.336  14.171  22.367  0.00  0.00    +0.000 F 
ATOM     16  F   UNL     1      -2.636  12.990  24.174  0.00  0.00    +0.000 F 
ENDBRANCH   9  13
ENDBRANCH   3   6
BRANCH   1  18
ATOM     17  N   UNL     1       3.694   6.151  18.377  0.00  0.00    +0.000 NA
ATOM     18  C   UNL     1       2.643   6.901  18.232  0.00  0.00    +0.000 C 
BRANCH  17  22
ATOM     19  C   UNL     1       5.807   4.628  14.992  0.00  0.00    +0.000 A 
ATOM     20  C   UNL     1       5.533   5.985  15.164  0.00  0.00    +0.000 A 
ATOM     21  C   UNL     1       4.791   6.436  16.268  0.00  0.00    +0.000 A 
ATOM     22  C   UNL     1       4.312   5.558  17.248  0.00  0.00    +0.000 A 
ATOM     23  C   UNL     1       4.603   4.194  17.075  0.00  0.00    +0.000 A 
ATOM     24  C   UNL     1       5.304   3.730  15.934  0.00  0.00    +0.000 A 
BRANCH  19  28
ATOM     25  C   UNL     1       7.174   3.082  11.819  0.00  0.00    +0.000 C 
ATOM     26  C   UNL     1       6.089   3.615  12.727  0.00  0.00    +0.000 C 
ATOM     27  O   UNL     1       4.914   3.576  12.378  0.00  0.00    +0.000 OA
ATOM     28  N   UNL     1       6.579   4.116  13.924  0.00  0.00    +0.000 N 
ATOM     29  H   UNL     1       7.583   4.229  13.993  0.00  0.00    +0.000 HD
ENDBRANCH  19  28
BRANCH  23  30
ATOM     30  C   UNL     1       4.260   3.167  18.082  0.00  0.00    +0.000 C 
ATOM     31  O   UNL     1       3.262   2.469  17.998  0.00  0.00    +0.000 OA
BRANCH  30  32
ATOM     32  O   UNL     1       5.187   3.032  19.053  0.00  0.00    +0.000 OA
ATOM     33  H   UNL     1       6.100   2.902  18.712  0.00  0.00    +0.000 HD
ENDBRANCH  30  32
ENDBRANCH  23  30
ENDBRANCH  17  22
ENDBRANCH   1  18
BRANCH   5  34
ATOM     34  O   UNL     1       2.237   5.822  21.183  0.00  0.00    +0.000 OA
ATOM     35  H   UNL     1       1.488   5.234  20.984  0.00  0.00    +0.000 HD
ENDBRANCH   5  34
TORSDOF 8
ENDMDL
MODEL 3
REMARK VINA RESULT:      -8.3      1.620      2.257
REMARK  Name = 
REMARK  9 active torsions:
REMARK  status: ('A' for Active; 'I' for Inactive)
REMARK    1  A    between atoms: C_1  and  C_2
REMARK    2  A    between atoms: N_4  and  C_5
REMARK    3  A    between atoms: C_8  and  N_9
REMARK    4  A    between atoms: C_10  and  C_11
REMARK    5  A    between atoms: C_13  and  C_14
REMARK    6  A    between atoms: C_17  and  C_18
REMARK    7  A    between atoms: C_26  and  O_27
REMARK    8  A    between atoms: C_28  and  C_29
REMARK    9  A    between atoms: C_29  and  O_31
REMARK                            x       y       z     vdW  Elec       q    Type
REMARK                         _______ _______ _______ _____ _____    ______ ____
ROOT
ATOM      1  C   UNL     1       2.457   6.883  19.302  0.00  0.00    +0.000 A 
ATOM      2  N   UNL     1       1.912   8.163  19.333  0.00  0.00    +0.000 NA
ATOM      3  C   UNL     1       1.347   8.250  20.528  0.00  0.00    +0.000 A 
ATOM      4  O   UNL     1       1.500   7.122  21.298  0.00  0.00    +0.000 OA
ATOM      5  C   UNL     1       2.198   6.275  20.506  0.00  0.00    +0.000 A 
ENDROOT
BRANCH   3   6
ATOM      6  C   UNL     1       0.585   9.346  21.146  0.00  0.00    +0.000 A 
ATOM      7  C   UNL     1      -0.048   9.170  22.386  0.00  0.00    +0.000 A 
ATOM      8  C   UNL     1      -0.780  10.211  22.980  0.00  0.00    +0.000 A 
ATOM      9  C   UNL     1      -0.894  11.456  22.346  0.00  0.00    +0.000 A 
ATOM     10  C   UNL     1      -0.266  11.628  21.119  0.00  0.00    +0.000 A 
ATOM     11  F   UNL     1      -0.354  12.804  20.482  0.00  0.00    +0.000 F 
ATOM     12  C   UNL     1       0.464  10.599  20.522  0.00  0.00    +0.000 A 
BRANCH   9  13
ATOM     13  C   UNL     1      -1.664  12.600  22.944  0.00  0.00    +0.000 C 
ATOM     14  F   UNL     1      -0.864  13.517  23.561  0.00  0.00    +0.000 F 
ATOM     15  F   UNL     1      -2.375  13.302  22.019  0.00  0.00    +0.000 F 
ATOM     16  F   UNL     1      -2.558  12.202  23.891  0.00  0.00    +0.000 F 
ENDBRANCH   9  13
ENDBRANCH   3   6
BRANCH   1  18
ATOM     17  N   UNL     1       4.378   5.811  18.373  0.00  0.00    +0.000 NA
ATOM     18  C   UNL     1       3.175   6.269  18.199  0.00  0.00    +0.000 C 
BRANCH  17  22
ATOM     19  C   UNL     1       6.237   4.157  14.903  0.00  0.00    +0.000 A 
ATOM     20  C   UNL     1       4.969   3.772  15.337  0.00  0.00    +0.000 A 
ATOM     21  C   UNL     1       4.416   4.306  16.512  0.00  0.00    +0.000 A 
ATOM     22  C   UNL     1       5.096   5.253  17.286  0.00  0.00    +0.000 A 
ATOM     23  C   UNL     1       6.368   5.647  16.836  0.00  0.00    +0.000 A 
ATOM     24  C   UNL     1       6.951   5.069  15.681  0.00  0.00    +0.000 A 
BRANCH  19  28
ATOM     25  C   UNL     1       7.084   2.848  11.454  0.00  0.00    +0.000 C 
ATOM     26  C   UNL     1       6.171   3.402  12.523  0.00  0.00    +0.000 C 
ATOM     27  O   UNL     1       4.976   3.559  12.297  0.00  0.00    +0.000 OA
ATOM     28  N   UNL     1       6.831   3.684  13.709  0.00  0.00    +0.000 N 
ATOM     29  H   UNL     1       7.843   3.656  13.684  0.00  0.00    +0.000 HD
ENDBRANCH  19  28
BRANCH  23  30
ATOM     30  C   UNL     1       7.153   6.717  17.487  0.00  0.00    +0.000 C 
ATOM     31  O   UNL     1       7.360   7.798  16.959  0.00  0.00    +0.000 OA
BRANCH  30  32
ATOM     32  O   UNL     1       7.551   6.408  18.739  0.00  0.00    +0.000 OA
ATOM     33  H   UNL     1       6.874   5.923  19.260  0.00  0.00    +0.000 HD
ENDBRANCH  30  32
ENDBRANCH  23  30
ENDBRANCH  17  22
ENDBRANCH   1  18
BRANCH   5  34
ATOM     34  O   UNL     1       2.477   5.110  21.064  0.00  0.00    +0.000 OA
ATOM     35  H   UNL     1       3.412   4.958  20.842  0.00  0.00    +0.000 HD
ENDBRANCH   5  34
TORSDOF 8
ENDMDL
MODEL 4
REMARK VINA RESULT:      -8.2      1.515      1.989
REMARK  Name = 
REMARK  9 active torsions:
REMARK  status: ('A' for Active; 'I' for Inactive)
REMARK    1  A    between atoms: C_1  and  C_2
REMARK    2  A    between atoms: N_4  and  C_5
REMARK    3  A    between atoms: C_8  and  N_9
REMARK    4  A    between atoms: C_10  and  C_11
REMARK    5  A    between atoms: C_13  and  C_14
REMARK    6  A    between atoms: C_17  and  C_18
REMARK    7  A    between atoms: C_26  and  O_27
REMARK    8  A    between atoms: C_28  and  C_29
REMARK    9  A    between atoms: C_29  and  O_31
REMARK                            x       y       z     vdW  Elec       q    Type
REMARK                         _______ _______ _______ _____ _____    ______ ____
ROOT
ATOM      1  C   UNL     1       2.473   7.066  19.080  0.00  0.00    +0.000 A 
ATOM      2  N   UNL     1       1.969   8.363  19.049  0.00  0.00    +0.000 NA
ATOM      3  C   UNL     1       1.394   8.519  20.232  0.00  0.00    +0.000 A 
ATOM      4  O   UNL     1       1.502   7.421  21.051  0.00  0.00    +0.000 OA
ATOM      5  C   UNL     1       2.182   6.519  20.305  0.00  0.00    +0.000 A 
ENDROOT
BRANCH   3   6
ATOM      6  C   UNL     1       0.661   9.664  20.792  0.00  0.00    +0.000 A 
ATOM      7  C   UNL     1       0.674  10.910  20.147  0.00  0.00    +0.000 A 
ATOM      8  C   UNL     1      -0.021  12.009  20.680  0.00  0.00    +0.000 A 
ATOM      9  C   UNL     1      -0.747  11.885  21.872  0.00  0.00    +0.000 A 
ATOM     10  C   UNL     1      -0.758  10.650  22.509  0.00  0.00    +0.000 A 
ATOM     11  F   UNL     1      -1.441  10.493  23.652  0.00  0.00    +0.000 F 
ATOM     12  C   UNL     1      -0.071   9.553  21.986  0.00  0.00    +0.000 A 
BRANCH   9  13
ATOM     13  C   UNL     1      -1.507  13.030  22.478  0.00  0.00    +0.000 C 
ATOM     14  F   UNL     1      -1.032  13.398  23.703  0.00  0.00    +0.000 F 
ATOM     15  F   UNL     1      -1.462  14.159  21.717  0.00  0.00    +0.000 F 
ATOM     16  F   UNL     1      -2.827  12.752  22.670  0.00  0.00    +0.000 F 
ENDBRANCH   9  13
ENDBRANCH   3   6
BRANCH   1  18
ATOM     17  N   UNL     1       4.406   5.981  18.191  0.00  0.00    +0.000 NA
ATOM     18  C   UNL     1       3.184   6.383  18.012  0.00  0.00    +0.000 C 
BRANCH  17  22
ATOM     19  C   UNL     1       6.245   4.136  14.806  0.00  0.00    +0.000 A 
ATOM     20  C   UNL     1       4.944   3.841  15.215  0.00  0.00    +0.000 A 
ATOM     21  C   UNL     1       4.397   4.435  16.363  0.00  0.00    +0.000 A 
ATOM     22  C   UNL     1       5.115   5.355  17.135  0.00  0.00    +0.000 A 
ATOM     23  C   UNL     1       6.420   5.658  16.711  0.00  0.00    +0.000 A 
ATOM     24  C   UNL     1       6.995   5.019  15.584  0.00  0.00    +0.000 A 
BRANCH  19  28
ATOM     25  C   UNL     1       7.094   2.692  11.413  0.00  0.00    +0.000 C 
ATOM     26  C   UNL     1       6.189   3.322  12.446  0.00  0.00    +0.000 C 
ATOM     27  O   UNL     1       5.009   3.536  12.189  0.00  0.00    +0.000 OA
ATOM     28  N   UNL     1       6.838   3.600  13.639  0.00  0.00    +0.000 N 
ATOM     29  H   UNL     1       7.847   3.518  13.638  0.00  0.00    +0.000 HD
ENDBRANCH  19  28
BRANCH  23  30
ATOM     30  C   UNL     1       7.255   6.691  17.361  0.00  0.00    +0.000 C 
ATOM     31  O   UNL     1       7.490   7.771  16.842  0.00  0.00    +0.000 OA
BRANCH  30  32
ATOM     32  O   UNL     1       7.663   6.353  18.601  0.00  0.00    +0.000 OA
ATOM     33  H   UNL     1       8.263   7.013  19.014  0.00  0.00    +0.000 HD
ENDBRANCH  30  32
ENDBRANCH  23  30
ENDBRANCH  17  22
ENDBRANCH   1  18
BRANCH   5  34
ATOM     34  O   UNL     1       2.417   5.371  20.915  0.00  0.00    +0.000 OA
ATOM     35  H   UNL     1       2.556   5.621  21.846  0.00  0.00    +0.000 HD
ENDBRANCH   5  34
TORSDOF 8
ENDMDL
MODEL 5
REMARK VINA RESULT:      -8.2      2.350      3.412
REMARK  Name = 
REMARK  9 active torsions:
REMARK  status: ('A' for Active; 'I' for Inactive)
REMARK    1  A    between atoms: C_1  and  C_2
REMARK    2  A    between atoms: N_4  and  C_5
REMARK    3  A    between atoms: C_8  and  N_9
REMARK    4  A    between atoms: C_10  and  C_11
REMARK    5  A    between atoms: C_13  and  C_14
REMARK    6  A    between atoms: C_17  and  C_18
REMARK    7  A    between atoms: C_26  and  O_27
REMARK    8  A    between atoms: C_28  and  C_29
REMARK    9  A    between atoms: C_29  and  O_31
REMARK                            x       y       z     vdW  Elec       q    Type
REMARK                         _______ _______ _______ _____ _____    ______ ____
ROOT
ATOM      1  C   UNL     1       0.648   9.714  20.639  0.00  0.00    +0.000 A 
ATOM      2  N   UNL     1      -0.454  10.539  20.441  0.00  0.00    +0.000 NA
ATOM      3  C   UNL     1      -0.717  11.029  21.643  0.00  0.00    +0.000 A 
ATOM      4  O   UNL     1       0.150  10.601  22.618  0.00  0.00    +0.000 OA
ATOM      5  C   UNL     1       0.998   9.773  21.965  0.00  0.00    +0.000 A 
ENDROOT
BRANCH   3   6
ATOM      6  C   UNL     1      -1.781  11.940  22.090  0.00  0.00    +0.000 A 
ATOM      7  C   UNL     1      -2.202  13.006  21.279  0.00  0.00    +0.000 A 
ATOM      8  C   UNL     1      -3.215  13.882  21.702  0.00  0.00    +0.000 A 
ATOM      9  C   UNL     1      -3.834  13.710  22.949  0.00  0.00    +0.000 A 
ATOM     10  C   UNL     1      -3.416  12.654  23.749  0.00  0.00    +0.000 A 
ATOM     11  F   UNL     1      -3.983  12.459  24.948  0.00  0.00    +0.000 F 
ATOM     12  C   UNL     1      -2.410  11.779  23.336  0.00  0.00    +0.000 A 
BRANCH   9  13
ATOM     13  C   UNL     1      -4.923  14.619  23.442  0.00  0.00    +0.000 C 
ATOM     14  F   UNL     1      -5.281  15.568  22.529  0.00  0.00    +0.000 F 
ATOM     15  F   UNL     1      -6.072  13.955  23.746  0.00  0.00    +0.000 F 
ATOM     16  F   UNL     1      -4.573  15.309  24.564  0.00  0.00    +0.000 F 
ENDBRANCH   9  13
ENDBRANCH   3   6
BRANCH   1  18
ATOM     17  N   UNL     1       1.830   7.756  19.949  0.00  0.00    +0.000 NA
ATOM     18  C   UNL     1       1.327   8.912  19.635  0.00  0.00    +0.000 C 
BRANCH  17  22
ATOM     19  C   UNL     1       4.219   5.700  17.068  0.00  0.00    +0.000 A 
ATOM     20  C   UNL     1       4.068   7.087  17.074  0.00  0.00    +0.000 A 
ATOM     21  C   UNL     1       3.233   7.717  18.010  0.00  0.00    +0.000 A 
ATOM     22  C   UNL     1       2.533   6.994  18.983  0.00  0.00    +0.000 A 
ATOM     23  C   UNL     1       2.700   5.598  18.980  0.00  0.00    +0.000 A 
ATOM     24  C   UNL     1       3.499   4.955  18.002  0.00  0.00    +0.000 A 
BRANCH  19  28
ATOM     25  C   UNL     1       6.996   4.457  14.817  0.00  0.00    +0.000 C 
ATOM     26  C   UNL     1       6.376   5.363  15.855  0.00  0.00    +0.000 C 
ATOM     27  O   UNL     1       7.016   6.299  16.323  0.00  0.00    +0.000 OA
ATOM     28  N   UNL     1       5.074   5.011  16.177  0.00  0.00    +0.000 N 
ATOM     29  H   UNL     1       4.745   4.118  15.828  0.00  0.00    +0.000 HD
ENDBRANCH  19  28
BRANCH  23  30
ATOM     30  C   UNL     1       2.113   4.719  20.014  0.00  0.00    +0.000 C 
ATOM     31  O   UNL     1       1.438   3.739  19.741  0.00  0.00    +0.000 OA
BRANCH  30  32
ATOM     32  O   UNL     1       2.458   5.062  21.272  0.00  0.00    +0.000 OA
ATOM     33  H   UNL     1       2.840   5.964  21.345  0.00  0.00    +0.000 HD
ENDBRANCH  30  32
ENDBRANCH  23  30
ENDBRANCH  17  22
ENDBRANCH   1  18
BRANCH   5  34
ATOM     34  O   UNL     1       1.945   9.249  22.725  0.00  0.00    +0.000 OA
ATOM     35  H   UNL     1       1.934   8.302  22.499  0.00  0.00    +0.000 HD
ENDBRANCH   5  34
TORSDOF 8
ENDMDL
MODEL 6
REMARK VINA RESULT:      -8.0      2.286      3.568
REMARK  Name = 
REMARK  9 active torsions:
REMARK  status: ('A' for Active; 'I' for Inactive)
REMARK    1  A    between atoms: C_1  and  C_2
REMARK    2  A    between atoms: N_4  and  C_5
REMARK    3  A    between atoms: C_8  and  N_9
REMARK    4  A    between atoms: C_10  and  C_11
REMARK    5  A    between atoms: C_13  and  C_14
REMARK    6  A    between atoms: C_17  and  C_18
REMARK    7  A    between atoms: C_26  and  O_27
REMARK    8  A    between atoms: C_28  and  C_29
REMARK    9  A    between atoms: C_29  and  O_31
REMARK                            x       y       z     vdW  Elec       q    Type
REMARK                         _______ _______ _______ _____ _____    ______ ____
ROOT
ATOM      1  C   UNL     1       0.595   9.620  20.853  0.00  0.00    +0.000 A 
ATOM      2  N   UNL     1      -0.516  10.428  20.635  0.00  0.00    +0.000 NA
ATOM      3  C   UNL     1      -0.733  11.011  21.805  0.00  0.00    +0.000 A 
ATOM      4  O   UNL     1       0.173  10.659  22.776  0.00  0.00    +0.000 OA
ATOM      5  C   UNL     1       0.996   9.781  22.156  0.00  0.00    +0.000 A 
ENDROOT
BRANCH   3   6
ATOM      6  C   UNL     1      -1.780  11.955  22.221  0.00  0.00    +0.000 A 
ATOM      7  C   UNL     1      -2.127  13.047  21.410  0.00  0.00    +0.000 A 
ATOM      8  C   UNL     1      -3.124  13.954  21.804  0.00  0.00    +0.000 A 
ATOM      9  C   UNL     1      -3.800  13.789  23.021  0.00  0.00    +0.000 A 
ATOM     10  C   UNL     1      -3.456  12.707  23.822  0.00  0.00    +0.000 A 
ATOM     11  F   UNL     1      -4.079  12.517  24.993  0.00  0.00    +0.000 F 
ATOM     12  C   UNL     1      -2.467  11.800  23.437  0.00  0.00    +0.000 A 
BRANCH   9  13
ATOM     13  C   UNL     1      -4.875  14.732  23.483  0.00  0.00    +0.000 C 
ATOM     14  F   UNL     1      -6.055  14.104  23.757  0.00  0.00    +0.000 F 
ATOM     15  F   UNL     1      -4.543  15.396  24.624  0.00  0.00    +0.000 F 
ATOM     16  F   UNL     1      -5.178  15.687  22.559  0.00  0.00    +0.000 F 
ENDBRANCH   9  13
ENDBRANCH   3   6
BRANCH   1  18
ATOM     17  N   UNL     1       1.684   7.580  20.257  0.00  0.00    +0.000 NA
ATOM     18  C   UNL     1       1.236   8.742  19.889  0.00  0.00    +0.000 C 
BRANCH  17  22
ATOM     19  C   UNL     1       3.974   5.285  17.477  0.00  0.00    +0.000 A 
ATOM     20  C   UNL     1       3.884   6.675  17.416  0.00  0.00    +0.000 A 
ATOM     21  C   UNL     1       3.079   7.386  18.321  0.00  0.00    +0.000 A 
ATOM     22  C   UNL     1       2.350   6.742  19.328  0.00  0.00    +0.000 A 
ATOM     23  C   UNL     1       2.456   5.342  19.392  0.00  0.00    +0.000 A 
ATOM     24  C   UNL     1       3.224   4.618  18.446  0.00  0.00    +0.000 A 
BRANCH  19  28
ATOM     25  C   UNL     1       6.218   3.895  14.765  0.00  0.00    +0.000 C 
ATOM     26  C   UNL     1       5.483   4.985  15.510  0.00  0.00    +0.000 C 
ATOM     27  O   UNL     1       5.531   6.145  15.117  0.00  0.00    +0.000 OA
ATOM     28  N   UNL     1       4.796   4.517  16.620  0.00  0.00    +0.000 N 
ATOM     29  H   UNL     1       4.989   3.565  16.906  0.00  0.00    +0.000 HD
ENDBRANCH  19  28
BRANCH  23  30
ATOM     30  C   UNL     1       1.835   4.540  20.468  0.00  0.00    +0.000 C 
ATOM     31  O   UNL     1       2.372   4.357  21.549  0.00  0.00    +0.000 OA
BRANCH  30  32
ATOM     32  O   UNL     1       0.597   4.097  20.164  0.00  0.00    +0.000 OA
ATOM     33  H   UNL     1       0.235   3.456  20.815  0.00  0.00    +0.000 HD
ENDBRANCH  30  32
ENDBRANCH  23  30
ENDBRANCH  17  22
ENDBRANCH   1  18
BRANCH   5  34
ATOM     34  O   UNL     1       1.973   9.317  22.916  0.00  0.00    +0.000 OA
ATOM     35  H   UNL     1       1.993   8.364  22.721  0.00  0.00    +0.000 HD
ENDBRANCH   5  34
TORSDOF 8
ENDMDL
MODEL 7
REMARK VINA RESULT:      -7.7      5.736     11.205
REMARK  Name = 
REMARK  9 active torsions:
REMARK  status: ('A' for Active; 'I' for Inactive)
REMARK    1  A    between atoms: C_1  and  C_2
REMARK    2  A    between atoms: N_4  and  C_5
REMARK    3  A    between atoms: C_8  and  N_9
REMARK    4  A    between atoms: C_10  and  C_11
REMARK    5  A    between atoms: C_13  and  C_14
REMARK    6  A    between atoms: C_17  and  C_18
REMARK    7  A    between atoms: C_26  and  O_27
REMARK    8  A    between atoms: C_28  and  C_29
REMARK    9  A    between atoms: C_29  and  O_31
REMARK                            x       y       z     vdW  Elec       q    Type
REMARK                         _______ _______ _______ _____ _____    ______ ____
ROOT
ATOM      1  C   UNL     1       2.176   7.171  19.950  0.00  0.00    +0.000 A 
ATOM      2  N   UNL     1       2.739   7.350  18.691  0.00  0.00    +0.000 NA
ATOM      3  C   UNL     1       3.354   6.205  18.440  0.00  0.00    +0.000 A 
ATOM      4  O   UNL     1       3.218   5.271  19.439  0.00  0.00    +0.000 OA
ATOM      5  C   UNL     1       2.476   5.902  20.379  0.00  0.00    +0.000 A 
ENDROOT
BRANCH   3   6
ATOM      6  C   UNL     1       4.154   5.786  17.280  0.00  0.00    +0.000 A 
ATOM      7  C   UNL     1       4.627   6.729  16.354  0.00  0.00    +0.000 A 
ATOM      8  C   UNL     1       5.388   6.335  15.242  0.00  0.00    +0.000 A 
ATOM      9  C   UNL     1       5.698   4.984  15.031  0.00  0.00    +0.000 A 
ATOM     10  C   UNL     1       5.230   4.052  15.949  0.00  0.00    +0.000 A 
ATOM     11  F   UNL     1       5.505   2.751  15.779  0.00  0.00    +0.000 F 
ATOM     12  C   UNL     1       4.473   4.436  17.057  0.00  0.00    +0.000 A 
BRANCH   9  13
ATOM     13  C   UNL     1       6.512   4.516  13.858  0.00  0.00    +0.000 C 
ATOM     14  F   UNL     1       5.746   4.137  12.794  0.00  0.00    +0.000 F 
ATOM     15  F   UNL     1       7.352   5.474  13.378  0.00  0.00    +0.000 F 
ATOM     16  F   UNL     1       7.290   3.436  14.148  0.00  0.00    +0.000 F 
ENDBRANCH   9  13
ENDBRANCH   3   6
BRANCH   1  18
ATOM     17  N   UNL     1       0.634   8.989  20.093  0.00  0.00    +0.000 NA
ATOM     18  C   UNL     1       1.405   8.143  20.707  0.00  0.00    +0.000 C 
BRANCH  17  22
ATOM     19  C   UNL     1      -1.303  11.867  22.583  0.00  0.00    +0.000 A 
ATOM     20  C   UNL     1      -0.947  10.596  23.033  0.00  0.00    +0.000 A 
ATOM     21  C   UNL     1      -0.356   9.664  22.165  0.00  0.00    +0.000 A 
ATOM     22  C   UNL     1      -0.083   9.967  20.827  0.00  0.00    +0.000 A 
ATOM     23  C   UNL     1      -0.432  11.254  20.383  0.00  0.00    +0.000 A 
ATOM     24  C   UNL     1      -1.078  12.178  21.242  0.00  0.00    +0.000 A 
BRANCH  19  28
ATOM     25  C   UNL     1      -3.492  14.198  24.609  0.00  0.00    +0.000 C 
ATOM     26  C   UNL     1      -3.205  12.986  23.754  0.00  0.00    +0.000 C 
ATOM     27  O   UNL     1      -4.113  12.229  23.425  0.00  0.00    +0.000 OA
ATOM     28  N   UNL     1      -1.866  12.862  23.417  0.00  0.00    +0.000 N 
ATOM     29  H   UNL     1      -1.217  13.471  23.900  0.00  0.00    +0.000 HD
ENDBRANCH  19  28
BRANCH  23  30
ATOM     30  C   UNL     1      -0.103  11.753  19.031  0.00  0.00    +0.000 C 
ATOM     31  O   UNL     1       0.304  12.885  18.826  0.00  0.00    +0.000 OA
BRANCH  30  32
ATOM     32  O   UNL     1      -0.227  10.817  18.066  0.00  0.00    +0.000 OA
ATOM     33  H   UNL     1       0.510  10.819  17.417  0.00  0.00    +0.000 HD
ENDBRANCH  30  32
ENDBRANCH  23  30
ENDBRANCH  17  22
ENDBRANCH   1  18
BRANCH   5  34
ATOM     34  O   UNL     1       2.205   5.167  21.444  0.00  0.00    +0.000 OA
ATOM     35  H   UNL     1       2.469   5.729  22.194  0.00  0.00    +0.000 HD
ENDBRANCH   5  34
TORSDOF 8
ENDMDL
MODEL 8
REMARK VINA RESULT:      -7.7      2.228      3.634
REMARK  Name = 
REMARK  9 active torsions:
REMARK  status: ('A' for Active; 'I' for Inactive)
REMARK    1  A    between atoms: C_1  and  C_2
REMARK    2  A    between atoms: N_4  and  C_5
REMARK    3  A    between atoms: C_8  and  N_9
REMARK    4  A    between atoms: C_10  and  C_11
REMARK    5  A    between atoms: C_13  and  C_14
REMARK    6  A    between atoms: C_17  and  C_18
REMARK    7  A    between atoms: C_26  and  O_27
REMARK    8  A    between atoms: C_28  and  C_29
REMARK    9  A    between atoms: C_29  and  O_31
REMARK                            x       y       z     vdW  Elec       q    Type
REMARK                         _______ _______ _______ _____ _____    ______ ____
ROOT
ATOM      1  C   UNL     1       0.722   9.766  21.008  0.00  0.00    +0.000 A 
ATOM      2  N   UNL     1      -0.259  10.741  20.856  0.00  0.00    +0.000 NA
ATOM      3  C   UNL     1      -0.457  11.202  22.082  0.00  0.00    +0.000 A 
ATOM      4  O   UNL     1       0.343  10.613  23.031  0.00  0.00    +0.000 OA
ATOM      5  C   UNL     1       1.073   9.712  22.334  0.00  0.00    +0.000 A 
ENDROOT
BRANCH   3   6
ATOM      6  C   UNL     1      -1.390  12.223  22.578  0.00  0.00    +0.000 A 
ATOM      7  C   UNL     1      -2.697  11.879  22.956  0.00  0.00    +0.000 A 
ATOM      8  C   UNL     1      -3.596  12.851  23.427  0.00  0.00    +0.000 A 
ATOM      9  C   UNL     1      -3.205  14.193  23.534  0.00  0.00    +0.000 A 
ATOM     10  C   UNL     1      -1.910  14.531  23.160  0.00  0.00    +0.000 A 
ATOM     11  F   UNL     1      -1.501  15.805  23.246  0.00  0.00    +0.000 F 
ATOM     12  C   UNL     1      -1.012  13.572  22.691  0.00  0.00    +0.000 A 
BRANCH   9  13
ATOM     13  C   UNL     1      -4.129  15.266  24.035  0.00  0.00    +0.000 C 
ATOM     14  F   UNL     1      -3.755  15.770  25.247  0.00  0.00    +0.000 F 
ATOM     15  F   UNL     1      -4.197  16.340  23.201  0.00  0.00    +0.000 F 
ATOM     16  F   UNL     1      -5.409  14.831  24.201  0.00  0.00    +0.000 F 
ENDBRANCH   9  13
ENDBRANCH   3   6
BRANCH   1  18
ATOM     17  N   UNL     1       1.830   7.789  20.258  0.00  0.00    +0.000 NA
ATOM     18  C   UNL     1       1.290   8.932  19.963  0.00  0.00    +0.000 C 
BRANCH  17  22
ATOM     19  C   UNL     1       3.915   5.614  17.231  0.00  0.00    +0.000 A 
ATOM     20  C   UNL     1       3.876   7.008  17.269  0.00  0.00    +0.000 A 
ATOM     21  C   UNL     1       3.136   7.681  18.255  0.00  0.00    +0.000 A 
ATOM     22  C   UNL     1       2.426   6.995  19.246  0.00  0.00    +0.000 A 
ATOM     23  C   UNL     1       2.481   5.591  19.210  0.00  0.00    +0.000 A 
ATOM     24  C   UNL     1       3.181   4.908  18.184  0.00  0.00    +0.000 A 
BRANCH  19  28
ATOM     25  C   UNL     1       6.440   4.253  14.761  0.00  0.00    +0.000 C 
ATOM     26  C   UNL     1       5.933   5.210  15.815  0.00  0.00    +0.000 C 
ATOM     27  O   UNL     1       6.619   6.162  16.170  0.00  0.00    +0.000 OA
ATOM     28  N   UNL     1       4.672   4.880  16.288  0.00  0.00    +0.000 N 
ATOM     29  H   UNL     1       4.307   3.974  16.018  0.00  0.00    +0.000 HD
ENDBRANCH  19  28
BRANCH  23  30
ATOM     30  C   UNL     1       1.874   4.738  20.254  0.00  0.00    +0.000 C 
ATOM     31  O   UNL     1       0.999   3.922  20.013  0.00  0.00    +0.000 OA
BRANCH  30  32
ATOM     32  O   UNL     1       2.432   4.898  21.472  0.00  0.00    +0.000 OA
ATOM     33  H   UNL     1       2.177   4.203  22.118  0.00  0.00    +0.000 HD
ENDBRANCH  30  32
ENDBRANCH  23  30
ENDBRANCH  17  22
ENDBRANCH   1  18
BRANCH   5  34
ATOM     34  O   UNL     1       1.939   9.029  23.063  0.00  0.00    +0.000 OA
ATOM     35  H   UNL     1       2.737   9.586  23.068  0.00  0.00    +0.000 HD
ENDBRANCH   5  34
TORSDOF 8
ENDMDL
MODEL 9
REMARK VINA RESULT:      -7.7      2.475      3.690
REMARK  Name = 
REMARK  9 active torsions:
REMARK  status: ('A' for Active; 'I' for Inactive)
REMARK    1  A    between atoms: C_1  and  C_2
REMARK    2  A    between atoms: N_4  and  C_5
REMARK    3  A    between atoms: C_8  and  N_9
REMARK    4  A    between atoms: C_10  and  C_11
REMARK    5  A    between atoms: C_13  and  C_14
REMARK    6  A    between atoms: C_17  and  C_18
REMARK    7  A    between atoms: C_26  and  O_27
REMARK    8  A    between atoms: C_28  and  C_29
REMARK    9  A    between atoms: C_29  and  O_31
REMARK                            x       y       z     vdW  Elec       q    Type
REMARK                         _______ _______ _______ _____ _____    ______ ____
ROOT
ATOM      1  C   UNL     1       0.501   9.819  20.837  0.00  0.00    +0.000 A 
ATOM      2  N   UNL     1      -0.554  10.706  20.651  0.00  0.00    +0.000 NA
ATOM      3  C   UNL     1      -0.753  11.235  21.849  0.00  0.00    +0.000 A 
ATOM      4  O   UNL     1       0.113  10.773  22.810  0.00  0.00    +0.000 OA
ATOM      5  C   UNL     1       0.891   9.882  22.152  0.00  0.00    +0.000 A 
ENDROOT
BRANCH   3   6
ATOM      6  C   UNL     1      -1.747  12.217  22.306  0.00  0.00    +0.000 A 
ATOM      7  C   UNL     1      -1.508  13.006  23.442  0.00  0.00    +0.000 A 
ATOM      8  C   UNL     1      -2.455  13.943  23.886  0.00  0.00    +0.000 A 
ATOM      9  C   UNL     1      -3.666  14.115  23.200  0.00  0.00    +0.000 A 
ATOM     10  C   UNL     1      -3.900  13.333  22.075  0.00  0.00    +0.000 A 
ATOM     11  F   UNL     1      -5.047  13.468  21.395  0.00  0.00    +0.000 F 
ATOM     12  C   UNL     1      -2.964  12.400  21.628  0.00  0.00    +0.000 A 
BRANCH   9  13
ATOM     13  C   UNL     1      -4.707  15.107  23.635  0.00  0.00    +0.000 C 
ATOM     14  F   UNL     1      -5.019  16.014  22.665  0.00  0.00    +0.000 F 
ATOM     15  F   UNL     1      -5.888  14.521  23.978  0.00  0.00    +0.000 F 
ATOM     16  F   UNL     1      -4.321  15.845  24.713  0.00  0.00    +0.000 F 
ENDBRANCH   9  13
ENDBRANCH   3   6
BRANCH   1  18
ATOM     17  N   UNL     1       1.776   7.906  20.189  0.00  0.00    +0.000 NA
ATOM     18  C   UNL     1       1.103   8.958  19.833  0.00  0.00    +0.000 C 
BRANCH  17  22
ATOM     19  C   UNL     1       3.949   5.673  17.268  0.00  0.00    +0.000 A 
ATOM     20  C   UNL     1       3.895   7.066  17.268  0.00  0.00    +0.000 A 
ATOM     21  C   UNL     1       3.127   7.758  18.218  0.00  0.00    +0.000 A 
ATOM     22  C   UNL     1       2.401   7.092  19.212  0.00  0.00    +0.000 A 
ATOM     23  C   UNL     1       2.471   5.688  19.215  0.00  0.00    +0.000 A 
ATOM     24  C   UNL     1       3.201   4.985  18.224  0.00  0.00    +0.000 A 
BRANCH  19  28
ATOM     25  C   UNL     1       6.649   4.046  15.174  0.00  0.00    +0.000 C 
ATOM     26  C   UNL     1       6.119   4.901  16.300  0.00  0.00    +0.000 C 
ATOM     27  O   UNL     1       6.891   5.493  17.047  0.00  0.00    +0.000 OA
ATOM     28  N   UNL     1       4.733   4.921  16.363  0.00  0.00    +0.000 N 
ATOM     29  H   UNL     1       4.242   4.251  15.782  0.00  0.00    +0.000 HD
ENDBRANCH  19  28
BRANCH  23  30
ATOM     30  C   UNL     1       1.850   4.857  20.269  0.00  0.00    +0.000 C 
ATOM     31  O   UNL     1       0.914   4.104  20.049  0.00  0.00    +0.000 OA
BRANCH  30  32
ATOM     32  O   UNL     1       2.462   4.958  21.467  0.00  0.00    +0.000 OA
ATOM     33  H   UNL     1       1.867   5.254  22.191  0.00  0.00    +0.000 HD
ENDBRANCH  30  32
ENDBRANCH  23  30
ENDBRANCH  17  22
ENDBRANCH   1  18
BRANCH   5  34
ATOM     34  O   UNL     1       1.825   9.316  22.897  0.00  0.00    +0.000 OA
ATOM     35  H   UNL     1       1.326   8.858  23.596  0.00  0.00    +0.000 HD
ENDBRANCH   5  34
TORSDOF 8
ENDMDL
