MODEL 1
REMARK VINA RESULT:      -8.3      0.000      0.000
REMARK  Name = 
REMARK  10 active torsions:
REMARK  status: ('A' for Active; 'I' for Inactive)
REMARK    1  A    between atoms: C_1  and  O_2
REMARK    2  A    between atoms: O_2  and  C_3
REMARK    3  A    between atoms: C_5  and  C_6
REMARK    4  A    between atoms: C_9  and  N_10
REMARK    5  A    between atoms: N_10  and  C_11
REMARK    6  A    between atoms: C_14  and  C_15
REMARK    7  A    between atoms: C_14  and  N_16
REMARK    8  A    between atoms: C_17  and  C_18
REMARK    9  A    between atoms: C_17  and  C_19
REMARK   10  A    between atoms: C_20  and  C_21
REMARK                            x       y       z     vdW  Elec       q    Type
REMARK                         _______ _______ _______ _____ _____    ______ ____
ROOT
ATOM      1  C   UNL     1       1.797   7.650  20.060  0.00  0.00    +0.000 A 
ATOM      2  C   UNL     1       2.924   7.077  19.400  0.00  0.00    +0.000 A 
ATOM      3  C   UNL     1       3.001   5.724  19.741  0.00  0.00    +0.000 A 
ATOM      4  C   UNL     1       3.870   4.611  19.386  0.00  0.00    +0.000 A 
ATOM      5  C   UNL     1       3.501   3.394  19.881  0.00  0.00    +0.000 A 
ATOM      6  C   UNL     1       2.334   3.353  20.813  0.00  0.00    +0.000 A 
ATOM      7  N   UNL     1       1.576   4.332  21.170  0.00  0.00    +0.000 NA
ATOM      8  N   UNL     1       1.937   5.488  20.594  0.00  0.00    +0.000 N 
ATOM      9  C   UNL     1       1.218   6.629  20.778  0.00  0.00    +0.000 A 
ENDROOT
BRANCH   1  12
ATOM     10  C   UNL     1       0.333  10.931  21.115  0.00  0.00    +0.000 A 
ATOM     11  C   UNL     1       0.816   9.630  21.209  0.00  0.00    +0.000 A 
ATOM     12  C   UNL     1       1.196   8.986  20.037  0.00  0.00    +0.000 A 
ATOM     13  C   UNL     1       1.049   9.670  18.823  0.00  0.00    +0.000 A 
ATOM     14  C   UNL     1       0.563  10.968  18.835  0.00  0.00    +0.000 A 
ATOM     15  N   UNL     1       0.202  11.615  19.958  0.00  0.00    +0.000 NA
BRANCH  10  17
ATOM     16  C   UNL     1      -1.046  10.836  23.002  0.00  0.00    +0.000 C 
ATOM     17  O   UNL     1      -0.022  11.545  22.304  0.00  0.00    +0.000 OA
ENDBRANCH  10  17
ENDBRANCH   1  12
BRANCH   5  18
ATOM     18  C   UNL     1       4.061   2.050  19.564  0.00  0.00    +0.000 C 
ATOM     19  N   UNL     1       5.185   1.679  20.209  0.00  0.00    +0.000 N 
ATOM     20  O   UNL     1       3.585   1.329  18.693  0.00  0.00    +0.000 OA
ATOM     21  H   UNL     1       5.636   2.326  20.844  0.00  0.00    +0.000 HD
ATOM     22  H   UNL     1       5.615   0.798  19.965  0.00  0.00    +0.000 HD
ENDBRANCH   5  18
BRANCH   4  23
ATOM     23  N   UNL     1       4.908   4.849  18.444  0.00  0.00    +0.000 N 
ATOM     24  H   UNL     1       5.731   4.322  18.744  0.00  0.00    +0.000 HD
BRANCH  23  25
ATOM     25  C   UNL     1       4.802   4.754  16.956  0.00  0.00    +0.000 C 
ATOM     26  C   UNL     1       5.264   3.373  16.463  0.00  0.00    +0.000 C 
ATOM     27  C   UNL     1       6.389   3.563  15.449  0.00  0.00    +0.000 C 
ATOM     28  C   UNL     1       6.365   5.028  15.005  0.00  0.00    +0.000 C 
ATOM     29  C   UNL     1       5.598   5.144  13.668  0.00  0.00    +0.000 C 
ATOM     30  C   UNL     1       5.718   5.816  16.212  0.00  0.00    +0.000 C 
ATOM     31  C   UNL     1       4.882   7.013  15.704  0.00  0.00    +0.000 C 
ATOM     32  C   UNL     1       6.787   6.422  17.158  0.00  0.00    +0.000 C 
BRANCH  28  33
ATOM     33  N   UNL     1       7.729   5.451  14.654  0.00  0.00    +0.000 NA
ATOM     34  H   UNL     1       8.240   5.774  15.473  0.00  0.00    +0.000 HD
ATOM     35  H   UNL     1       7.714   6.226  13.993  0.00  0.00    +0.000 HD
ENDBRANCH  28  33
ENDBRANCH  23  25
ENDBRANCH   4  23
TORSDOF 6
ENDMDL
MODEL 2
REMARK VINA RESULT:      -7.8      0.953      1.513
REMARK  Name = 
REMARK  10 active torsions:
REMARK  status: ('A' for Active; 'I' for Inactive)
REMARK    1  A    between atoms: C_1  and  O_2
REMARK    2  A    between atoms: O_2  and  C_3
REMARK    3  A    between atoms: C_5  and  C_6
REMARK    4  A    between atoms: C_9  and  N_10
REMARK    5  A    between atoms: N_10  and  C_11
REMARK    6  A    between atoms: C_14  and  C_15
REMARK    7  A    between atoms: C_14  and  N_16
REMARK    8  A    between atoms: C_17  and  C_18
REMARK    9  A    between atoms: C_17  and  C_19
REMARK   10  A    between atoms: C_20  and  C_21
REMARK                            x       y       z     vdW  Elec       q    Type
REMARK                         _______ _______ _______ _____ _____    ______ ____
ROOT
ATOM      1  C   UNL     1       1.817   7.282  20.322  0.00  0.00    +0.000 A 
ATOM      2  C   UNL     1       2.942   6.768  19.612  0.00  0.00    +0.000 A 
ATOM      3  C   UNL     1       3.034   5.395  19.854  0.00  0.00    +0.000 A 
ATOM      4  C   UNL     1       3.908   4.318  19.412  0.00  0.00    +0.000 A 
ATOM      5  C   UNL     1       3.554   3.066  19.822  0.00  0.00    +0.000 A 
ATOM      6  C   UNL     1       2.397   2.948  20.760  0.00  0.00    +0.000 A 
ATOM      7  N   UNL     1       1.635   3.892  21.193  0.00  0.00    +0.000 NA
ATOM      8  N   UNL     1       1.980   5.089  20.698  0.00  0.00    +0.000 N 
ATOM      9  C   UNL     1       1.254   6.207  20.970  0.00  0.00    +0.000 A 
ENDROOT
BRANCH   1  12
ATOM     10  C   UNL     1       0.187  10.527  19.410  0.00  0.00    +0.000 A 
ATOM     11  C   UNL     1       0.842   9.310  19.254  0.00  0.00    +0.000 A 
ATOM     12  C   UNL     1       1.205   8.611  20.400  0.00  0.00    +0.000 A 
ATOM     13  C   UNL     1       0.916   9.180  21.648  0.00  0.00    +0.000 A 
ATOM     14  C   UNL     1       0.254  10.396  21.697  0.00  0.00    +0.000 A 
ATOM     15  N   UNL     1      -0.119  11.084  20.601  0.00  0.00    +0.000 NA
BRANCH  10  17
ATOM     16  C   UNL     1      -1.584  11.225  18.050  0.00  0.00    +0.000 C 
ATOM     17  O   UNL     1      -0.171  11.188  18.247  0.00  0.00    +0.000 OA
ENDBRANCH  10  17
ENDBRANCH   1  12
BRANCH   5  18
ATOM     18  C   UNL     1       4.122   1.752  19.404  0.00  0.00    +0.000 C 
ATOM     19  N   UNL     1       5.207   1.307  20.068  0.00  0.00    +0.000 N 
ATOM     20  O   UNL     1       3.689   1.126  18.442  0.00  0.00    +0.000 OA
ATOM     21  H   UNL     1       5.627   1.883  20.787  0.00  0.00    +0.000 HD
ATOM     22  H   UNL     1       5.644   0.449  19.762  0.00  0.00    +0.000 HD
ENDBRANCH   5  18
BRANCH   4  23
ATOM     23  N   UNL     1       4.935   4.632  18.480  0.00  0.00    +0.000 N 
ATOM     24  H   UNL     1       5.750   4.057  18.704  0.00  0.00    +0.000 HD
BRANCH  23  25
ATOM     25  C   UNL     1       4.799   4.701  16.993  0.00  0.00    +0.000 C 
ATOM     26  C   UNL     1       5.210   3.369  16.345  0.00  0.00    +0.000 C 
ATOM     27  C   UNL     1       6.323   3.635  15.334  0.00  0.00    +0.000 C 
ATOM     28  C   UNL     1       6.336   5.139  15.050  0.00  0.00    +0.000 C 
ATOM     29  C   UNL     1       5.548   5.421  13.750  0.00  0.00    +0.000 C 
ATOM     30  C   UNL     1       5.734   5.811  16.347  0.00  0.00    +0.000 C 
ATOM     31  C   UNL     1       4.925   7.078  15.989  0.00  0.00    +0.000 C 
ATOM     32  C   UNL     1       6.837   6.281  17.331  0.00  0.00    +0.000 C 
BRANCH  28  33
ATOM     33  N   UNL     1       7.704   5.559  14.718  0.00  0.00    +0.000 NA
ATOM     34  H   UNL     1       8.003   6.343  15.294  0.00  0.00    +0.000 HD
ATOM     35  H   UNL     1       7.769   5.866  13.748  0.00  0.00    +0.000 HD
ENDBRANCH  28  33
ENDBRANCH  23  25
ENDBRANCH   4  23
TORSDOF 6
ENDMDL
MODEL 3
REMARK VINA RESULT:      -7.7      0.951      1.383
REMARK  Name = 
REMARK  10 active torsions:
REMARK  status: ('A' for Active; 'I' for Inactive)
REMARK    1  A    between atoms: C_1  and  O_2
REMARK    2  A    between atoms: O_2  and  C_3
REMARK    3  A    between atoms: C_5  and  C_6
REMARK    4  A    between atoms: C_9  and  N_10
REMARK    5  A    between atoms: N_10  and  C_11
REMARK    6  A    between atoms: C_14  and  C_15
REMARK    7  A    between atoms: C_14  and  N_16
REMARK    8  A    between atoms: C_17  and  C_18
REMARK    9  A    between atoms: C_17  and  C_19
REMARK   10  A    between atoms: C_20  and  C_21
REMARK                            x       y       z     vdW  Elec       q    Type
REMARK                         _______ _______ _______ _____ _____    ______ ____
ROOT
ATOM      1  C   UNL     1       1.637   7.340  20.569  0.00  0.00    +0.000 A 
ATOM      2  C   UNL     1       2.915   6.874  20.142  0.00  0.00    +0.000 A 
ATOM      3  C   UNL     1       2.922   5.478  20.195  0.00  0.00    +0.000 A 
ATOM      4  C   UNL     1       3.878   4.430  19.866  0.00  0.00    +0.000 A 
ATOM      5  C   UNL     1       3.410   3.152  19.970  0.00  0.00    +0.000 A 
ATOM      6  C   UNL     1       2.030   2.963  20.510  0.00  0.00    +0.000 A 
ATOM      7  N   UNL     1       1.183   3.875  20.843  0.00  0.00    +0.000 NA
ATOM      8  N   UNL     1       1.666   5.110  20.649  0.00  0.00    +0.000 N 
ATOM      9  C   UNL     1       0.901   6.215  20.864  0.00  0.00    +0.000 A 
ENDROOT
BRANCH   1  12
ATOM     10  C   UNL     1       0.095  10.479  21.905  0.00  0.00    +0.000 A 
ATOM     11  C   UNL     1       0.569   9.173  21.875  0.00  0.00    +0.000 A 
ATOM     12  C   UNL     1       1.039   8.675  20.665  0.00  0.00    +0.000 A 
ATOM     13  C   UNL     1       0.985   9.504  19.536  0.00  0.00    +0.000 A 
ATOM     14  C   UNL     1       0.499  10.794  19.671  0.00  0.00    +0.000 A 
ATOM     15  N   UNL     1       0.053  11.302  20.835  0.00  0.00    +0.000 NA
BRANCH  10  17
ATOM     16  C   UNL     1      -1.696  11.424  23.077  0.00  0.00    +0.000 C 
ATOM     17  O   UNL     1      -0.352  10.946  23.130  0.00  0.00    +0.000 OA
ENDBRANCH  10  17
ENDBRANCH   1  12
BRANCH   5  18
ATOM     18  C   UNL     1       4.064   1.883  19.542  0.00  0.00    +0.000 C 
ATOM     19  N   UNL     1       5.156   1.486  20.227  0.00  0.00    +0.000 N 
ATOM     20  O   UNL     1       3.694   1.253  18.557  0.00  0.00    +0.000 OA
ATOM     21  H   UNL     1       5.523   2.071  20.968  0.00  0.00    +0.000 HD
ATOM     22  H   UNL     1       5.650   0.662  19.916  0.00  0.00    +0.000 HD
ENDBRANCH   5  18
BRANCH   4  23
ATOM     23  N   UNL     1       5.133   4.818  19.323  0.00  0.00    +0.000 N 
ATOM     24  H   UNL     1       5.834   4.737  20.062  0.00  0.00    +0.000 HD
BRANCH  23  25
ATOM     25  C   UNL     1       5.737   4.338  18.042  0.00  0.00    +0.000 C 
ATOM     26  C   UNL     1       7.162   4.888  17.871  0.00  0.00    +0.000 C 
ATOM     27  C   UNL     1       7.241   5.652  16.551  0.00  0.00    +0.000 C 
ATOM     28  C   UNL     1       6.021   5.252  15.716  0.00  0.00    +0.000 C 
ATOM     29  C   UNL     1       6.427   4.148  14.713  0.00  0.00    +0.000 C 
ATOM     30  C   UNL     1       4.923   4.820  16.767  0.00  0.00    +0.000 C 
ATOM     31  C   UNL     1       4.041   3.681  16.207  0.00  0.00    +0.000 C 
ATOM     32  C   UNL     1       3.948   5.978  17.107  0.00  0.00    +0.000 C 
BRANCH  28  33
ATOM     33  N   UNL     1       5.636   6.376  14.850  0.00  0.00    +0.000 NA
ATOM     34  H   UNL     1       4.658   6.316  14.575  0.00  0.00    +0.000 HD
ATOM     35  H   UNL     1       6.182   6.379  13.990  0.00  0.00    +0.000 HD
ENDBRANCH  28  33
ENDBRANCH  23  25
ENDBRANCH   4  23
TORSDOF 6
ENDMDL
MODEL 4
REMARK VINA RESULT:      -7.5      1.208      1.537
REMARK  Name = 
REMARK  10 active torsions:
REMARK  status: ('A' for Active; 'I' for Inactive)
REMARK    1  A    between atoms: C_1  and  O_2
REMARK    2  A    between atoms: O_2  and  C_3
REMARK    3  A    between atoms: C_5  and  C_6
REMARK    4  A    between atoms: C_9  and  N_10
REMARK    5  A    between atoms: N_10  and  C_11
REMARK    6  A    between atoms: C_14  and  C_15
REMARK    7  A    between atoms: C_14  and  N_16
REMARK    8  A    between atoms: C_17  and  C_18
REMARK    9  A    between atoms: C_17  and  C_19
REMARK   10  A    between atoms: C_20  and  C_21
REMARK                            x       y       z     vdW  Elec       q    Type
REMARK                         _______ _______ _______ _____ _____    ______ ____
ROOT
ATOM      1  C   UNL     1       1.570   7.919  20.097  0.00  0.00    +0.000 A 
ATOM      2  C   UNL     1       2.235   7.229  19.041  0.00  0.00    +0.000 A 
ATOM      3  C   UNL     1       2.371   5.886  19.401  0.00  0.00    +0.000 A 
ATOM      4  C   UNL     1       2.910   4.690  18.770  0.00  0.00    +0.000 A 
ATOM      5  C   UNL     1       2.729   3.527  19.460  0.00  0.00    +0.000 A 
ATOM      6  C   UNL     1       2.113   3.618  20.818  0.00  0.00    +0.000 A 
ATOM      7  N   UNL     1       1.665   4.671  21.411  0.00  0.00    +0.000 NA
ATOM      8  N   UNL     1       1.798   5.771  20.656  0.00  0.00    +0.000 N 
ATOM      9  C   UNL     1       1.316   6.977  21.066  0.00  0.00    +0.000 A 
ENDROOT
BRANCH   1  12
ATOM     10  C   UNL     1       0.278  11.111  21.568  0.00  0.00    +0.000 A 
ATOM     11  C   UNL     1       0.612   9.765  21.469  0.00  0.00    +0.000 A 
ATOM     12  C   UNL     1       1.112   9.302  20.256  0.00  0.00    +0.000 A 
ATOM     13  C   UNL     1       1.227  10.208  19.193  0.00  0.00    +0.000 A 
ATOM     14  C   UNL     1       0.872  11.532  19.395  0.00  0.00    +0.000 A 
ATOM     15  N   UNL     1       0.400  12.005  20.563  0.00  0.00    +0.000 NA
BRANCH  10  17
ATOM     16  C   UNL     1      -1.628  11.574  22.842  0.00  0.00    +0.000 C 
ATOM     17  O   UNL     1      -0.202  11.538  22.794  0.00  0.00    +0.000 OA
ENDBRANCH  10  17
ENDBRANCH   1  12
BRANCH   5  18
ATOM     18  C   UNL     1       2.995   2.129  19.017  0.00  0.00    +0.000 C 
ATOM     19  N   UNL     1       2.019   1.498  18.334  0.00  0.00    +0.000 N 
ATOM     20  O   UNL     1       4.019   1.527  19.323  0.00  0.00    +0.000 OA
ATOM     21  H   UNL     1       1.132   1.963  18.182  0.00  0.00    +0.000 HD
ATOM     22  H   UNL     1       2.155   0.531  18.076  0.00  0.00    +0.000 HD
ENDBRANCH   5  18
BRANCH   4  23
ATOM     23  N   UNL     1       3.419   4.805  17.448  0.00  0.00    +0.000 N 
ATOM     24  H   UNL     1       3.178   5.735  17.097  0.00  0.00    +0.000 HD
BRANCH  23  25
ATOM     25  C   UNL     1       4.805   4.474  16.994  0.00  0.00    +0.000 C 
ATOM     26  C   UNL     1       5.732   4.242  18.197  0.00  0.00    +0.000 C 
ATOM     27  C   UNL     1       6.919   5.198  18.097  0.00  0.00    +0.000 C 
ATOM     28  C   UNL     1       6.956   5.735  16.664  0.00  0.00    +0.000 C 
ATOM     29  C   UNL     1       7.977   4.920  15.839  0.00  0.00    +0.000 C 
ATOM     30  C   UNL     1       5.465   5.645  16.149  0.00  0.00    +0.000 C 
ATOM     31  C   UNL     1       5.422   5.332  14.636  0.00  0.00    +0.000 C 
ATOM     32  C   UNL     1       4.702   6.984  16.323  0.00  0.00    +0.000 C 
BRANCH  28  33
ATOM     33  N   UNL     1       7.525   7.090  16.669  0.00  0.00    +0.000 NA
ATOM     34  H   UNL     1       7.158   7.645  17.439  0.00  0.00    +0.000 HD
ATOM     35  H   UNL     1       7.292   7.589  15.811  0.00  0.00    +0.000 HD
ENDBRANCH  28  33
ENDBRANCH  23  25
ENDBRANCH   4  23
TORSDOF 6
ENDMDL
MODEL 5
REMARK VINA RESULT:      -7.5      1.789      2.452
REMARK  Name = 
REMARK  10 active torsions:
REMARK  status: ('A' for Active; 'I' for Inactive)
REMARK    1  A    between atoms: C_1  and  O_2
REMARK    2  A    between atoms: O_2  and  C_3
REMARK    3  A    between atoms: C_5  and  C_6
REMARK    4  A    between atoms: C_9  and  N_10
REMARK    5  A    between atoms: N_10  and  C_11
REMARK    6  A    between atoms: C_14  and  C_15
REMARK    7  A    between atoms: C_14  and  N_16
REMARK    8  A    between atoms: C_17  and  C_18
REMARK    9  A    between atoms: C_17  and  C_19
REMARK   10  A    between atoms: C_20  and  C_21
REMARK                            x       y       z     vdW  Elec       q    Type
REMARK                         _______ _______ _______ _____ _____    ______ ____
ROOT
ATOM      1  C   UNL     1       1.673   9.287  18.995  0.00  0.00    +0.000 A 
ATOM      2  C   UNL     1       2.288   8.233  18.257  0.00  0.00    +0.000 A 
ATOM      3  C   UNL     1       2.213   7.058  19.010  0.00  0.00    +0.000 A 
ATOM      4  C   UNL     1       2.610   5.671  18.814  0.00  0.00    +0.000 A 
ATOM      5  C   UNL     1       2.230   4.805  19.798  0.00  0.00    +0.000 A 
ATOM      6  C   UNL     1       1.562   5.380  21.004  0.00  0.00    +0.000 A 
ATOM      7  N   UNL     1       1.236   6.609  21.214  0.00  0.00    +0.000 NA
ATOM      8  N   UNL     1       1.564   7.402  20.184  0.00  0.00    +0.000 N 
ATOM      9  C   UNL     1       1.236   8.723  20.171  0.00  0.00    +0.000 A 
ENDROOT
BRANCH   1  12
ATOM     10  C   UNL     1       0.014  12.632  18.715  0.00  0.00    +0.000 A 
ATOM     11  C   UNL     1       0.164  11.269  18.945  0.00  0.00    +0.000 A 
ATOM     12  C   UNL     1       1.407  10.697  18.694  0.00  0.00    +0.000 A 
ATOM     13  C   UNL     1       2.431  11.516  18.199  0.00  0.00    +0.000 A 
ATOM     14  C   UNL     1       2.181  12.865  18.008  0.00  0.00    +0.000 A 
ATOM     15  N   UNL     1       0.992  13.443  18.258  0.00  0.00    +0.000 NA
BRANCH  10  17
ATOM     16  C   UNL     1      -2.103  12.237  19.630  0.00  0.00    +0.000 C 
ATOM     17  O   UNL     1      -1.233  13.169  18.990  0.00  0.00    +0.000 OA
ENDBRANCH  10  17
ENDBRANCH   1  12
BRANCH   5  18
ATOM     18  C   UNL     1       2.320   3.317  19.815  0.00  0.00    +0.000 C 
ATOM     19  N   UNL     1       2.744   2.735  20.955  0.00  0.00    +0.000 N 
ATOM     20  O   UNL     1       2.104   2.635  18.819  0.00  0.00    +0.000 OA
ATOM     21  H   UNL     1       3.028   3.312  21.737  0.00  0.00    +0.000 HD
ATOM     22  H   UNL     1       2.869   1.733  20.969  0.00  0.00    +0.000 HD
ENDBRANCH   5  18
BRANCH   4  23
ATOM     23  N   UNL     1       3.201   5.315  17.571  0.00  0.00    +0.000 N 
ATOM     24  H   UNL     1       3.089   6.105  16.932  0.00  0.00    +0.000 HD
BRANCH  23  25
ATOM     25  C   UNL     1       4.561   4.729  17.365  0.00  0.00    +0.000 C 
ATOM     26  C   UNL     1       5.376   4.771  18.668  0.00  0.00    +0.000 C 
ATOM     27  C   UNL     1       6.675   5.533  18.413  0.00  0.00    +0.000 C 
ATOM     28  C   UNL     1       6.867   5.618  16.896  0.00  0.00    +0.000 C 
ATOM     29  C   UNL     1       7.830   4.498  16.439  0.00  0.00    +0.000 C 
ATOM     30  C   UNL     1       5.411   5.528  16.288  0.00  0.00    +0.000 C 
ATOM     31  C   UNL     1       5.424   4.790  14.931  0.00  0.00    +0.000 C 
ATOM     32  C   UNL     1       4.809   6.928  15.999  0.00  0.00    +0.000 C 
BRANCH  28  33
ATOM     33  N   UNL     1       7.597   6.851  16.568  0.00  0.00    +0.000 NA
ATOM     34  H   UNL     1       7.016   7.675  16.709  0.00  0.00    +0.000 HD
ATOM     35  H   UNL     1       7.883   6.858  15.590  0.00  0.00    +0.000 HD
ENDBRANCH  28  33
ENDBRANCH  23  25
ENDBRANCH   4  23
TORSDOF 6
ENDMDL
MODEL 6
REMARK VINA RESULT:      -7.3      1.203      2.008
REMARK  Name = 
REMARK  10 active torsions:
REMARK  status: ('A' for Active; 'I' for Inactive)
REMARK    1  A    between atoms: C_1  and  O_2
REMARK    2  A    between atoms: O_2  and  C_3
REMARK    3  A    between atoms: C_5  and  C_6
REMARK    4  A    between atoms: C_9  and  N_10
REMARK    5  A    between atoms: N_10  and  C_11
REMARK    6  A    between atoms: C_14  and  C_15
REMARK    7  A    between atoms: C_14  and  N_16
REMARK    8  A    between atoms: C_17  and  C_18
REMARK    9  A    between atoms: C_17  and  C_19
REMARK   10  A    between atoms: C_20  and  C_21
REMARK                            x       y       z     vdW  Elec       q    Type
REMARK                         _______ _______ _______ _____ _____    ______ ____
ROOT
ATOM      1  C   UNL     1       1.572   7.321  20.587  0.00  0.00    +0.000 A 
ATOM      2  C   UNL     1       2.856   6.871  20.160  0.00  0.00    +0.000 A 
ATOM      3  C   UNL     1       2.878   5.475  20.204  0.00  0.00    +0.000 A 
ATOM      4  C   UNL     1       3.847   4.440  19.872  0.00  0.00    +0.000 A 
ATOM      5  C   UNL     1       3.393   3.156  19.967  0.00  0.00    +0.000 A 
ATOM      6  C   UNL     1       2.014   2.949  20.503  0.00  0.00    +0.000 A 
ATOM      7  N   UNL     1       1.156   3.849  20.839  0.00  0.00    +0.000 NA
ATOM      8  N   UNL     1       1.626   5.091  20.653  0.00  0.00    +0.000 N 
ATOM      9  C   UNL     1       0.848   6.186  20.873  0.00  0.00    +0.000 A 
ENDROOT
BRANCH   1  12
ATOM     10  C   UNL     1       0.372  10.776  19.787  0.00  0.00    +0.000 A 
ATOM     11  C   UNL     1       1.053   9.571  19.654  0.00  0.00    +0.000 A 
ATOM     12  C   UNL     1       0.958   8.648  20.689  0.00  0.00    +0.000 A 
ATOM     13  C   UNL     1       0.207   8.990  21.822  0.00  0.00    +0.000 A 
ATOM     14  C   UNL     1      -0.439  10.215  21.856  0.00  0.00    +0.000 A 
ATOM     15  N   UNL     1      -0.374  11.118  20.860  0.00  0.00    +0.000 NA
BRANCH  10  17
ATOM     16  C   UNL     1       1.793  12.200  18.594  0.00  0.00    +0.000 C 
ATOM     17  O   UNL     1       0.477  11.665  18.731  0.00  0.00    +0.000 OA
ENDBRANCH  10  17
ENDBRANCH   1  12
BRANCH   5  18
ATOM     18  C   UNL     1       4.062   1.897  19.533  0.00  0.00    +0.000 C 
ATOM     19  N   UNL     1       5.166   1.518  20.207  0.00  0.00    +0.000 N 
ATOM     20  O   UNL     1       3.692   1.261  18.552  0.00  0.00    +0.000 OA
ATOM     21  H   UNL     1       5.532   2.108  20.944  0.00  0.00    +0.000 HD
ATOM     22  H   UNL     1       5.670   0.701  19.892  0.00  0.00    +0.000 HD
ENDBRANCH   5  18
BRANCH   4  23
ATOM     23  N   UNL     1       5.099   4.845  19.334  0.00  0.00    +0.000 N 
ATOM     24  H   UNL     1       5.795   4.787  20.080  0.00  0.00    +0.000 HD
BRANCH  23  25
ATOM     25  C   UNL     1       5.722   4.361  18.065  0.00  0.00    +0.000 C 
ATOM     26  C   UNL     1       7.152   4.907  17.916  0.00  0.00    +0.000 C 
ATOM     27  C   UNL     1       7.255   5.667  16.596  0.00  0.00    +0.000 C 
ATOM     28  C   UNL     1       6.048   5.269  15.742  0.00  0.00    +0.000 C 
ATOM     29  C   UNL     1       6.468   4.163  14.748  0.00  0.00    +0.000 C 
ATOM     30  C   UNL     1       4.931   4.843  16.775  0.00  0.00    +0.000 C 
ATOM     31  C   UNL     1       4.055   3.706  16.203  0.00  0.00    +0.000 C 
ATOM     32  C   UNL     1       3.955   6.004  17.097  0.00  0.00    +0.000 C 
BRANCH  28  33
ATOM     33  N   UNL     1       5.682   6.393  14.868  0.00  0.00    +0.000 NA
ATOM     34  H   UNL     1       5.211   7.131  15.388  0.00  0.00    +0.000 HD
ATOM     35  H   UNL     1       5.038   6.094  14.136  0.00  0.00    +0.000 HD
ENDBRANCH  28  33
ENDBRANCH  23  25
ENDBRANCH   4  23
TORSDOF 6
ENDMDL
MODEL 7
REMARK VINA RESULT:      -7.2      1.282      1.931
REMARK  Name = 
REMARK  10 active torsions:
REMARK  status: ('A' for Active; 'I' for Inactive)
REMARK    1  A    between atoms: C_1  and  O_2
REMARK    2  A    between atoms: O_2  and  C_3
REMARK    3  A    between atoms: C_5  and  C_6
REMARK    4  A    between atoms: C_9  and  N_10
REMARK    5  A    between atoms: N_10  and  C_11
REMARK    6  A    between atoms: C_14  and  C_15
REMARK    7  A    between atoms: C_14  and  N_16
REMARK    8  A    between atoms: C_17  and  C_18
REMARK    9  A    between atoms: C_17  and  C_19
REMARK   10  A    between atoms: C_20  and  C_21
REMARK                            x       y       z     vdW  Elec       q    Type
REMARK                         _______ _______ _______ _____ _____    ______ ____
ROOT
ATOM      1  C   UNL     1       1.662   7.184  20.527  0.00  0.00    +0.000 A 
ATOM      2  C   UNL     1       2.768   6.694  19.772  0.00  0.00    +0.000 A 
ATOM      3  C   UNL     1       2.864   5.314  19.966  0.00  0.00    +0.000 A 
ATOM      4  C   UNL     1       3.726   4.251  19.467  0.00  0.00    +0.000 A 
ATOM      5  C   UNL     1       3.381   2.986  19.846  0.00  0.00    +0.000 A 
ATOM      6  C   UNL     1       2.249   2.838  20.809  0.00  0.00    +0.000 A 
ATOM      7  N   UNL     1       1.499   3.768  21.292  0.00  0.00    +0.000 NA
ATOM      8  N   UNL     1       1.833   4.980  20.827  0.00  0.00    +0.000 N 
ATOM      9  C   UNL     1       1.115   6.089  21.154  0.00  0.00    +0.000 A 
ENDROOT
BRANCH   1  12
ATOM     10  C   UNL     1       0.098  10.269  21.961  0.00  0.00    +0.000 A 
ATOM     11  C   UNL     1       0.583   8.968  21.891  0.00  0.00    +0.000 A 
ATOM     12  C   UNL     1       1.053   8.511  20.665  0.00  0.00    +0.000 A 
ATOM     13  C   UNL     1       0.990   9.373  19.562  0.00  0.00    +0.000 A 
ATOM     14  C   UNL     1       0.494  10.655  19.737  0.00  0.00    +0.000 A 
ATOM     15  N   UNL     1       0.046  11.123  20.916  0.00  0.00    +0.000 NA
BRANCH  10  17
ATOM     16  C   UNL     1      -1.520  11.505  23.113  0.00  0.00    +0.000 C 
ATOM     17  O   UNL     1      -0.349  10.695  23.201  0.00  0.00    +0.000 OA
ENDBRANCH  10  17
ENDBRANCH   1  12
BRANCH   5  18
ATOM     18  C   UNL     1       3.937   1.687  19.370  0.00  0.00    +0.000 C 
ATOM     19  N   UNL     1       5.062   1.240  19.963  0.00  0.00    +0.000 N 
ATOM     20  O   UNL     1       3.456   1.075  18.423  0.00  0.00    +0.000 OA
ATOM     21  H   UNL     1       5.517   1.807  20.669  0.00  0.00    +0.000 HD
ATOM     22  H   UNL     1       5.489   0.393  19.616  0.00  0.00    +0.000 HD
ENDBRANCH   5  18
BRANCH   4  23
ATOM     23  N   UNL     1       4.728   4.595  18.519  0.00  0.00    +0.000 N 
ATOM     24  H   UNL     1       4.396   4.314  17.594  0.00  0.00    +0.000 HD
BRANCH  23  25
ATOM     25  C   UNL     1       5.421   5.913  18.393  0.00  0.00    +0.000 C 
ATOM     26  C   UNL     1       4.749   6.783  17.319  0.00  0.00    +0.000 C 
ATOM     27  C   UNL     1       5.793   7.174  16.276  0.00  0.00    +0.000 C 
ATOM     28  C   UNL     1       7.172   6.904  16.883  0.00  0.00    +0.000 C 
ATOM     29  C   UNL     1       7.745   8.221  17.457  0.00  0.00    +0.000 C 
ATOM     30  C   UNL     1       6.939   5.763  17.950  0.00  0.00    +0.000 C 
ATOM     31  C   UNL     1       7.890   5.932  19.157  0.00  0.00    +0.000 C 
ATOM     32  C   UNL     1       7.236   4.353  17.376  0.00  0.00    +0.000 C 
BRANCH  28  33
ATOM     33  N   UNL     1       8.116   6.561  15.810  0.00  0.00    +0.000 NA
ATOM     34  H   UNL     1       8.778   7.315  15.641  0.00  0.00    +0.000 HD
ATOM     35  H   UNL     1       7.628   6.397  14.931  0.00  0.00    +0.000 HD
ENDBRANCH  28  33
ENDBRANCH  23  25
ENDBRANCH   4  23
TORSDOF 6
ENDMDL
MODEL 8
REMARK VINA RESULT:      -7.2      1.975      2.781
REMARK  Name = 
REMARK  10 active torsions:
REMARK  status: ('A' for Active; 'I' for Inactive)
REMARK    1  A    between atoms: C_1  and  O_2
REMARK    2  A    between atoms: O_2  and  C_3
REMARK    3  A    between atoms: C_5  and  C_6
REMARK    4  A    between atoms: C_9  and  N_10
REMARK    5  A    between atoms: N_10  and  C_11
REMARK    6  A    between atoms: C_14  and  C_15
REMARK    7  A    between atoms: C_14  and  N_16
REMARK    8  A    between atoms: C_17  and  C_18
REMARK    9  A    between atoms: C_17  and  C_19
REMARK   10  A    between atoms: C_20  and  C_21
REMARK                            x       y       z     vdW  Elec       q    Type
REMARK                         _______ _______ _______ _____ _____    ______ ____
ROOT
ATOM      1  C   UNL     1       1.568   9.254  19.153  0.00  0.00    +0.000 A 
ATOM      2  C   UNL     1       2.211   8.250  18.371  0.00  0.00    +0.000 A 
ATOM      3  C   UNL     1       2.182   7.046  19.078  0.00  0.00    +0.000 A 
ATOM      4  C   UNL     1       2.622   5.681  18.826  0.00  0.00    +0.000 A 
ATOM      5  C   UNL     1       2.280   4.766  19.779  0.00  0.00    +0.000 A 
ATOM      6  C   UNL     1       1.606   5.272  21.013  0.00  0.00    +0.000 A 
ATOM      7  N   UNL     1       1.242   6.481  21.272  0.00  0.00    +0.000 NA
ATOM      8  N   UNL     1       1.533   7.323  20.270  0.00  0.00    +0.000 N 
ATOM      9  C   UNL     1       1.162   8.632  20.311  0.00  0.00    +0.000 A 
ENDROOT
BRANCH   1  12
ATOM     10  C   UNL     1       1.864  12.889  18.306  0.00  0.00    +0.000 A 
ATOM     11  C   UNL     1       2.249  11.588  18.612  0.00  0.00    +0.000 A 
ATOM     12  C   UNL     1       1.253  10.664  18.908  0.00  0.00    +0.000 A 
ATOM     13  C   UNL     1      -0.080  11.098  18.910  0.00  0.00    +0.000 A 
ATOM     14  C   UNL     1      -0.361  12.415  18.586  0.00  0.00    +0.000 A 
ATOM     15  N   UNL     1       0.586  13.323  18.282  0.00  0.00    +0.000 NA
BRANCH  10  17
ATOM     16  C   UNL     1       2.519  15.134  18.257  0.00  0.00    +0.000 C 
ATOM     17  O   UNL     1       2.882  13.778  18.003  0.00  0.00    +0.000 OA
ENDBRANCH  10  17
ENDBRANCH   1  12
BRANCH   5  18
ATOM     18  C   UNL     1       2.419   3.282  19.739  0.00  0.00    +0.000 C 
ATOM     19  N   UNL     1       2.939   2.678  20.826  0.00  0.00    +0.000 N 
ATOM     20  O   UNL     1       2.157   2.625  18.737  0.00  0.00    +0.000 OA
ATOM     21  H   UNL     1       3.258   3.239  21.607  0.00  0.00    +0.000 HD
ATOM     22  H   UNL     1       3.098   1.681  20.798  0.00  0.00    +0.000 HD
ENDBRANCH   5  18
BRANCH   4  23
ATOM     23  N   UNL     1       3.212   5.392  17.565  0.00  0.00    +0.000 N 
ATOM     24  H   UNL     1       3.123   6.225  16.979  0.00  0.00    +0.000 HD
BRANCH  23  25
ATOM     25  C   UNL     1       4.558   4.787  17.328  0.00  0.00    +0.000 C 
ATOM     26  C   UNL     1       5.387   4.776  18.622  0.00  0.00    +0.000 C 
ATOM     27  C   UNL     1       6.697   5.520  18.374  0.00  0.00    +0.000 C 
ATOM     28  C   UNL     1       6.875   5.645  16.859  0.00  0.00    +0.000 C 
ATOM     29  C   UNL     1       7.812   4.521  16.360  0.00  0.00    +0.000 C 
ATOM     30  C   UNL     1       5.412   5.600  16.265  0.00  0.00    +0.000 C 
ATOM     31  C   UNL     1       5.397   4.900  14.887  0.00  0.00    +0.000 C 
ATOM     32  C   UNL     1       4.833   7.018  16.022  0.00  0.00    +0.000 C 
BRANCH  28  33
ATOM     33  N   UNL     1       7.625   6.872  16.558  0.00  0.00    +0.000 NA
ATOM     34  H   UNL     1       7.000   7.662  16.408  0.00  0.00    +0.000 HD
ATOM     35  H   UNL     1       8.174   6.768  15.705  0.00  0.00    +0.000 HD
ENDBRANCH  28  33
ENDBRANCH  23  25
ENDBRANCH   4  23
TORSDOF 6
ENDMDL
MODEL 9
REMARK VINA RESULT:      -7.2      2.328      3.443
REMARK  Name = 
REMARK  10 active torsions:
REMARK  status: ('A' for Active; 'I' for Inactive)
REMARK    1  A    between atoms: C_1  and  O_2
REMARK    2  A    between atoms: O_2  and  C_3
REMARK    3  A    between atoms: C_5  and  C_6
REMARK    4  A    between atoms: C_9  and  N_10
REMARK    5  A    between atoms: N_10  and  C_11
REMARK    6  A    between atoms: C_14  and  C_15
REMARK    7  A    between atoms: C_14  and  N_16
REMARK    8  A    between atoms: C_17  and  C_18
REMARK    9  A    between atoms: C_17  and  C_19
REMARK   10  A    between atoms: C_20  and  C_21
REMARK                            x       y       z     vdW  Elec       q    Type
REMARK                         _______ _______ _______ _____ _____    ______ ____
ROOT
ATOM      1  C   UNL     1       1.475  10.099  19.119  0.00  0.00    +0.000 A 
ATOM      2  C   UNL     1       2.114   9.049  18.395  0.00  0.00    +0.000 A 
ATOM      3  C   UNL     1       2.024   7.873  19.143  0.00  0.00    +0.000 A 
ATOM      4  C   UNL     1       2.432   6.488  18.954  0.00  0.00    +0.000 A 
ATOM      5  C   UNL     1       2.029   5.617  19.925  0.00  0.00    +0.000 A 
ATOM      6  C   UNL     1       1.327   6.186  21.115  0.00  0.00    +0.000 A 
ATOM      7  N   UNL     1       0.992   7.414  21.319  0.00  0.00    +0.000 NA
ATOM      8  N   UNL     1       1.343   8.210  20.300  0.00  0.00    +0.000 N 
ATOM      9  C   UNL     1       1.010   9.530  20.282  0.00  0.00    +0.000 A 
ENDROOT
BRANCH   1  12
ATOM     10  C   UNL     1       1.906  13.686  18.138  0.00  0.00    +0.000 A 
ATOM     11  C   UNL     1       2.242  12.387  18.500  0.00  0.00    +0.000 A 
ATOM     12  C   UNL     1       1.211  11.508  18.815  0.00  0.00    +0.000 A 
ATOM     13  C   UNL     1      -0.106  11.985  18.776  0.00  0.00    +0.000 A 
ATOM     14  C   UNL     1      -0.337  13.297  18.397  0.00  0.00    +0.000 A 
ATOM     15  N   UNL     1       0.644  14.160  18.075  0.00  0.00    +0.000 NA
BRANCH  10  17
ATOM     16  C   UNL     1       2.736  15.871  18.249  0.00  0.00    +0.000 C 
ATOM     17  O   UNL     1       2.958  14.529  17.818  0.00  0.00    +0.000 OA
ENDBRANCH  10  17
ENDBRANCH   1  12
BRANCH   5  18
ATOM     18  C   UNL     1       2.124   4.130  19.941  0.00  0.00    +0.000 C 
ATOM     19  N   UNL     1       1.137   3.439  19.336  0.00  0.00    +0.000 N 
ATOM     20  O   UNL     1       3.009   3.535  20.546  0.00  0.00    +0.000 OA
ATOM     21  H   UNL     1       0.350   3.935  18.936  0.00  0.00    +0.000 HD
ATOM     22  H   UNL     1       1.149   2.430  19.387  0.00  0.00    +0.000 HD
ENDBRANCH   5  18
BRANCH   4  23
ATOM     23  N   UNL     1       3.056   6.137  17.726  0.00  0.00    +0.000 N 
ATOM     24  H   UNL     1       2.634   6.703  16.986  0.00  0.00    +0.000 HD
BRANCH  23  25
ATOM     25  C   UNL     1       4.526   6.041  17.468  0.00  0.00    +0.000 C 
ATOM     26  C   UNL     1       4.890   6.708  16.132  0.00  0.00    +0.000 C 
ATOM     27  C   UNL     1       5.601   5.686  15.248  0.00  0.00    +0.000 C 
ATOM     28  C   UNL     1       6.039   4.527  16.148  0.00  0.00    +0.000 C 
ATOM     29  C   UNL     1       7.523   4.716  16.540  0.00  0.00    +0.000 C 
ATOM     30  C   UNL     1       5.027   4.538  17.360  0.00  0.00    +0.000 C 
ATOM     31  C   UNL     1       5.723   4.089  18.665  0.00  0.00    +0.000 C 
ATOM     32  C   UNL     1       3.850   3.550  17.152  0.00  0.00    +0.000 C 
BRANCH  28  33
ATOM     33  N   UNL     1       6.050   3.283  15.365  0.00  0.00    +0.000 NA
ATOM     34  H   UNL     1       5.111   3.023  15.068  0.00  0.00    +0.000 HD
ATOM     35  H   UNL     1       6.407   2.505  15.918  0.00  0.00    +0.000 HD
ENDBRANCH  28  33
ENDBRANCH  23  25
ENDBRANCH   4  23
TORSDOF 6
ENDMDL
