MODEL 1
REMARK VINA RESULT:      -8.3      0.000      0.000
REMARK  Name = 
REMARK  5 active torsions:
REMARK  status: ('A' for Active; 'I' for Inactive)
REMARK    1  A    between atoms: C_1  and  C_2
REMARK    2  A    between atoms: C_2  and  N_3
REMARK    3  A    between atoms: N_6  and  C_7
REMARK    4  A    between atoms: C_10  and  C_11
REMARK    5  A    between atoms: C_15  and  N_16
REMARK                            x       y       z     vdW  Elec       q    Type
REMARK                         _______ _______ _______ _____ _____    ______ ____
ROOT
ATOM      1  C   UNL     1       2.816   7.270  18.205  0.00  0.00    +0.000 A 
ATOM      2  N   UNL     1       3.921   7.520  17.478  0.00  0.00    +0.000 NA
ATOM      3  C   UNL     1       4.644   6.460  17.107  0.00  0.00    +0.000 A 
ATOM      4  C   UNL     1       4.325   5.162  17.459  0.00  0.00    +0.000 A 
ATOM      5  C   UNL     1       3.199   4.968  18.244  0.00  0.00    +0.000 A 
ATOM      6  N   UNL     1       2.429   6.031  18.586  0.00  0.00    +0.000 NA
ATOM      7  C   UNL     1       5.247   4.127  16.911  0.00  0.00    +0.000 C 
ATOM      8  S   UNL     1       6.221   5.030  15.726  0.00  0.00    +0.000 S 
ATOM      9  O   UNL     1       7.619   4.713  15.948  0.00  0.00    +0.000 OA
ATOM     10  O   UNL     1       5.614   4.873  14.418  0.00  0.00    +0.000 OA
ATOM     11  C   UNL     1       5.897   6.668  16.322  0.00  0.00    +0.000 C 
ENDROOT
BRANCH   1  15
ATOM     12  C   UNL     1       0.505  10.684  19.606  0.00  0.00    +0.000 A 
ATOM     13  C   UNL     1       0.719   9.565  20.407  0.00  0.00    +0.000 A 
ATOM     14  C   UNL     1       1.482   8.484  19.947  0.00  0.00    +0.000 A 
ATOM     15  C   UNL     1       2.051   8.459  18.660  0.00  0.00    +0.000 A 
ATOM     16  C   UNL     1       1.822   9.593  17.859  0.00  0.00    +0.000 A 
ATOM     17  C   UNL     1       1.052  10.684  18.319  0.00  0.00    +0.000 A 
BRANCH  12  21
ATOM     18  N   UNL     1      -0.850  13.624  21.298  0.00  0.00    +0.000 N 
ATOM     19  C   UNL     1       0.139  12.706  21.000  0.00  0.00    +0.000 C 
ATOM     20  O   UNL     1       1.242  12.755  21.540  0.00  0.00    +0.000 OA
ATOM     21  N   UNL     1      -0.258  11.795  20.040  0.00  0.00    +0.000 N 
ATOM     22  H   UNL     1      -1.789  13.249  21.294  0.00  0.00    +0.000 HD
ATOM     23  H   UNL     1      -1.027  12.089  19.456  0.00  0.00    +0.000 HD
BRANCH  18  25
ATOM     24  C   UNL     1      -1.177  14.316  23.660  0.00  0.00    +0.000 C 
ATOM     25  C   UNL     1      -0.541  14.615  22.316  0.00  0.00    +0.000 C 
ENDBRANCH  18  25
ENDBRANCH  12  21
ENDBRANCH   1  15
BRANCH   5  26
ATOM     26  N   UNL     1       2.835   3.735  18.737  0.00  0.00    +0.000 N 
ATOM     27  C   UNL     1       1.975   2.841  17.947  0.00  0.00    +0.000 C 
ATOM     28  C   UNL     1       0.882   2.214  18.831  0.00  0.00    +0.000 C 
ATOM     29  O   UNL     1       1.429   1.594  20.009  0.00  0.00    +0.000 OA
ATOM     30  C   UNL     1       2.121   2.572  20.792  0.00  0.00    +0.000 C 
ATOM     31  C   UNL     1       3.293   3.177  20.014  0.00  0.00    +0.000 C 
ENDBRANCH   5  26
TORSDOF 4
ENDMDL
MODEL 2
REMARK VINA RESULT:      -8.1      1.919      4.035
REMARK  Name = 
REMARK  5 active torsions:
REMARK  status: ('A' for Active; 'I' for Inactive)
REMARK    1  A    between atoms: C_1  and  C_2
REMARK    2  A    between atoms: C_2  and  N_3
REMARK    3  A    between atoms: N_6  and  C_7
REMARK    4  A    between atoms: C_10  and  C_11
REMARK    5  A    between atoms: C_15  and  N_16
REMARK                            x       y       z     vdW  Elec       q    Type
REMARK                         _______ _______ _______ _____ _____    ______ ____
ROOT
ATOM      1  C   UNL     1       2.654   6.729  19.246  0.00  0.00    +0.000 A 
ATOM      2  N   UNL     1       2.223   5.536  19.696  0.00  0.00    +0.000 NA
ATOM      3  C   UNL     1       2.928   4.466  19.321  0.00  0.00    +0.000 A 
ATOM      4  C   UNL     1       4.029   4.535  18.488  0.00  0.00    +0.000 A 
ATOM      5  C   UNL     1       4.403   5.786  18.021  0.00  0.00    +0.000 A 
ATOM      6  N   UNL     1       3.725   6.885  18.434  0.00  0.00    +0.000 NA
ATOM      7  C   UNL     1       4.688   3.225  18.223  0.00  0.00    +0.000 C 
ATOM      8  S   UNL     1       3.923   2.133  19.403  0.00  0.00    +0.000 S 
ATOM      9  O   UNL     1       3.515   0.927  18.711  0.00  0.00    +0.000 OA
ATOM     10  O   UNL     1       4.764   2.073  20.584  0.00  0.00    +0.000 OA
ATOM     11  C   UNL     1       2.488   3.109  19.763  0.00  0.00    +0.000 C 
ENDROOT
BRANCH   1  15
ATOM     12  C   UNL     1       0.177  10.111  20.422  0.00  0.00    +0.000 A 
ATOM     13  C   UNL     1       0.426   9.049  21.287  0.00  0.00    +0.000 A 
ATOM     14  C   UNL     1       1.242   7.978  20.899  0.00  0.00    +0.000 A 
ATOM     15  C   UNL     1       1.832   7.907  19.623  0.00  0.00    +0.000 A 
ATOM     16  C   UNL     1       1.569   8.984  18.758  0.00  0.00    +0.000 A 
ATOM     17  C   UNL     1       0.746  10.065  19.145  0.00  0.00    +0.000 A 
BRANCH  12  21
ATOM     18  N   UNL     1      -1.828  12.642  22.130  0.00  0.00    +0.000 N 
ATOM     19  C   UNL     1      -0.920  11.602  22.078  0.00  0.00    +0.000 C 
ATOM     20  O   UNL     1      -0.426  11.131  23.099  0.00  0.00    +0.000 OA
ATOM     21  N   UNL     1      -0.639  11.211  20.782  0.00  0.00    +0.000 N 
ATOM     22  H   UNL     1      -2.556  12.602  21.429  0.00  0.00    +0.000 HD
ATOM     23  H   UNL     1      -0.835  11.899  20.070  0.00  0.00    +0.000 HD
BRANCH  18  25
ATOM     24  C   UNL     1      -3.514  12.521  23.949  0.00  0.00    +0.000 C 
ATOM     25  C   UNL     1      -2.210  13.115  23.451  0.00  0.00    +0.000 C 
ENDBRANCH  18  25
ENDBRANCH  12  21
ENDBRANCH   1  15
BRANCH   5  26
ATOM     26  N   UNL     1       5.420   5.970  17.111  0.00  0.00    +0.000 N 
ATOM     27  C   UNL     1       5.117   6.156  15.683  0.00  0.00    +0.000 C 
ATOM     28  C   UNL     1       6.068   5.317  14.810  0.00  0.00    +0.000 C 
ATOM     29  O   UNL     1       7.449   5.547  15.141  0.00  0.00    +0.000 OA
ATOM     30  C   UNL     1       7.683   5.196  16.509  0.00  0.00    +0.000 C 
ATOM     31  C   UNL     1       6.842   6.059  17.454  0.00  0.00    +0.000 C 
ENDBRANCH   5  26
TORSDOF 4
ENDMDL
MODEL 3
REMARK VINA RESULT:      -8.1      1.601      3.867
REMARK  Name = 
REMARK  5 active torsions:
REMARK  status: ('A' for Active; 'I' for Inactive)
REMARK    1  A    between atoms: C_1  and  C_2
REMARK    2  A    between atoms: C_2  and  N_3
REMARK    3  A    between atoms: N_6  and  C_7
REMARK    4  A    between atoms: C_10  and  C_11
REMARK    5  A    between atoms: C_15  and  N_16
REMARK                            x       y       z     vdW  Elec       q    Type
REMARK                         _______ _______ _______ _____ _____    ______ ____
ROOT
ATOM      1  C   UNL     1       2.698   6.893  18.876  0.00  0.00    +0.000 A 
ATOM      2  N   UNL     1       2.178   5.748  19.358  0.00  0.00    +0.000 NA
ATOM      3  C   UNL     1       2.818   4.621  19.037  0.00  0.00    +0.000 A 
ATOM      4  C   UNL     1       3.939   4.586  18.228  0.00  0.00    +0.000 A 
ATOM      5  C   UNL     1       4.405   5.792  17.726  0.00  0.00    +0.000 A 
ATOM      6  N   UNL     1       3.793   6.948  18.084  0.00  0.00    +0.000 NA
ATOM      7  C   UNL     1       4.515   3.227  18.025  0.00  0.00    +0.000 C 
ATOM      8  S   UNL     1       3.654   2.232  19.226  0.00  0.00    +0.000 S 
ATOM      9  O   UNL     1       3.181   1.030  18.567  0.00  0.00    +0.000 OA
ATOM     10  O   UNL     1       4.464   2.160  20.427  0.00  0.00    +0.000 OA
ATOM     11  C   UNL     1       2.280   3.313  19.517  0.00  0.00    +0.000 C 
ENDROOT
BRANCH   1  15
ATOM     12  C   UNL     1       0.434  10.473  19.880  0.00  0.00    +0.000 A 
ATOM     13  C   UNL     1       0.682   9.476  20.820  0.00  0.00    +0.000 A 
ATOM     14  C   UNL     1       1.429   8.339  20.484  0.00  0.00    +0.000 A 
ATOM     15  C   UNL     1       1.947   8.135  19.191  0.00  0.00    +0.000 A 
ATOM     16  C   UNL     1       1.685   9.148  18.251  0.00  0.00    +0.000 A 
ATOM     17  C   UNL     1       0.931  10.294  18.586  0.00  0.00    +0.000 A 
BRANCH  12  21
ATOM     18  N   UNL     1      -0.859  13.627  21.197  0.00  0.00    +0.000 N 
ATOM     19  C   UNL     1       0.121  12.674  20.988  0.00  0.00    +0.000 C 
ATOM     20  O   UNL     1       1.247  12.797  21.465  0.00  0.00    +0.000 OA
ATOM     21  N   UNL     1      -0.314  11.636  20.186  0.00  0.00    +0.000 N 
ATOM     22  H   UNL     1      -1.794  13.256  21.289  0.00  0.00    +0.000 HD
ATOM     23  H   UNL     1      -1.110  11.846  19.601  0.00  0.00    +0.000 HD
BRANCH  18  25
ATOM     24  C   UNL     1      -1.021  14.613  23.469  0.00  0.00    +0.000 C 
ATOM     25  C   UNL     1      -0.509  14.752  22.049  0.00  0.00    +0.000 C 
ENDBRANCH  18  25
ENDBRANCH  12  21
ENDBRANCH   1  15
BRANCH   5  26
ATOM     26  N   UNL     1       5.451   5.875  16.834  0.00  0.00    +0.000 N 
ATOM     27  C   UNL     1       5.192   5.958  15.389  0.00  0.00    +0.000 C 
ATOM     28  C   UNL     1       6.139   5.027  14.610  0.00  0.00    +0.000 C 
ATOM     29  O   UNL     1       7.517   5.241  14.962  0.00  0.00    +0.000 OA
ATOM     30  C   UNL     1       7.704   4.991  16.359  0.00  0.00    +0.000 C 
ATOM     31  C   UNL     1       6.866   5.948  17.211  0.00  0.00    +0.000 C 
ENDBRANCH   5  26
TORSDOF 4
ENDMDL
MODEL 4
REMARK VINA RESULT:      -7.9      1.377      1.377
REMARK  Name = 
REMARK  5 active torsions:
REMARK  status: ('A' for Active; 'I' for Inactive)
REMARK    1  A    between atoms: C_1  and  C_2
REMARK    2  A    between atoms: C_2  and  N_3
REMARK    3  A    between atoms: N_6  and  C_7
REMARK    4  A    between atoms: C_10  and  C_11
REMARK    5  A    between atoms: C_15  and  N_16
REMARK                            x       y       z     vdW  Elec       q    Type
REMARK                         _______ _______ _______ _____ _____    ______ ____
ROOT
ATOM      1  C   UNL     1       2.806   7.224  18.259  0.00  0.00    +0.000 A 
ATOM      2  N   UNL     1       3.895   7.479  17.508  0.00  0.00    +0.000 NA
ATOM      3  C   UNL     1       4.601   6.420  17.103  0.00  0.00    +0.000 A 
ATOM      4  C   UNL     1       4.282   5.118  17.442  0.00  0.00    +0.000 A 
ATOM      5  C   UNL     1       3.175   4.919  18.252  0.00  0.00    +0.000 A 
ATOM      6  N   UNL     1       2.421   5.981  18.630  0.00  0.00    +0.000 NA
ATOM      7  C   UNL     1       5.184   4.087  16.855  0.00  0.00    +0.000 C 
ATOM      8  S   UNL     1       6.134   5.003  15.660  0.00  0.00    +0.000 S 
ATOM      9  O   UNL     1       7.535   4.674  15.842  0.00  0.00    +0.000 OA
ATOM     10  O   UNL     1       5.494   4.870  14.365  0.00  0.00    +0.000 OA
ATOM     11  C   UNL     1       5.835   6.633  16.290  0.00  0.00    +0.000 C 
ENDROOT
BRANCH   1  15
ATOM     12  C   UNL     1       0.551  10.628  19.769  0.00  0.00    +0.000 A 
ATOM     13  C   UNL     1       0.765   9.489  20.542  0.00  0.00    +0.000 A 
ATOM     14  C   UNL     1       1.510   8.411  20.046  0.00  0.00    +0.000 A 
ATOM     15  C   UNL     1       2.060   8.410  18.751  0.00  0.00    +0.000 A 
ATOM     16  C   UNL     1       1.833   9.564  17.980  0.00  0.00    +0.000 A 
ATOM     17  C   UNL     1       1.081  10.652  18.475  0.00  0.00    +0.000 A 
BRANCH  12  21
ATOM     18  N   UNL     1      -1.976  13.164  20.498  0.00  0.00    +0.000 N 
ATOM     19  C   UNL     1      -1.540  11.946  20.011  0.00  0.00    +0.000 C 
ATOM     20  O   UNL     1      -2.312  11.160  19.466  0.00  0.00    +0.000 OA
ATOM     21  N   UNL     1      -0.193  11.737  20.239  0.00  0.00    +0.000 N 
ATOM     22  H   UNL     1      -1.310  13.918  20.403  0.00  0.00    +0.000 HD
ATOM     23  H   UNL     1       0.210  12.288  20.983  0.00  0.00    +0.000 HD
BRANCH  18  25
ATOM     24  C   UNL     1      -4.247  13.215  21.500  0.00  0.00    +0.000 C 
ATOM     25  C   UNL     1      -3.377  13.491  20.288  0.00  0.00    +0.000 C 
ENDBRANCH  18  25
ENDBRANCH  12  21
ENDBRANCH   1  15
BRANCH   5  26
ATOM     26  N   UNL     1       2.816   3.681  18.735  0.00  0.00    +0.000 N 
ATOM     27  C   UNL     1       1.924   2.807  17.956  0.00  0.00    +0.000 C 
ATOM     28  C   UNL     1       0.853   2.174  18.862  0.00  0.00    +0.000 C 
ATOM     29  O   UNL     1       1.431   1.530  20.012  0.00  0.00    +0.000 OA
ATOM     30  C   UNL     1       2.154   2.488  20.790  0.00  0.00    +0.000 C 
ATOM     31  C   UNL     1       3.307   3.097  19.987  0.00  0.00    +0.000 C 
ENDBRANCH   5  26
TORSDOF 4
ENDMDL
MODEL 5
REMARK VINA RESULT:      -7.9      2.114      4.239
REMARK  Name = 
REMARK  5 active torsions:
REMARK  status: ('A' for Active; 'I' for Inactive)
REMARK    1  A    between atoms: C_1  and  C_2
REMARK    2  A    between atoms: C_2  and  N_3
REMARK    3  A    between atoms: N_6  and  C_7
REMARK    4  A    between atoms: C_10  and  C_11
REMARK    5  A    between atoms: C_15  and  N_16
REMARK                            x       y       z     vdW  Elec       q    Type
REMARK                         _______ _______ _______ _____ _____    ______ ____
ROOT
ATOM      1  C   UNL     1       2.556   7.160  18.746  0.00  0.00    +0.000 A 
ATOM      2  N   UNL     1       1.892   6.095  19.232  0.00  0.00    +0.000 NA
ATOM      3  C   UNL     1       2.463   4.902  19.050  0.00  0.00    +0.000 A 
ATOM      4  C   UNL     1       3.656   4.725  18.375  0.00  0.00    +0.000 A 
ATOM      5  C   UNL     1       4.275   5.853  17.859  0.00  0.00    +0.000 A 
ATOM      6  N   UNL     1       3.731   7.076  18.079  0.00  0.00    +0.000 NA
ATOM      7  C   UNL     1       4.131   3.313  18.317  0.00  0.00    +0.000 C 
ATOM      8  S   UNL     1       3.065   2.472  19.469  0.00  0.00    +0.000 S 
ATOM      9  O   UNL     1       2.563   1.270  18.831  0.00  0.00    +0.000 OA
ATOM     10  O   UNL     1       3.733   2.417  20.755  0.00  0.00    +0.000 OA
ATOM     11  C   UNL     1       1.766   3.676  19.541  0.00  0.00    +0.000 C 
ENDROOT
BRANCH   1  15
ATOM     12  C   UNL     1       0.672  11.066  19.134  0.00  0.00    +0.000 A 
ATOM     13  C   UNL     1       1.312  10.674  17.960  0.00  0.00    +0.000 A 
ATOM     14  C   UNL     1       1.896   9.406  17.847  0.00  0.00    +0.000 A 
ATOM     15  C   UNL     1       1.887   8.476  18.903  0.00  0.00    +0.000 A 
ATOM     16  C   UNL     1       1.241   8.887  20.084  0.00  0.00    +0.000 A 
ATOM     17  C   UNL     1       0.653  10.165  20.203  0.00  0.00    +0.000 A 
BRANCH  12  21
ATOM     18  N   UNL     1      -0.115  14.628  19.329  0.00  0.00    +0.000 N 
ATOM     19  C   UNL     1       0.673  13.545  18.986  0.00  0.00    +0.000 C 
ATOM     20  O   UNL     1       1.770  13.694  18.454  0.00  0.00    +0.000 OA
ATOM     21  N   UNL     1       0.068  12.338  19.282  0.00  0.00    +0.000 N 
ATOM     22  H   UNL     1      -0.648  14.509  20.179  0.00  0.00    +0.000 HD
ATOM     23  H   UNL     1      -0.936  12.369  19.377  0.00  0.00    +0.000 HD
BRANCH  18  25
ATOM     24  C   UNL     1      -0.470  16.838  18.253  0.00  0.00    +0.000 C 
ATOM     25  C   UNL     1       0.440  15.949  19.079  0.00  0.00    +0.000 C 
ENDBRANCH  18  25
ENDBRANCH  12  21
ENDBRANCH   1  15
BRANCH   5  26
ATOM     26  N   UNL     1       5.413   5.793  17.087  0.00  0.00    +0.000 N 
ATOM     27  C   UNL     1       5.326   5.894  15.622  0.00  0.00    +0.000 C 
ATOM     28  C   UNL     1       6.224   4.842  14.948  0.00  0.00    +0.000 C 
ATOM     29  O   UNL     1       7.572   4.883  15.448  0.00  0.00    +0.000 OA
ATOM     30  C   UNL     1       7.573   4.625  16.856  0.00  0.00    +0.000 C 
ATOM     31  C   UNL     1       6.777   5.690  17.615  0.00  0.00    +0.000 C 
ENDBRANCH   5  26
TORSDOF 4
ENDMDL
MODEL 6
REMARK VINA RESULT:      -7.9      1.658      4.019
REMARK  Name = 
REMARK  5 active torsions:
REMARK  status: ('A' for Active; 'I' for Inactive)
REMARK    1  A    between atoms: C_1  and  C_2
REMARK    2  A    between atoms: C_2  and  N_3
REMARK    3  A    between atoms: N_6  and  C_7
REMARK    4  A    between atoms: C_10  and  C_11
REMARK    5  A    between atoms: C_15  and  N_16
REMARK                            x       y       z     vdW  Elec       q    Type
REMARK                         _______ _______ _______ _____ _____    ______ ____
ROOT
ATOM      1  C   UNL     1       2.665   6.907  18.979  0.00  0.00    +0.000 A 
ATOM      2  N   UNL     1       2.140   5.762  19.453  0.00  0.00    +0.000 NA
ATOM      3  C   UNL     1       2.776   4.634  19.126  0.00  0.00    +0.000 A 
ATOM      4  C   UNL     1       3.897   4.599  18.319  0.00  0.00    +0.000 A 
ATOM      5  C   UNL     1       4.369   5.805  17.824  0.00  0.00    +0.000 A 
ATOM      6  N   UNL     1       3.761   6.962  18.188  0.00  0.00    +0.000 NA
ATOM      7  C   UNL     1       4.468   3.238  18.109  0.00  0.00    +0.000 C 
ATOM      8  S   UNL     1       3.602   2.240  19.302  0.00  0.00    +0.000 S 
ATOM      9  O   UNL     1       3.124   1.044  18.635  0.00  0.00    +0.000 OA
ATOM     10  O   UNL     1       4.410   2.158  20.504  0.00  0.00    +0.000 OA
ATOM     11  C   UNL     1       2.232   3.325  19.598  0.00  0.00    +0.000 C 
ENDROOT
BRANCH   1  15
ATOM     12  C   UNL     1       0.548  10.611  19.846  0.00  0.00    +0.000 A 
ATOM     13  C   UNL     1       1.101  10.359  18.593  0.00  0.00    +0.000 A 
ATOM     14  C   UNL     1       1.763   9.153  18.326  0.00  0.00    +0.000 A 
ATOM     15  C   UNL     1       1.919   8.150  19.301  0.00  0.00    +0.000 A 
ATOM     16  C   UNL     1       1.359   8.419  20.563  0.00  0.00    +0.000 A 
ATOM     17  C   UNL     1       0.694   9.635  20.836  0.00  0.00    +0.000 A 
BRANCH  12  21
ATOM     18  N   UNL     1      -0.535  13.857  21.126  0.00  0.00    +0.000 N 
ATOM     19  C   UNL     1       0.388  12.853  20.903  0.00  0.00    +0.000 C 
ATOM     20  O   UNL     1       1.538  12.933  21.329  0.00  0.00    +0.000 OA
ATOM     21  N   UNL     1      -0.130  11.817  20.150  0.00  0.00    +0.000 N 
ATOM     22  H   UNL     1      -1.482  13.535  21.267  0.00  0.00    +0.000 HD
ATOM     23  H   UNL     1      -0.939  12.049  19.593  0.00  0.00    +0.000 HD
BRANCH  18  25
ATOM     24  C   UNL     1       0.143  16.246  21.119  0.00  0.00    +0.000 C 
ATOM     25  C   UNL     1      -0.096  14.986  21.930  0.00  0.00    +0.000 C 
ENDBRANCH  18  25
ENDBRANCH  12  21
ENDBRANCH   1  15
BRANCH   5  26
ATOM     26  N   UNL     1       5.416   5.890  16.934  0.00  0.00    +0.000 N 
ATOM     27  C   UNL     1       5.160   6.080  15.498  0.00  0.00    +0.000 C 
ATOM     28  C   UNL     1       6.053   5.151  14.657  0.00  0.00    +0.000 C 
ATOM     29  O   UNL     1       7.442   5.268  15.015  0.00  0.00    +0.000 OA
ATOM     30  C   UNL     1       7.617   4.918  16.391  0.00  0.00    +0.000 C 
ATOM     31  C   UNL     1       6.833   5.863  17.307  0.00  0.00    +0.000 C 
ENDBRANCH   5  26
TORSDOF 4
ENDMDL
MODEL 7
REMARK VINA RESULT:      -7.9      1.775      4.066
REMARK  Name = 
REMARK  5 active torsions:
REMARK  status: ('A' for Active; 'I' for Inactive)
REMARK    1  A    between atoms: C_1  and  C_2
REMARK    2  A    between atoms: C_2  and  N_3
REMARK    3  A    between atoms: N_6  and  C_7
REMARK    4  A    between atoms: C_10  and  C_11
REMARK    5  A    between atoms: C_15  and  N_16
REMARK                            x       y       z     vdW  Elec       q    Type
REMARK                         _______ _______ _______ _____ _____    ______ ____
ROOT
ATOM      1  C   UNL     1       2.618   6.854  19.281  0.00  0.00    +0.000 A 
ATOM      2  N   UNL     1       2.179   5.660  19.722  0.00  0.00    +0.000 NA
ATOM      3  C   UNL     1       2.863   4.587  19.319  0.00  0.00    +0.000 A 
ATOM      4  C   UNL     1       3.950   4.653  18.467  0.00  0.00    +0.000 A 
ATOM      5  C   UNL     1       4.332   5.905  18.011  0.00  0.00    +0.000 A 
ATOM      6  N   UNL     1       3.676   7.008  18.452  0.00  0.00    +0.000 NA
ATOM      7  C   UNL     1       4.587   3.338  18.172  0.00  0.00    +0.000 C 
ATOM      8  S   UNL     1       3.829   2.240  19.351  0.00  0.00    +0.000 S 
ATOM      9  O   UNL     1       3.393   1.049  18.649  0.00  0.00    +0.000 OA
ATOM     10  O   UNL     1       4.689   2.152  20.516  0.00  0.00    +0.000 OA
ATOM     11  C   UNL     1       2.413   3.229  19.750  0.00  0.00    +0.000 C 
ENDROOT
BRANCH   1  15
ATOM     12  C   UNL     1       0.334  10.387  20.401  0.00  0.00    +0.000 A 
ATOM     13  C   UNL     1       0.854  10.226  19.118  0.00  0.00    +0.000 A 
ATOM     14  C   UNL     1       1.570   9.073  18.770  0.00  0.00    +0.000 A 
ATOM     15  C   UNL     1       1.818   8.036  19.688  0.00  0.00    +0.000 A 
ATOM     16  C   UNL     1       1.292   8.214  20.981  0.00  0.00    +0.000 A 
ATOM     17  C   UNL     1       0.570   9.375  21.336  0.00  0.00    +0.000 A 
BRANCH  12  21
ATOM     18  N   UNL     1      -1.567  12.973  22.145  0.00  0.00    +0.000 N 
ATOM     19  C   UNL     1      -0.770  11.846  22.080  0.00  0.00    +0.000 C 
ATOM     20  O   UNL     1      -0.438  11.237  23.094  0.00  0.00    +0.000 OA
ATOM     21  N   UNL     1      -0.397  11.537  20.786  0.00  0.00    +0.000 N 
ATOM     22  H   UNL     1      -2.218  13.074  21.378  0.00  0.00    +0.000 HD
ATOM     23  H   UNL     1      -0.445  12.301  20.128  0.00  0.00    +0.000 HD
BRANCH  18  25
ATOM     24  C   UNL     1      -1.358  14.624  23.988  0.00  0.00    +0.000 C 
ATOM     25  C   UNL     1      -2.035  13.372  23.463  0.00  0.00    +0.000 C 
ENDBRANCH  18  25
ENDBRANCH  12  21
ENDBRANCH   1  15
BRANCH   5  26
ATOM     26  N   UNL     1       5.335   6.089  17.086  0.00  0.00    +0.000 N 
ATOM     27  C   UNL     1       5.027   6.112  15.648  0.00  0.00    +0.000 C 
ATOM     28  C   UNL     1       6.052   5.279  14.857  0.00  0.00    +0.000 C 
ATOM     29  O   UNL     1       7.406   5.658  15.162  0.00  0.00    +0.000 OA
ATOM     30  C   UNL     1       7.661   5.459  16.556  0.00  0.00    +0.000 C 
ATOM     31  C   UNL     1       6.743   6.332  17.417  0.00  0.00    +0.000 C 
ENDBRANCH   5  26
TORSDOF 4
ENDMDL
MODEL 8
REMARK VINA RESULT:      -7.7      0.990      1.458
REMARK  Name = 
REMARK  5 active torsions:
REMARK  status: ('A' for Active; 'I' for Inactive)
REMARK    1  A    between atoms: C_1  and  C_2
REMARK    2  A    between atoms: C_2  and  N_3
REMARK    3  A    between atoms: N_6  and  C_7
REMARK    4  A    between atoms: C_10  and  C_11
REMARK    5  A    between atoms: C_15  and  N_16
REMARK                            x       y       z     vdW  Elec       q    Type
REMARK                         _______ _______ _______ _____ _____    ______ ____
ROOT
ATOM      1  C   UNL     1       2.769   7.354  18.286  0.00  0.00    +0.000 A 
ATOM      2  N   UNL     1       3.893   7.598  17.588  0.00  0.00    +0.000 NA
ATOM      3  C   UNL     1       4.622   6.534  17.240  0.00  0.00    +0.000 A 
ATOM      4  C   UNL     1       4.291   5.238  17.588  0.00  0.00    +0.000 A 
ATOM      5  C   UNL     1       3.144   5.050  18.343  0.00  0.00    +0.000 A 
ATOM      6  N   UNL     1       2.368   6.117  18.661  0.00  0.00    +0.000 NA
ATOM      7  C   UNL     1       5.224   4.199  17.068  0.00  0.00    +0.000 C 
ATOM      8  S   UNL     1       6.232   5.095  15.906  0.00  0.00    +0.000 S 
ATOM      9  O   UNL     1       7.622   4.775  16.166  0.00  0.00    +0.000 OA
ATOM     10  O   UNL     1       5.659   4.934  14.583  0.00  0.00    +0.000 OA
ATOM     11  C   UNL     1       5.896   6.736  16.487  0.00  0.00    +0.000 C 
ENDROOT
BRANCH   1  15
ATOM     12  C   UNL     1       0.575  10.918  19.486  0.00  0.00    +0.000 A 
ATOM     13  C   UNL     1       1.241  10.844  18.265  0.00  0.00    +0.000 A 
ATOM     14  C   UNL     1       1.926   9.681  17.887  0.00  0.00    +0.000 A 
ATOM     15  C   UNL     1       1.995   8.546  18.716  0.00  0.00    +0.000 A 
ATOM     16  C   UNL     1       1.321   8.636  19.947  0.00  0.00    +0.000 A 
ATOM     17  C   UNL     1       0.631   9.807  20.333  0.00  0.00    +0.000 A 
BRANCH  12  21
ATOM     18  N   UNL     1      -0.507  14.283  20.408  0.00  0.00    +0.000 N 
ATOM     19  C   UNL     1       0.358  13.366  19.839  0.00  0.00    +0.000 C 
ATOM     20  O   UNL     1       1.418  13.717  19.327  0.00  0.00    +0.000 OA
ATOM     21  N   UNL     1      -0.130  12.075  19.898  0.00  0.00    +0.000 N 
ATOM     22  H   UNL     1      -0.996  13.949  21.226  0.00  0.00    +0.000 HD
ATOM     23  H   UNL     1      -1.129  11.994  20.016  0.00  0.00    +0.000 HD
BRANCH  18  25
ATOM     24  C   UNL     1      -0.676  16.496  19.294  0.00  0.00    +0.000 C 
ATOM     25  C   UNL     1      -0.076  15.673  20.417  0.00  0.00    +0.000 C 
ENDBRANCH  18  25
ENDBRANCH  12  21
ENDBRANCH   1  15
BRANCH   5  26
ATOM     26  N   UNL     1       2.764   3.820  18.831  0.00  0.00    +0.000 N 
ATOM     27  C   UNL     1       1.967   2.903  18.002  0.00  0.00    +0.000 C 
ATOM     28  C   UNL     1       0.827   2.275  18.823  0.00  0.00    +0.000 C 
ATOM     29  O   UNL     1       1.304   1.681  20.043  0.00  0.00    +0.000 OA
ATOM     30  C   UNL     1       1.932   2.679  20.854  0.00  0.00    +0.000 C 
ATOM     31  C   UNL     1       3.144   3.288  20.143  0.00  0.00    +0.000 C 
ENDBRANCH   5  26
TORSDOF 4
ENDMDL
MODEL 9
REMARK VINA RESULT:      -7.7      2.120      4.228
REMARK  Name = 
REMARK  5 active torsions:
REMARK  status: ('A' for Active; 'I' for Inactive)
REMARK    1  A    between atoms: C_1  and  C_2
REMARK    2  A    between atoms: C_2  and  N_3
REMARK    3  A    between atoms: N_6  and  C_7
REMARK    4  A    between atoms: C_10  and  C_11
REMARK    5  A    between atoms: C_15  and  N_16
REMARK                            x       y       z     vdW  Elec       q    Type
REMARK                         _______ _______ _______ _____ _____    ______ ____
ROOT
ATOM      1  C   UNL     1       2.537   6.791  19.473  0.00  0.00    +0.000 A 
ATOM      2  N   UNL     1       2.125   5.575  19.878  0.00  0.00    +0.000 NA
ATOM      3  C   UNL     1       2.813   4.528  19.415  0.00  0.00    +0.000 A 
ATOM      4  C   UNL     1       3.877   4.644  18.539  0.00  0.00    +0.000 A 
ATOM      5  C   UNL     1       4.230   5.918  18.124  0.00  0.00    +0.000 A 
ATOM      6  N   UNL     1       3.571   6.993  18.624  0.00  0.00    +0.000 NA
ATOM      7  C   UNL     1       4.524   3.351  18.176  0.00  0.00    +0.000 C 
ATOM      8  S   UNL     1       3.812   2.196  19.329  0.00  0.00    +0.000 S 
ATOM      9  O   UNL     1       3.373   1.027  18.591  0.00  0.00    +0.000 OA
ATOM     10  O   UNL     1       4.703   2.075  20.467  0.00  0.00    +0.000 OA
ATOM     11  C   UNL     1       2.394   3.148  19.803  0.00  0.00    +0.000 C 
ENDROOT
BRANCH   1  15
ATOM     12  C   UNL     1       0.242  10.245  20.799  0.00  0.00    +0.000 A 
ATOM     13  C   UNL     1       0.814  10.188  19.530  0.00  0.00    +0.000 A 
ATOM     14  C   UNL     1       1.533   9.060  19.113  0.00  0.00    +0.000 A 
ATOM     15  C   UNL     1       1.731   7.945  19.948  0.00  0.00    +0.000 A 
ATOM     16  C   UNL     1       1.153   8.018  21.228  0.00  0.00    +0.000 A 
ATOM     17  C   UNL     1       0.428   9.154  21.653  0.00  0.00    +0.000 A 
BRANCH  12  21
ATOM     18  N   UNL     1      -2.010  13.093  21.204  0.00  0.00    +0.000 N 
ATOM     19  C   UNL     1      -1.552  11.948  20.579  0.00  0.00    +0.000 C 
ATOM     20  O   UNL     1      -2.080  11.523  19.554  0.00  0.00    +0.000 OA
ATOM     21  N   UNL     1      -0.494  11.367  21.251  0.00  0.00    +0.000 N 
ATOM     22  H   UNL     1      -1.288  13.660  21.627  0.00  0.00    +0.000 HD
ATOM     23  H   UNL     1      -0.411  11.617  22.226  0.00  0.00    +0.000 HD
BRANCH  18  25
ATOM     24  C   UNL     1      -4.455  13.526  21.212  0.00  0.00    +0.000 C 
ATOM     25  C   UNL     1      -3.111  13.795  20.563  0.00  0.00    +0.000 C 
ENDBRANCH  18  25
ENDBRANCH  12  21
ENDBRANCH   1  15
BRANCH   5  26
ATOM     26  N   UNL     1       5.206   6.153  17.182  0.00  0.00    +0.000 N 
ATOM     27  C   UNL     1       4.970   5.827  15.767  0.00  0.00    +0.000 C 
ATOM     28  C   UNL     1       6.196   5.124  15.157  0.00  0.00    +0.000 C 
ATOM     29  O   UNL     1       7.409   5.863  15.382  0.00  0.00    +0.000 OA
ATOM     30  C   UNL     1       7.636   6.001  16.789  0.00  0.00    +0.000 C 
ATOM     31  C   UNL     1       6.502   6.781  17.459  0.00  0.00    +0.000 C 
ENDBRANCH   5  26
TORSDOF 4
ENDMDL
