MODEL 1
REMARK VINA RESULT:      -7.1      0.000      0.000
REMARK  Name = 
REMARK  15 active torsions:
REMARK  status: ('A' for Active; 'I' for Inactive)
REMARK    1  A    between atoms: C_1  and  O_2
REMARK    2  A    between atoms: O_2  and  C_3
REMARK    3  A    between atoms: C_6  and  C_7
REMARK    4  A    between atoms: C_7  and  C_8
REMARK    5  A    between atoms: C_8  and  N_9
REMARK    6  A    between atoms: N_9  and  C_10
REMARK    7  A    between atoms: C_10  and  C_11
REMARK    8  A    between atoms: C_10  and  C_12
REMARK    9  A    between atoms: C_12  and  O_13
REMARK   10  A    between atoms: O_13  and  C_14
REMARK   11  A    between atoms: C_15  and  C_16
REMARK   12  A    between atoms: C_18  and  C_19
REMARK   13  A    between atoms: C_21  and  C_22
REMARK   14  A    between atoms: C_24  and  O_25
REMARK   15  A    between atoms: O_25  and  C_26
REMARK                            x       y       z     vdW  Elec       q    Type
REMARK                         _______ _______ _______ _____ _____    ______ ____
ROOT
ATOM      1  N   UNL     1       2.919   3.136  20.560  0.00  0.00    +0.000 NA
ATOM      2  H   UNL     1       3.130   3.561  21.464  0.00  0.00    +0.000 HD
ENDROOT
BRANCH   1   3
ATOM      3  C   UNL     1       2.037   4.043  19.791  0.00  0.00    +0.000 C 
ATOM      4  C   UNL     1       0.711   3.353  19.408  0.00  0.00    +0.000 C 
BRANCH   3   5
ATOM      5  C   UNL     1       1.701   5.390  20.482  0.00  0.00    +0.000 C 
BRANCH   5   6
ATOM      6  O   UNL     1       2.626   6.442  20.172  0.00  0.00    +0.000 OA
BRANCH   6   7
ATOM      7  C   UNL     1       2.020   7.622  19.783  0.00  0.00    +0.000 A 
ATOM      8  C   UNL     1       1.297   8.466  20.647  0.00  0.00    +0.000 A 
ATOM      9  C   UNL     1       1.220   8.313  22.140  0.00  0.00    +0.000 C 
ATOM     10  C   UNL     1       0.593   9.562  20.106  0.00  0.00    +0.000 A 
ATOM     11  C   UNL     1       0.678   9.886  18.754  0.00  0.00    +0.000 A 
ATOM     12  C   UNL     1      -0.066  11.061  18.198  0.00  0.00    +0.000 C 
ATOM     13  C   UNL     1       1.513   9.124  17.933  0.00  0.00    +0.000 A 
ATOM     14  C   UNL     1       2.189   7.994  18.431  0.00  0.00    +0.000 A 
ATOM     15  C   UNL     1       3.115   7.250  17.507  0.00  0.00    +0.000 C 
ENDBRANCH   6   7
ENDBRANCH   5   6
ENDBRANCH   3   5
ENDBRANCH   1   3
BRANCH   1  16
ATOM     16  C   UNL     1       4.174   2.790  19.885  0.00  0.00    +0.000 C 
BRANCH  16  17
ATOM     17  C   UNL     1       4.093   2.989  18.361  0.00  0.00    +0.000 C 
BRANCH  17  21
ATOM     18  C   UNL     1       6.820   6.126  17.165  0.00  0.00    +0.000 A 
ATOM     19  C   UNL     1       6.549   5.897  18.525  0.00  0.00    +0.000 A 
ATOM     20  C   UNL     1       5.638   4.914  18.921  0.00  0.00    +0.000 A 
ATOM     21  C   UNL     1       4.956   4.166  17.964  0.00  0.00    +0.000 A 
ATOM     22  C   UNL     1       5.167   4.454  16.610  0.00  0.00    +0.000 A 
ATOM     23  C   UNL     1       6.085   5.428  16.195  0.00  0.00    +0.000 A 
BRANCH  18  25
ATOM     24  C   UNL     1       7.913   8.187  17.598  0.00  0.00    +0.000 C 
ATOM     25  O   UNL     1       7.772   7.031  16.774  0.00  0.00    +0.000 OA
ENDBRANCH  18  25
BRANCH  23  26
ATOM     26  O   UNL     1       6.147   5.522  14.831  0.00  0.00    +0.000 OA
ATOM     27  C   UNL     1       6.554   4.394  14.075  0.00  0.00    +0.000 C 
ENDBRANCH  23  26
ENDBRANCH  17  21
ENDBRANCH  16  17
ENDBRANCH   1  16
TORSDOF 9
ENDMDL
MODEL 2
REMARK VINA RESULT:      -6.7      1.062      1.248
REMARK  Name = 
REMARK  15 active torsions:
REMARK  status: ('A' for Active; 'I' for Inactive)
REMARK    1  A    between atoms: C_1  and  O_2
REMARK    2  A    between atoms: O_2  and  C_3
REMARK    3  A    between atoms: C_6  and  C_7
REMARK    4  A    between atoms: C_7  and  C_8
REMARK    5  A    between atoms: C_8  and  N_9
REMARK    6  A    between atoms: N_9  and  C_10
REMARK    7  A    between atoms: C_10  and  C_11
REMARK    8  A    between atoms: C_10  and  C_12
REMARK    9  A    between atoms: C_12  and  O_13
REMARK   10  A    between atoms: O_13  and  C_14
REMARK   11  A    between atoms: C_15  and  C_16
REMARK   12  A    between atoms: C_18  and  C_19
REMARK   13  A    between atoms: C_21  and  C_22
REMARK   14  A    between atoms: C_24  and  O_25
REMARK   15  A    between atoms: O_25  and  C_26
REMARK                            x       y       z     vdW  Elec       q    Type
REMARK                         _______ _______ _______ _____ _____    ______ ____
ROOT
ATOM      1  N   UNL     1       1.420   3.869  19.005  0.00  0.00    +0.000 NA
ATOM      2  H   UNL     1       0.455   3.539  19.047  0.00  0.00    +0.000 HD
ENDROOT
BRANCH   1   3
ATOM      3  C   UNL     1       1.586   5.003  19.942  0.00  0.00    +0.000 C 
ATOM      4  C   UNL     1       2.252   4.555  21.261  0.00  0.00    +0.000 C 
BRANCH   3   5
ATOM      5  C   UNL     1       2.374   6.217  19.388  0.00  0.00    +0.000 C 
BRANCH   5   6
ATOM      6  O   UNL     1       2.379   7.350  20.268  0.00  0.00    +0.000 OA
BRANCH   6   7
ATOM      7  C   UNL     1       1.531   8.368  19.873  0.00  0.00    +0.000 A 
ATOM      8  C   UNL     1       0.596   8.994  20.718  0.00  0.00    +0.000 A 
ATOM      9  C   UNL     1       0.494   8.783  22.202  0.00  0.00    +0.000 C 
ATOM     10  C   UNL     1      -0.322   9.911  20.165  0.00  0.00    +0.000 A 
ATOM     11  C   UNL     1      -0.258  10.287  18.826  0.00  0.00    +0.000 A 
ATOM     12  C   UNL     1      -1.233  11.274  18.258  0.00  0.00    +0.000 C 
ATOM     13  C   UNL     1       0.766   9.766  18.031  0.00  0.00    +0.000 A 
ATOM     14  C   UNL     1       1.665   8.810  18.538  0.00  0.00    +0.000 A 
ATOM     15  C   UNL     1       2.778   8.329  17.645  0.00  0.00    +0.000 C 
ENDBRANCH   6   7
ENDBRANCH   5   6
ENDBRANCH   3   5
ENDBRANCH   1   3
BRANCH   1  16
ATOM     16  C   UNL     1       2.327   2.742  19.246  0.00  0.00    +0.000 C 
BRANCH  16  17
ATOM     17  C   UNL     1       3.167   2.391  18.006  0.00  0.00    +0.000 C 
BRANCH  17  21
ATOM     18  C   UNL     1       6.434   5.146  17.340  0.00  0.00    +0.000 A 
ATOM     19  C   UNL     1       6.103   4.734  18.642  0.00  0.00    +0.000 A 
ATOM     20  C   UNL     1       5.024   3.876  18.872  0.00  0.00    +0.000 A 
ATOM     21  C   UNL     1       4.234   3.444  17.809  0.00  0.00    +0.000 A 
ATOM     22  C   UNL     1       4.515   3.925  16.524  0.00  0.00    +0.000 A 
ATOM     23  C   UNL     1       5.601   4.775  16.273  0.00  0.00    +0.000 A 
BRANCH  18  25
ATOM     24  C   UNL     1       7.435   7.293  17.472  0.00  0.00    +0.000 C 
ATOM     25  O   UNL     1       7.539   5.920  17.099  0.00  0.00    +0.000 OA
ENDBRANCH  18  25
BRANCH  23  26
ATOM     26  O   UNL     1       5.701   5.096  14.946  0.00  0.00    +0.000 OA
ATOM     27  C   UNL     1       6.323   4.184  14.057  0.00  0.00    +0.000 C 
ENDBRANCH  23  26
ENDBRANCH  17  21
ENDBRANCH  16  17
ENDBRANCH   1  16
TORSDOF 9
ENDMDL
MODEL 3
REMARK VINA RESULT:      -6.5      0.976      2.028
REMARK  Name = 
REMARK  15 active torsions:
REMARK  status: ('A' for Active; 'I' for Inactive)
REMARK    1  A    between atoms: C_1  and  O_2
REMARK    2  A    between atoms: O_2  and  C_3
REMARK    3  A    between atoms: C_6  and  C_7
REMARK    4  A    between atoms: C_7  and  C_8
REMARK    5  A    between atoms: C_8  and  N_9
REMARK    6  A    between atoms: N_9  and  C_10
REMARK    7  A    between atoms: C_10  and  C_11
REMARK    8  A    between atoms: C_10  and  C_12
REMARK    9  A    between atoms: C_12  and  O_13
REMARK   10  A    between atoms: O_13  and  C_14
REMARK   11  A    between atoms: C_15  and  C_16
REMARK   12  A    between atoms: C_18  and  C_19
REMARK   13  A    between atoms: C_21  and  C_22
REMARK   14  A    between atoms: C_24  and  O_25
REMARK   15  A    between atoms: O_25  and  C_26
REMARK                            x       y       z     vdW  Elec       q    Type
REMARK                         _______ _______ _______ _____ _____    ______ ____
ROOT
ATOM      1  N   UNL     1       1.369   2.839  19.758  0.00  0.00    +0.000 NA
ATOM      2  H   UNL     1       0.912   2.122  20.322  0.00  0.00    +0.000 HD
ENDROOT
BRANCH   1   3
ATOM      3  C   UNL     1       1.294   4.136  20.467  0.00  0.00    +0.000 C 
ATOM      4  C   UNL     1       2.307   4.205  21.631  0.00  0.00    +0.000 C 
BRANCH   3   5
ATOM      5  C   UNL     1       1.488   5.394  19.581  0.00  0.00    +0.000 C 
BRANCH   5   6
ATOM      6  O   UNL     1       2.167   6.468  20.247  0.00  0.00    +0.000 OA
BRANCH   6   7
ATOM      7  C   UNL     1       1.891   7.715  19.720  0.00  0.00    +0.000 A 
ATOM      8  C   UNL     1       2.370   8.177  18.479  0.00  0.00    +0.000 A 
ATOM      9  C   UNL     1       3.097   7.339  17.467  0.00  0.00    +0.000 C 
ATOM     10  C   UNL     1       2.151   9.523  18.117  0.00  0.00    +0.000 A 
ATOM     11  C   UNL     1       1.388  10.376  18.911  0.00  0.00    +0.000 A 
ATOM     12  C   UNL     1       1.155  11.799  18.505  0.00  0.00    +0.000 C 
ATOM     13  C   UNL     1       0.800   9.865  20.071  0.00  0.00    +0.000 A 
ATOM     14  C   UNL     1       1.040   8.542  20.486  0.00  0.00    +0.000 A 
ATOM     15  C   UNL     1       0.331   8.038  21.715  0.00  0.00    +0.000 C 
ENDBRANCH   6   7
ENDBRANCH   5   6
ENDBRANCH   3   5
ENDBRANCH   1   3
BRANCH   1  16
ATOM     16  C   UNL     1       2.730   2.402  19.431  0.00  0.00    +0.000 C 
BRANCH  16  17
ATOM     17  C   UNL     1       3.031   2.499  17.925  0.00  0.00    +0.000 C 
BRANCH  17  21
ATOM     18  C   UNL     1       6.382   5.130  17.182  0.00  0.00    +0.000 A 
ATOM     19  C   UNL     1       6.040   4.765  18.496  0.00  0.00    +0.000 A 
ATOM     20  C   UNL     1       4.934   3.949  18.750  0.00  0.00    +0.000 A 
ATOM     21  C   UNL     1       4.130   3.512  17.699  0.00  0.00    +0.000 A 
ATOM     22  C   UNL     1       4.426   3.948  16.401  0.00  0.00    +0.000 A 
ATOM     23  C   UNL     1       5.538   4.756  16.126  0.00  0.00    +0.000 A 
BRANCH  18  25
ATOM     24  C   UNL     1       7.556   7.169  17.490  0.00  0.00    +0.000 C 
ATOM     25  O   UNL     1       7.511   5.862  16.920  0.00  0.00    +0.000 OA
ENDBRANCH  18  25
BRANCH  23  26
ATOM     26  O   UNL     1       5.647   5.036  14.791  0.00  0.00    +0.000 OA
ATOM     27  C   UNL     1       6.874   4.782  14.127  0.00  0.00    +0.000 C 
ENDBRANCH  23  26
ENDBRANCH  17  21
ENDBRANCH  16  17
ENDBRANCH   1  16
TORSDOF 9
ENDMDL
MODEL 4
REMARK VINA RESULT:      -6.5      3.130      5.019
REMARK  Name = 
REMARK  15 active torsions:
REMARK  status: ('A' for Active; 'I' for Inactive)
REMARK    1  A    between atoms: C_1  and  O_2
REMARK    2  A    between atoms: O_2  and  C_3
REMARK    3  A    between atoms: C_6  and  C_7
REMARK    4  A    between atoms: C_7  and  C_8
REMARK    5  A    between atoms: C_8  and  N_9
REMARK    6  A    between atoms: N_9  and  C_10
REMARK    7  A    between atoms: C_10  and  C_11
REMARK    8  A    between atoms: C_10  and  C_12
REMARK    9  A    between atoms: C_12  and  O_13
REMARK   10  A    between atoms: O_13  and  C_14
REMARK   11  A    between atoms: C_15  and  C_16
REMARK   12  A    between atoms: C_18  and  C_19
REMARK   13  A    between atoms: C_21  and  C_22
REMARK   14  A    between atoms: C_24  and  O_25
REMARK   15  A    between atoms: O_25  and  C_26
REMARK                            x       y       z     vdW  Elec       q    Type
REMARK                         _______ _______ _______ _____ _____    ______ ____
ROOT
ATOM      1  N   UNL     1       1.136   8.978  17.708  0.00  0.00    +0.000 NA
ATOM      2  H   UNL     1       0.543   8.156  17.830  0.00  0.00    +0.000 HD
ENDROOT
BRANCH   1   3
ATOM      3  C   UNL     1       0.640  10.067  18.579  0.00  0.00    +0.000 C 
ATOM      4  C   UNL     1      -0.823  10.435  18.249  0.00  0.00    +0.000 C 
BRANCH   3   5
ATOM      5  C   UNL     1       0.741   9.802  20.103  0.00  0.00    +0.000 C 
BRANCH   5   6
ATOM      6  O   UNL     1       0.993  10.982  20.877  0.00  0.00    +0.000 OA
BRANCH   6   7
ATOM      7  C   UNL     1      -0.103  11.426  21.594  0.00  0.00    +0.000 A 
ATOM      8  C   UNL     1      -0.649  10.756  22.705  0.00  0.00    +0.000 A 
ATOM      9  C   UNL     1      -0.033   9.567  23.386  0.00  0.00    +0.000 C 
ATOM     10  C   UNL     1      -1.860  11.221  23.259  0.00  0.00    +0.000 A 
ATOM     11  C   UNL     1      -2.473  12.383  22.798  0.00  0.00    +0.000 A 
ATOM     12  C   UNL     1      -3.752  12.870  23.407  0.00  0.00    +0.000 C 
ATOM     13  C   UNL     1      -1.845  13.117  21.789  0.00  0.00    +0.000 A 
ATOM     14  C   UNL     1      -0.664  12.655  21.180  0.00  0.00    +0.000 A 
ATOM     15  C   UNL     1      -0.009  13.520  20.137  0.00  0.00    +0.000 C 
ENDBRANCH   6   7
ENDBRANCH   5   6
ENDBRANCH   3   5
ENDBRANCH   1   3
BRANCH   1  16
ATOM     16  C   UNL     1       2.535   8.603  17.940  0.00  0.00    +0.000 C 
BRANCH  16  17
ATOM     17  C   UNL     1       2.668   7.226  18.613  0.00  0.00    +0.000 C 
BRANCH  17  21
ATOM     18  C   UNL     1       5.203   4.558  16.341  0.00  0.00    +0.000 A 
ATOM     19  C   UNL     1       5.284   5.948  16.155  0.00  0.00    +0.000 A 
ATOM     20  C   UNL     1       4.441   6.817  16.854  0.00  0.00    +0.000 A 
ATOM     21  C   UNL     1       3.478   6.310  17.724  0.00  0.00    +0.000 A 
ATOM     22  C   UNL     1       3.345   4.920  17.842  0.00  0.00    +0.000 A 
ATOM     23  C   UNL     1       4.189   4.035  17.159  0.00  0.00    +0.000 A 
BRANCH  18  25
ATOM     24  C   UNL     1       6.257   3.901  14.320  0.00  0.00    +0.000 C 
ATOM     25  O   UNL     1       6.080   3.706  15.722  0.00  0.00    +0.000 OA
ENDBRANCH  18  25
BRANCH  23  26
ATOM     26  O   UNL     1       3.896   2.729  17.444  0.00  0.00    +0.000 OA
ATOM     27  C   UNL     1       2.549   2.356  17.684  0.00  0.00    +0.000 C 
ENDBRANCH  23  26
ENDBRANCH  17  21
ENDBRANCH  16  17
ENDBRANCH   1  16
TORSDOF 9
ENDMDL
MODEL 5
REMARK VINA RESULT:      -6.4      1.340      2.615
REMARK  Name = 
REMARK  15 active torsions:
REMARK  status: ('A' for Active; 'I' for Inactive)
REMARK    1  A    between atoms: C_1  and  O_2
REMARK    2  A    between atoms: O_2  and  C_3
REMARK    3  A    between atoms: C_6  and  C_7
REMARK    4  A    between atoms: C_7  and  C_8
REMARK    5  A    between atoms: C_8  and  N_9
REMARK    6  A    between atoms: N_9  and  C_10
REMARK    7  A    between atoms: C_10  and  C_11
REMARK    8  A    between atoms: C_10  and  C_12
REMARK    9  A    between atoms: C_12  and  O_13
REMARK   10  A    between atoms: O_13  and  C_14
REMARK   11  A    between atoms: C_15  and  C_16
REMARK   12  A    between atoms: C_18  and  C_19
REMARK   13  A    between atoms: C_21  and  C_22
REMARK   14  A    between atoms: C_24  and  O_25
REMARK   15  A    between atoms: O_25  and  C_26
REMARK                            x       y       z     vdW  Elec       q    Type
REMARK                         _______ _______ _______ _____ _____    ______ ____
ROOT
ATOM      1  N   UNL     1       2.566   4.868  20.778  0.00  0.00    +0.000 NA
ATOM      2  H   UNL     1       3.462   4.901  21.265  0.00  0.00    +0.000 HD
ENDROOT
BRANCH   1   3
ATOM      3  C   UNL     1       2.382   6.125  20.017  0.00  0.00    +0.000 C 
ATOM      4  C   UNL     1       1.946   5.848  18.562  0.00  0.00    +0.000 C 
BRANCH   3   5
ATOM      5  C   UNL     1       1.387   7.140  20.636  0.00  0.00    +0.000 C 
BRANCH   5   6
ATOM      6  O   UNL     1       1.850   8.496  20.598  0.00  0.00    +0.000 OA
BRANCH   6   7
ATOM      7  C   UNL     1       0.865   9.415  20.286  0.00  0.00    +0.000 A 
ATOM      8  C   UNL     1      -0.021   9.978  21.225  0.00  0.00    +0.000 A 
ATOM      9  C   UNL     1       0.076   9.809  22.714  0.00  0.00    +0.000 C 
ATOM     10  C   UNL     1      -1.083  10.785  20.767  0.00  0.00    +0.000 A 
ATOM     11  C   UNL     1      -1.217  11.119  19.422  0.00  0.00    +0.000 A 
ATOM     12  C   UNL     1      -2.344  11.988  18.955  0.00  0.00    +0.000 C 
ATOM     13  C   UNL     1      -0.249  10.670  18.520  0.00  0.00    +0.000 A 
ATOM     14  C   UNL     1       0.795   9.822  18.935  0.00  0.00    +0.000 A 
ATOM     15  C   UNL     1       1.835   9.419  17.925  0.00  0.00    +0.000 C 
ENDBRANCH   6   7
ENDBRANCH   5   6
ENDBRANCH   3   5
ENDBRANCH   1   3
BRANCH   1  16
ATOM     16  C   UNL     1       2.504   3.649  19.965  0.00  0.00    +0.000 C 
BRANCH  16  17
ATOM     17  C   UNL     1       3.879   2.977  19.812  0.00  0.00    +0.000 C 
BRANCH  17  21
ATOM     18  C   UNL     1       5.744   5.005  16.477  0.00  0.00    +0.000 A 
ATOM     19  C   UNL     1       4.866   3.929  16.257  0.00  0.00    +0.000 A 
ATOM     20  C   UNL     1       4.290   3.240  17.328  0.00  0.00    +0.000 A 
ATOM     21  C   UNL     1       4.609   3.591  18.639  0.00  0.00    +0.000 A 
ATOM     22  C   UNL     1       5.548   4.608  18.852  0.00  0.00    +0.000 A 
ATOM     23  C   UNL     1       6.126   5.317  17.791  0.00  0.00    +0.000 A 
BRANCH  18  25
ATOM     24  C   UNL     1       7.006   5.008  14.468  0.00  0.00    +0.000 C 
ATOM     25  O   UNL     1       6.246   5.736  15.433  0.00  0.00    +0.000 OA
ENDBRANCH  18  25
BRANCH  23  26
ATOM     26  O   UNL     1       6.993   6.280  18.233  0.00  0.00    +0.000 OA
ATOM     27  C   UNL     1       8.036   5.920  19.122  0.00  0.00    +0.000 C 
ENDBRANCH  23  26
ENDBRANCH  17  21
ENDBRANCH  16  17
ENDBRANCH   1  16
TORSDOF 9
ENDMDL
MODEL 6
REMARK VINA RESULT:      -6.3      4.602      7.523
REMARK  Name = 
REMARK  15 active torsions:
REMARK  status: ('A' for Active; 'I' for Inactive)
REMARK    1  A    between atoms: C_1  and  O_2
REMARK    2  A    between atoms: O_2  and  C_3
REMARK    3  A    between atoms: C_6  and  C_7
REMARK    4  A    between atoms: C_7  and  C_8
REMARK    5  A    between atoms: C_8  and  N_9
REMARK    6  A    between atoms: N_9  and  C_10
REMARK    7  A    between atoms: C_10  and  C_11
REMARK    8  A    between atoms: C_10  and  C_12
REMARK    9  A    between atoms: C_12  and  O_13
REMARK   10  A    between atoms: O_13  and  C_14
REMARK   11  A    between atoms: C_15  and  C_16
REMARK   12  A    between atoms: C_18  and  C_19
REMARK   13  A    between atoms: C_21  and  C_22
REMARK   14  A    between atoms: C_24  and  O_25
REMARK   15  A    between atoms: O_25  and  C_26
REMARK                            x       y       z     vdW  Elec       q    Type
REMARK                         _______ _______ _______ _____ _____    ______ ____
ROOT
ATOM      1  N   UNL     1       8.515   7.967  18.628  0.00  0.00    +0.000 NA
ATOM      2  H   UNL     1       8.359   7.923  19.635  0.00  0.00    +0.000 HD
ENDROOT
BRANCH   1   3
ATOM      3  C   UNL     1       7.665   6.955  17.961  0.00  0.00    +0.000 C 
ATOM      4  C   UNL     1       7.687   5.609  18.717  0.00  0.00    +0.000 C 
BRANCH   3   5
ATOM      5  C   UNL     1       6.186   7.364  17.743  0.00  0.00    +0.000 C 
BRANCH   5   6
ATOM      6  O   UNL     1       5.558   6.691  16.643  0.00  0.00    +0.000 OA
BRANCH   6   7
ATOM      7  C   UNL     1       4.483   5.904  17.010  0.00  0.00    +0.000 A 
ATOM      8  C   UNL     1       3.315   6.392  17.626  0.00  0.00    +0.000 A 
ATOM      9  C   UNL     1       2.982   7.844  17.818  0.00  0.00    +0.000 C 
ATOM     10  C   UNL     1       2.352   5.475  18.094  0.00  0.00    +0.000 A 
ATOM     11  C   UNL     1       2.481   4.106  17.872  0.00  0.00    +0.000 A 
ATOM     12  C   UNL     1       1.441   3.147  18.366  0.00  0.00    +0.000 C 
ATOM     13  C   UNL     1       3.575   3.647  17.135  0.00  0.00    +0.000 A 
ATOM     14  C   UNL     1       4.579   4.529  16.697  0.00  0.00    +0.000 A 
ATOM     15  C   UNL     1       5.702   3.978  15.860  0.00  0.00    +0.000 C 
ENDBRANCH   6   7
ENDBRANCH   5   6
ENDBRANCH   3   5
ENDBRANCH   1   3
BRANCH   1  16
ATOM     16  C   UNL     1       8.300   9.342  18.165  0.00  0.00    +0.000 C 
BRANCH  16  17
ATOM     17  C   UNL     1       9.563  10.210  18.302  0.00  0.00    +0.000 C 
BRANCH  17  21
ATOM     18  C   UNL     1       9.080  13.614  20.927  0.00  0.00    +0.000 A 
ATOM     19  C   UNL     1       9.338  12.337  21.455  0.00  0.00    +0.000 A 
ATOM     20  C   UNL     1       9.455  11.223  20.619  0.00  0.00    +0.000 A 
ATOM     21  C   UNL     1       9.280  11.359  19.243  0.00  0.00    +0.000 A 
ATOM     22  C   UNL     1       8.940  12.618  18.730  0.00  0.00    +0.000 A 
ATOM     23  C   UNL     1       8.831  13.747  19.552  0.00  0.00    +0.000 A 
BRANCH  18  25
ATOM     24  C   UNL     1      10.310  15.299  22.056  0.00  0.00    +0.000 C 
ATOM     25  O   UNL     1       9.045  14.722  21.733  0.00  0.00    +0.000 OA
ENDBRANCH  18  25
BRANCH  23  26
ATOM     26  O   UNL     1       8.516  14.871  18.836  0.00  0.00    +0.000 OA
ATOM     27  C   UNL     1       9.558  15.644  18.266  0.00  0.00    +0.000 C 
ENDBRANCH  23  26
ENDBRANCH  17  21
ENDBRANCH  16  17
ENDBRANCH   1  16
TORSDOF 9
ENDMDL
MODEL 7
REMARK VINA RESULT:      -6.3      2.243      3.974
REMARK  Name = 
REMARK  15 active torsions:
REMARK  status: ('A' for Active; 'I' for Inactive)
REMARK    1  A    between atoms: C_1  and  O_2
REMARK    2  A    between atoms: O_2  and  C_3
REMARK    3  A    between atoms: C_6  and  C_7
REMARK    4  A    between atoms: C_7  and  C_8
REMARK    5  A    between atoms: C_8  and  N_9
REMARK    6  A    between atoms: N_9  and  C_10
REMARK    7  A    between atoms: C_10  and  C_11
REMARK    8  A    between atoms: C_10  and  C_12
REMARK    9  A    between atoms: C_12  and  O_13
REMARK   10  A    between atoms: O_13  and  C_14
REMARK   11  A    between atoms: C_15  and  C_16
REMARK   12  A    between atoms: C_18  and  C_19
REMARK   13  A    between atoms: C_21  and  C_22
REMARK   14  A    between atoms: C_24  and  O_25
REMARK   15  A    between atoms: O_25  and  C_26
REMARK                            x       y       z     vdW  Elec       q    Type
REMARK                         _______ _______ _______ _____ _____    ______ ____
ROOT
ATOM      1  N   UNL     1       2.284   7.090  20.048  0.00  0.00    +0.000 NA
ATOM      2  H   UNL     1       3.105   7.132  20.653  0.00  0.00    +0.000 HD
ENDROOT
BRANCH   1   3
ATOM      3  C   UNL     1       2.145   8.377  19.330  0.00  0.00    +0.000 C 
ATOM      4  C   UNL     1       2.093   8.171  17.801  0.00  0.00    +0.000 C 
BRANCH   3   5
ATOM      5  C   UNL     1       0.927   9.243  19.743  0.00  0.00    +0.000 C 
BRANCH   5   6
ATOM      6  O   UNL     1       0.684  10.351  18.866  0.00  0.00    +0.000 OA
BRANCH   6   7
ATOM      7  C   UNL     1      -0.438  11.089  19.194  0.00  0.00    +0.000 A 
ATOM      8  C   UNL     1      -0.468  12.090  20.184  0.00  0.00    +0.000 A 
ATOM      9  C   UNL     1       0.734  12.629  20.906  0.00  0.00    +0.000 C 
ATOM     10  C   UNL     1      -1.705  12.666  20.538  0.00  0.00    +0.000 A 
ATOM     11  C   UNL     1      -2.880  12.343  19.863  0.00  0.00    +0.000 A 
ATOM     12  C   UNL     1      -4.183  12.975  20.244  0.00  0.00    +0.000 C 
ATOM     13  C   UNL     1      -2.812  11.454  18.788  0.00  0.00    +0.000 A 
ATOM     14  C   UNL     1      -1.603  10.822  18.441  0.00  0.00    +0.000 A 
ATOM     15  C   UNL     1      -1.587   9.918  17.238  0.00  0.00    +0.000 C 
ENDBRANCH   6   7
ENDBRANCH   5   6
ENDBRANCH   3   5
ENDBRANCH   1   3
BRANCH   1  16
ATOM     16  C   UNL     1       2.386   5.915  19.177  0.00  0.00    +0.000 C 
BRANCH  16  17
ATOM     17  C   UNL     1       3.617   5.050  19.501  0.00  0.00    +0.000 C 
BRANCH  17  21
ATOM     18  C   UNL     1       5.982   5.109  15.880  0.00  0.00    +0.000 A 
ATOM     19  C   UNL     1       5.259   3.959  16.241  0.00  0.00    +0.000 A 
ATOM     20  C   UNL     1       4.524   3.915  17.429  0.00  0.00    +0.000 A 
ATOM     21  C   UNL     1       4.528   5.006  18.295  0.00  0.00    +0.000 A 
ATOM     22  C   UNL     1       5.318   6.118  17.973  0.00  0.00    +0.000 A 
ATOM     23  C   UNL     1       6.050   6.184  16.780  0.00  0.00    +0.000 A 
BRANCH  18  25
ATOM     24  C   UNL     1       6.352   4.151  13.742  0.00  0.00    +0.000 C 
ATOM     25  O   UNL     1       6.636   5.189  14.678  0.00  0.00    +0.000 OA
ENDBRANCH  18  25
BRANCH  23  26
ATOM     26  O   UNL     1       6.724   7.369  16.661  0.00  0.00    +0.000 OA
ATOM     27  C   UNL     1       7.667   7.734  17.655  0.00  0.00    +0.000 C 
ENDBRANCH  23  26
ENDBRANCH  17  21
ENDBRANCH  16  17
ENDBRANCH   1  16
TORSDOF 9
ENDMDL
MODEL 8
REMARK VINA RESULT:      -6.3      1.999      7.020
REMARK  Name = 
REMARK  15 active torsions:
REMARK  status: ('A' for Active; 'I' for Inactive)
REMARK    1  A    between atoms: C_1  and  O_2
REMARK    2  A    between atoms: O_2  and  C_3
REMARK    3  A    between atoms: C_6  and  C_7
REMARK    4  A    between atoms: C_7  and  C_8
REMARK    5  A    between atoms: C_8  and  N_9
REMARK    6  A    between atoms: N_9  and  C_10
REMARK    7  A    between atoms: C_10  and  C_11
REMARK    8  A    between atoms: C_10  and  C_12
REMARK    9  A    between atoms: C_12  and  O_13
REMARK   10  A    between atoms: O_13  and  C_14
REMARK   11  A    between atoms: C_15  and  C_16
REMARK   12  A    between atoms: C_18  and  C_19
REMARK   13  A    between atoms: C_21  and  C_22
REMARK   14  A    between atoms: C_24  and  O_25
REMARK   15  A    between atoms: O_25  and  C_26
REMARK                            x       y       z     vdW  Elec       q    Type
REMARK                         _______ _______ _______ _____ _____    ______ ____
ROOT
ATOM      1  N   UNL     1       1.777   4.317  20.154  0.00  0.00    +0.000 NA
ATOM      2  H   UNL     1       1.762   4.237  19.136  0.00  0.00    +0.000 HD
ENDROOT
BRANCH   1   3
ATOM      3  C   UNL     1       3.008   3.679  20.673  0.00  0.00    +0.000 C 
ATOM      4  C   UNL     1       2.686   2.420  21.505  0.00  0.00    +0.000 C 
BRANCH   3   5
ATOM      5  C   UNL     1       4.063   3.297  19.603  0.00  0.00    +0.000 C 
BRANCH   5   6
ATOM      6  O   UNL     1       5.051   4.312  19.380  0.00  0.00    +0.000 OA
BRANCH   6   7
ATOM      7  C   UNL     1       5.415   4.456  18.054  0.00  0.00    +0.000 A 
ATOM      8  C   UNL     1       4.573   4.167  16.963  0.00  0.00    +0.000 A 
ATOM      9  C   UNL     1       3.112   3.831  17.064  0.00  0.00    +0.000 C 
ATOM     10  C   UNL     1       5.105   4.204  15.658  0.00  0.00    +0.000 A 
ATOM     11  C   UNL     1       6.412   4.618  15.415  0.00  0.00    +0.000 A 
ATOM     12  C   UNL     1       6.957   4.664  14.020  0.00  0.00    +0.000 C 
ATOM     13  C   UNL     1       7.193   5.039  16.495  0.00  0.00    +0.000 A 
ATOM     14  C   UNL     1       6.711   4.966  17.814  0.00  0.00    +0.000 A 
ATOM     15  C   UNL     1       7.582   5.486  18.925  0.00  0.00    +0.000 C 
ENDBRANCH   6   7
ENDBRANCH   5   6
ENDBRANCH   3   5
ENDBRANCH   1   3
BRANCH   1  16
ATOM     16  C   UNL     1       1.616   5.725  20.529  0.00  0.00    +0.000 C 
BRANCH  16  17
ATOM     17  C   UNL     1       2.472   6.664  19.661  0.00  0.00    +0.000 C 
BRANCH  17  21
ATOM     18  C   UNL     1       0.495  10.507  19.841  0.00  0.00    +0.000 A 
ATOM     19  C   UNL     1       0.913   9.977  18.608  0.00  0.00    +0.000 A 
ATOM     20  C   UNL     1       1.589   8.756  18.542  0.00  0.00    +0.000 A 
ATOM     21  C   UNL     1       1.891   8.059  19.711  0.00  0.00    +0.000 A 
ATOM     22  C   UNL     1       1.547   8.631  20.942  0.00  0.00    +0.000 A 
ATOM     23  C   UNL     1       0.858   9.848  21.026  0.00  0.00    +0.000 A 
BRANCH  18  25
ATOM     24  C   UNL     1      -0.037  12.592  18.842  0.00  0.00    +0.000 C 
ATOM     25  O   UNL     1      -0.240  11.662  19.905  0.00  0.00    +0.000 OA
ENDBRANCH  18  25
BRANCH  23  26
ATOM     26  O   UNL     1       0.603  10.202  22.324  0.00  0.00    +0.000 OA
ATOM     27  C   UNL     1      -0.639   9.847  22.908  0.00  0.00    +0.000 C 
ENDBRANCH  23  26
ENDBRANCH  17  21
ENDBRANCH  16  17
ENDBRANCH   1  16
TORSDOF 9
ENDMDL
MODEL 9
REMARK VINA RESULT:      -6.3      1.338      2.534
REMARK  Name = 
REMARK  15 active torsions:
REMARK  status: ('A' for Active; 'I' for Inactive)
REMARK    1  A    between atoms: C_1  and  O_2
REMARK    2  A    between atoms: O_2  and  C_3
REMARK    3  A    between atoms: C_6  and  C_7
REMARK    4  A    between atoms: C_7  and  C_8
REMARK    5  A    between atoms: C_8  and  N_9
REMARK    6  A    between atoms: N_9  and  C_10
REMARK    7  A    between atoms: C_10  and  C_11
REMARK    8  A    between atoms: C_10  and  C_12
REMARK    9  A    between atoms: C_12  and  O_13
REMARK   10  A    between atoms: O_13  and  C_14
REMARK   11  A    between atoms: C_15  and  C_16
REMARK   12  A    between atoms: C_18  and  C_19
REMARK   13  A    between atoms: C_21  and  C_22
REMARK   14  A    between atoms: C_24  and  O_25
REMARK   15  A    between atoms: O_25  and  C_26
REMARK                            x       y       z     vdW  Elec       q    Type
REMARK                         _______ _______ _______ _____ _____    ______ ____
ROOT
ATOM      1  N   UNL     1       3.034   5.824  19.276  0.00  0.00    +0.000 NA
ATOM      2  H   UNL     1       2.814   5.576  18.311  0.00  0.00    +0.000 HD
ENDROOT
BRANCH   1   3
ATOM      3  C   UNL     1       1.849   5.565  20.125  0.00  0.00    +0.000 C 
ATOM      4  C   UNL     1       2.118   4.437  21.145  0.00  0.00    +0.000 C 
BRANCH   3   5
ATOM      5  C   UNL     1       1.298   6.793  20.895  0.00  0.00    +0.000 C 
BRANCH   5   6
ATOM      6  O   UNL     1       1.932   8.029  20.536  0.00  0.00    +0.000 OA
BRANCH   6   7
ATOM      7  C   UNL     1       1.045   9.042  20.224  0.00  0.00    +0.000 A 
ATOM      8  C   UNL     1       0.249   9.720  21.167  0.00  0.00    +0.000 A 
ATOM      9  C   UNL     1       0.365   9.575  22.658  0.00  0.00    +0.000 C 
ATOM     10  C   UNL     1      -0.731  10.626  20.713  0.00  0.00    +0.000 A 
ATOM     11  C   UNL     1      -0.861  10.942  19.363  0.00  0.00    +0.000 A 
ATOM     12  C   UNL     1      -1.899  11.918  18.900  0.00  0.00    +0.000 C 
ATOM     13  C   UNL     1       0.029  10.369  18.451  0.00  0.00    +0.000 A 
ATOM     14  C   UNL     1       0.984   9.422  18.865  0.00  0.00    +0.000 A 
ATOM     15  C   UNL     1       1.949   8.885  17.842  0.00  0.00    +0.000 C 
ENDBRANCH   6   7
ENDBRANCH   5   6
ENDBRANCH   3   5
ENDBRANCH   1   3
BRANCH   1  16
ATOM     16  C   UNL     1       4.247   5.114  19.692  0.00  0.00    +0.000 C 
BRANCH  16  17
ATOM     17  C   UNL     1       4.494   3.841  18.864  0.00  0.00    +0.000 C 
BRANCH  17  21
ATOM     18  C   UNL     1       6.296   5.168  15.163  0.00  0.00    +0.000 A 
ATOM     19  C   UNL     1       5.397   4.088  15.171  0.00  0.00    +0.000 A 
ATOM     20  C   UNL     1       4.841   3.624  16.366  0.00  0.00    +0.000 A 
ATOM     21  C   UNL     1       5.200   4.209  17.579  0.00  0.00    +0.000 A 
ATOM     22  C   UNL     1       6.160   5.229  17.574  0.00  0.00    +0.000 A 
ATOM     23  C   UNL     1       6.719   5.714  16.384  0.00  0.00    +0.000 A 
BRANCH  18  25
ATOM     24  C   UNL     1       7.657   4.829  13.249  0.00  0.00    +0.000 C 
ATOM     25  O   UNL     1       6.781   5.679  13.987  0.00  0.00    +0.000 OA
ENDBRANCH  18  25
BRANCH  23  26
ATOM     26  O   UNL     1       7.612   6.726  16.616  0.00  0.00    +0.000 OA
ATOM     27  C   UNL     1       7.753   7.240  17.929  0.00  0.00    +0.000 C 
ENDBRANCH  23  26
ENDBRANCH  17  21
ENDBRANCH  16  17
ENDBRANCH   1  16
TORSDOF 9
ENDMDL
