MODEL 1
REMARK VINA RESULT:      -7.9      0.000      0.000
REMARK  Name = 
REMARK  5 active torsions:
REMARK  status: ('A' for Active; 'I' for Inactive)
REMARK    1  A    between atoms: C_1  and  N_2
REMARK    2  A    between atoms: C_3  and  C_5
REMARK    3  A    between atoms: C_8  and  C_9
REMARK    4  A    between atoms: C_15  and  N_16
REMARK    5  A    between atoms: C_20  and  C_21
REMARK                            x       y       z     vdW  Elec       q    Type
REMARK                         _______ _______ _______ _____ _____    ______ ____
ROOT
ATOM      1  C   UNL     1       2.169   5.948  19.897  0.00  0.00    +0.000 C 
ATOM      2  O   UNL     1       1.599   5.607  20.934  0.00  0.00    +0.000 OA
ATOM      3  N   UNL     1       2.928   5.044  19.143  0.00  0.00    +0.000 N 
ATOM      4  C   UNL     1       2.783   3.614  19.426  0.00  0.00    +0.000 C 
ATOM      5  C   UNL     1       4.138   2.962  19.674  0.00  0.00    +0.000 C 
ATOM      6  C   UNL     1       5.080   3.179  18.491  0.00  0.00    +0.000 C 
ATOM      7  C   UNL     1       5.201   4.670  18.148  0.00  0.00    +0.000 C 
ATOM      8  C   UNL     1       3.831   5.360  18.029  0.00  0.00    +0.000 C 
ENDROOT
BRANCH   1  12
ATOM      9  C   UNL     1       1.546  10.024  18.897  0.00  0.00    +0.000 A 
ATOM     10  C   UNL     1       2.056   9.191  17.908  0.00  0.00    +0.000 A 
ATOM     11  C   UNL     1       2.242   7.842  18.200  0.00  0.00    +0.000 A 
ATOM     12  C   UNL     1       1.997   7.369  19.488  0.00  0.00    +0.000 A 
ATOM     13  C   UNL     1       1.462   8.276  20.406  0.00  0.00    +0.000 A 
ATOM     14  N   UNL     1       1.228   9.595  20.147  0.00  0.00    +0.000 NA
BRANCH   9  17
ATOM     15  C   UNL     1      -0.394  13.191  18.154  0.00  0.00    +0.000 C 
ATOM     16  N   UNL     1      -0.026  11.853  18.537  0.00  0.00    +0.000 N 
ATOM     17  C   UNL     1       1.296  11.461  18.559  0.00  0.00    +0.000 C 
ATOM     18  O   UNL     1       2.228  12.216  18.304  0.00  0.00    +0.000 OA
ATOM     19  H   UNL     1      -0.727  11.141  18.726  0.00  0.00    +0.000 HD
ENDBRANCH   9  17
ENDBRANCH   1  12
BRANCH   7  20
ATOM     20  N   UNL     1       5.992   4.903  16.942  0.00  0.00    +0.000 N 
ATOM     21  C   UNL     1       5.852   4.230  15.755  0.00  0.00    +0.000 A 
ATOM     22  C   UNL     1       6.745   4.818  14.895  0.00  0.00    +0.000 A 
ATOM     23  N   UNL     1       7.415   5.831  15.520  0.00  0.00    +0.000 NA
ATOM     24  C   UNL     1       6.954   5.872  16.754  0.00  0.00    +0.000 A 
ATOM     25  C   UNL     1       7.397   6.830  17.798  0.00  0.00    +0.000 C 
ENDBRANCH   7  20
TORSDOF 3
ENDMDL
MODEL 2
REMARK VINA RESULT:      -7.3      1.073      1.097
REMARK  Name = 
REMARK  5 active torsions:
REMARK  status: ('A' for Active; 'I' for Inactive)
REMARK    1  A    between atoms: C_1  and  N_2
REMARK    2  A    between atoms: C_3  and  C_5
REMARK    3  A    between atoms: C_8  and  C_9
REMARK    4  A    between atoms: C_15  and  N_16
REMARK    5  A    between atoms: C_20  and  C_21
REMARK                            x       y       z     vdW  Elec       q    Type
REMARK                         _______ _______ _______ _____ _____    ______ ____
ROOT
ATOM      1  C   UNL     1       1.963   5.751  19.940  0.00  0.00    +0.000 C 
ATOM      2  O   UNL     1       1.393   5.432  20.984  0.00  0.00    +0.000 OA
ATOM      3  N   UNL     1       2.655   4.813  19.163  0.00  0.00    +0.000 N 
ATOM      4  C   UNL     1       2.433   3.391  19.436  0.00  0.00    +0.000 C 
ATOM      5  C   UNL     1       3.753   2.659  19.651  0.00  0.00    +0.000 C 
ATOM      6  C   UNL     1       4.684   2.835  18.453  0.00  0.00    +0.000 C 
ATOM      7  C   UNL     1       4.884   4.321  18.122  0.00  0.00    +0.000 C 
ATOM      8  C   UNL     1       3.554   5.089  18.036  0.00  0.00    +0.000 C 
ENDROOT
BRANCH   1  12
ATOM      9  C   UNL     1       1.546   9.863  18.982  0.00  0.00    +0.000 A 
ATOM     10  C   UNL     1       2.074   9.027  18.006  0.00  0.00    +0.000 A 
ATOM     11  C   UNL     1       2.193   7.667  18.283  0.00  0.00    +0.000 A 
ATOM     12  C   UNL     1       1.866   7.184  19.548  0.00  0.00    +0.000 A 
ATOM     13  C   UNL     1       1.320   8.097  20.455  0.00  0.00    +0.000 A 
ATOM     14  N   UNL     1       1.149   9.427  20.208  0.00  0.00    +0.000 NA
BRANCH   9  17
ATOM     15  C   UNL     1       2.432  13.356  17.818  0.00  0.00    +0.000 C 
ATOM     16  N   UNL     1       2.461  11.946  18.104  0.00  0.00    +0.000 N 
ATOM     17  C   UNL     1       1.368  11.314  18.658  0.00  0.00    +0.000 C 
ATOM     18  O   UNL     1       0.308  11.883  18.897  0.00  0.00    +0.000 OA
ATOM     19  H   UNL     1       3.306  11.395  17.981  0.00  0.00    +0.000 HD
ENDBRANCH   9  17
ENDBRANCH   1  12
BRANCH   7  20
ATOM     20  N   UNL     1       5.666   4.520  16.904  0.00  0.00    +0.000 N 
ATOM     21  C   UNL     1       5.151   4.646  15.639  0.00  0.00    +0.000 A 
ATOM     22  C   UNL     1       6.232   4.882  14.827  0.00  0.00    +0.000 A 
ATOM     23  N   UNL     1       7.384   4.913  15.562  0.00  0.00    +0.000 NA
ATOM     24  C   UNL     1       7.030   4.692  16.812  0.00  0.00    +0.000 A 
ATOM     25  C   UNL     1       7.964   4.644  17.966  0.00  0.00    +0.000 C 
ENDBRANCH   7  20
TORSDOF 3
ENDMDL
MODEL 3
REMARK VINA RESULT:      -7.2      2.453      4.427
REMARK  Name = 
REMARK  5 active torsions:
REMARK  status: ('A' for Active; 'I' for Inactive)
REMARK    1  A    between atoms: C_1  and  N_2
REMARK    2  A    between atoms: C_3  and  C_5
REMARK    3  A    between atoms: C_8  and  C_9
REMARK    4  A    between atoms: C_15  and  N_16
REMARK    5  A    between atoms: C_20  and  C_21
REMARK                            x       y       z     vdW  Elec       q    Type
REMARK                         _______ _______ _______ _____ _____    ______ ____
ROOT
ATOM      1  C   UNL     1       2.726   7.935  18.052  0.00  0.00    +0.000 C 
ATOM      2  O   UNL     1       2.705   8.615  17.025  0.00  0.00    +0.000 OA
ATOM      3  N   UNL     1       3.493   6.768  18.146  0.00  0.00    +0.000 N 
ATOM      4  C   UNL     1       4.515   6.527  17.124  0.00  0.00    +0.000 C 
ATOM      5  C   UNL     1       4.355   5.146  16.500  0.00  0.00    +0.000 C 
ATOM      6  C   UNL     1       4.396   4.051  17.564  0.00  0.00    +0.000 C 
ATOM      7  C   UNL     1       3.366   4.317  18.671  0.00  0.00    +0.000 C 
ATOM      8  C   UNL     1       3.440   5.756  19.209  0.00  0.00    +0.000 C 
ENDROOT
BRANCH   1  12
ATOM      9  C   UNL     1       0.372   9.542  21.195  0.00  0.00    +0.000 A 
ATOM     10  C   UNL     1       1.032   8.344  21.436  0.00  0.00    +0.000 A 
ATOM     11  C   UNL     1       1.837   7.809  20.431  0.00  0.00    +0.000 A 
ATOM     12  C   UNL     1       1.900   8.432  19.187  0.00  0.00    +0.000 A 
ATOM     13  C   UNL     1       1.222   9.645  19.049  0.00  0.00    +0.000 A 
ATOM     14  N   UNL     1       0.458  10.222  20.020  0.00  0.00    +0.000 NA
BRANCH   9  17
ATOM     15  C   UNL     1      -1.896  11.995  22.978  0.00  0.00    +0.000 C 
ATOM     16  N   UNL     1      -1.136  11.290  21.980  0.00  0.00    +0.000 N 
ATOM     17  C   UNL     1      -0.444  10.140  22.298  0.00  0.00    +0.000 C 
ATOM     18  O   UNL     1      -0.464   9.627  23.412  0.00  0.00    +0.000 OA
ATOM     19  H   UNL     1      -1.024  11.657  21.039  0.00  0.00    +0.000 HD
ENDBRANCH   9  17
ENDBRANCH   1  12
BRANCH   7  20
ATOM     20  N   UNL     1       3.466   3.358  19.769  0.00  0.00    +0.000 N 
ATOM     21  C   UNL     1       4.529   2.524  20.003  0.00  0.00    +0.000 A 
ATOM     22  C   UNL     1       4.221   1.858  21.163  0.00  0.00    +0.000 A 
ATOM     23  N   UNL     1       3.010   2.270  21.644  0.00  0.00    +0.000 NA
ATOM     24  C   UNL     1       2.564   3.173  20.794  0.00  0.00    +0.000 A 
ATOM     25  C   UNL     1       1.276   3.901  20.922  0.00  0.00    +0.000 C 
ENDBRANCH   7  20
TORSDOF 3
ENDMDL
MODEL 4
REMARK VINA RESULT:      -7.1      0.608      1.015
REMARK  Name = 
REMARK  5 active torsions:
REMARK  status: ('A' for Active; 'I' for Inactive)
REMARK    1  A    between atoms: C_1  and  N_2
REMARK    2  A    between atoms: C_3  and  C_5
REMARK    3  A    between atoms: C_8  and  C_9
REMARK    4  A    between atoms: C_15  and  N_16
REMARK    5  A    between atoms: C_20  and  C_21
REMARK                            x       y       z     vdW  Elec       q    Type
REMARK                         _______ _______ _______ _____ _____    ______ ____
ROOT
ATOM      1  C   UNL     1       2.123   5.746  20.113  0.00  0.00    +0.000 C 
ATOM      2  O   UNL     1       1.591   5.345  21.149  0.00  0.00    +0.000 OA
ATOM      3  N   UNL     1       2.895   4.901  19.308  0.00  0.00    +0.000 N 
ATOM      4  C   UNL     1       2.809   3.456  19.539  0.00  0.00    +0.000 C 
ATOM      5  C   UNL     1       4.193   2.846  19.730  0.00  0.00    +0.000 C 
ATOM      6  C   UNL     1       5.097   3.143  18.535  0.00  0.00    +0.000 C 
ATOM      7  C   UNL     1       5.155   4.649  18.247  0.00  0.00    +0.000 C 
ATOM      8  C   UNL     1       3.759   5.291  18.186  0.00  0.00    +0.000 C 
ENDROOT
BRANCH   1  12
ATOM      9  C   UNL     1       1.598   9.795  18.957  0.00  0.00    +0.000 A 
ATOM     10  C   UNL     1       1.201   9.437  20.240  0.00  0.00    +0.000 A 
ATOM     11  C   UNL     1       1.390   8.121  20.656  0.00  0.00    +0.000 A 
ATOM     12  C   UNL     1       1.889   7.175  19.763  0.00  0.00    +0.000 A 
ATOM     13  C   UNL     1       2.284   7.635  18.505  0.00  0.00    +0.000 A 
ATOM     14  N   UNL     1       2.153   8.922  18.074  0.00  0.00    +0.000 NA
BRANCH   9  17
ATOM     15  C   UNL     1      -0.109  13.090  18.205  0.00  0.00    +0.000 C 
ATOM     16  N   UNL     1       0.175  11.751  18.648  0.00  0.00    +0.000 N 
ATOM     17  C   UNL     1       1.444  11.223  18.536  0.00  0.00    +0.000 C 
ATOM     18  O   UNL     1       2.403  11.856  18.106  0.00  0.00    +0.000 OA
ATOM     19  H   UNL     1      -0.559  11.132  18.980  0.00  0.00    +0.000 HD
ENDBRANCH   9  17
ENDBRANCH   1  12
BRANCH   7  20
ATOM     20  N   UNL     1       5.909   4.956  17.033  0.00  0.00    +0.000 N 
ATOM     21  C   UNL     1       5.647   4.452  15.785  0.00  0.00    +0.000 A 
ATOM     22  C   UNL     1       6.552   5.058  14.950  0.00  0.00    +0.000 A 
ATOM     23  N   UNL     1       7.347   5.921  15.651  0.00  0.00    +0.000 NA
ATOM     24  C   UNL     1       6.950   5.849  16.906  0.00  0.00    +0.000 A 
ATOM     25  C   UNL     1       7.533   6.627  18.030  0.00  0.00    +0.000 C 
ENDBRANCH   7  20
TORSDOF 3
ENDMDL
MODEL 5
REMARK VINA RESULT:      -7.1      2.995      8.601
REMARK  Name = 
REMARK  5 active torsions:
REMARK  status: ('A' for Active; 'I' for Inactive)
REMARK    1  A    between atoms: C_1  and  N_2
REMARK    2  A    between atoms: C_3  and  C_5
REMARK    3  A    between atoms: C_8  and  C_9
REMARK    4  A    between atoms: C_15  and  N_16
REMARK    5  A    between atoms: C_20  and  C_21
REMARK                            x       y       z     vdW  Elec       q    Type
REMARK                         _______ _______ _______ _____ _____    ______ ____
ROOT
ATOM      1  C   UNL     1       0.819  10.168  20.676  0.00  0.00    +0.000 C 
ATOM      2  O   UNL     1       1.231  10.293  21.829  0.00  0.00    +0.000 OA
ATOM      3  N   UNL     1      -0.109  11.061  20.125  0.00  0.00    +0.000 N 
ATOM      4  C   UNL     1      -0.348  12.327  20.823  0.00  0.00    +0.000 C 
ATOM      5  C   UNL     1      -1.835  12.542  21.078  0.00  0.00    +0.000 C 
ATOM      6  C   UNL     1      -2.632  12.492  19.775  0.00  0.00    +0.000 C 
ATOM      7  C   UNL     1      -2.350  11.193  19.005  0.00  0.00    +0.000 C 
ATOM      8  C   UNL     1      -0.845  10.907  18.865  0.00  0.00    +0.000 C 
ENDROOT
BRANCH   1  12
ATOM      9  C   UNL     1       2.438   6.809  18.651  0.00  0.00    +0.000 A 
ATOM     10  C   UNL     1       2.267   7.978  17.920  0.00  0.00    +0.000 A 
ATOM     11  C   UNL     1       1.766   9.105  18.568  0.00  0.00    +0.000 A 
ATOM     12  C   UNL     1       1.368   9.021  19.900  0.00  0.00    +0.000 A 
ATOM     13  C   UNL     1       1.602   7.811  20.558  0.00  0.00    +0.000 A 
ATOM     14  N   UNL     1       2.128   6.698  19.971  0.00  0.00    +0.000 NA
BRANCH   9  17
ATOM     15  C   UNL     1       2.733   3.260  17.362  0.00  0.00    +0.000 C 
ATOM     16  N   UNL     1       2.242   4.488  17.931  0.00  0.00    +0.000 N 
ATOM     17  C   UNL     1       3.030   5.619  17.963  0.00  0.00    +0.000 C 
ATOM     18  O   UNL     1       4.157   5.670  17.481  0.00  0.00    +0.000 OA
ATOM     19  H   UNL     1       1.338   4.536  18.392  0.00  0.00    +0.000 HD
ENDBRANCH   9  17
ENDBRANCH   1  12
BRANCH   7  20
ATOM     20  N   UNL     1      -2.996  11.170  17.695  0.00  0.00    +0.000 N 
ATOM     21  C   UNL     1      -2.347  11.131  16.488  0.00  0.00    +0.000 A 
ATOM     22  C   UNL     1      -3.339  11.054  15.543  0.00  0.00    +0.000 A 
ATOM     23  N   UNL     1      -4.569  11.036  16.140  0.00  0.00    +0.000 NA
ATOM     24  C   UNL     1      -4.349  11.108  17.437  0.00  0.00    +0.000 A 
ATOM     25  C   UNL     1      -5.405  11.113  18.482  0.00  0.00    +0.000 C 
ENDBRANCH   7  20
TORSDOF 3
ENDMDL
MODEL 6
REMARK VINA RESULT:      -7.0      3.303      6.435
REMARK  Name = 
REMARK  5 active torsions:
REMARK  status: ('A' for Active; 'I' for Inactive)
REMARK    1  A    between atoms: C_1  and  N_2
REMARK    2  A    between atoms: C_3  and  C_5
REMARK    3  A    between atoms: C_8  and  C_9
REMARK    4  A    between atoms: C_15  and  N_16
REMARK    5  A    between atoms: C_20  and  C_21
REMARK                            x       y       z     vdW  Elec       q    Type
REMARK                         _______ _______ _______ _____ _____    ______ ____
ROOT
ATOM      1  C   UNL     1       6.377   5.419  17.496  0.00  0.00    +0.000 C 
ATOM      2  O   UNL     1       6.884   4.628  16.700  0.00  0.00    +0.000 OA
ATOM      3  N   UNL     1       5.155   5.148  18.124  0.00  0.00    +0.000 N 
ATOM      4  C   UNL     1       4.636   3.779  18.068  0.00  0.00    +0.000 C 
ATOM      5  C   UNL     1       3.203   3.755  17.548  0.00  0.00    +0.000 C 
ATOM      6  C   UNL     1       2.292   4.637  18.400  0.00  0.00    +0.000 C 
ATOM      7  C   UNL     1       2.851   6.062  18.513  0.00  0.00    +0.000 C 
ATOM      8  C   UNL     1       4.337   6.082  18.908  0.00  0.00    +0.000 C 
ENDROOT
BRANCH   1  12
ATOM      9  C   UNL     1       8.599   8.908  18.440  0.00  0.00    +0.000 A 
ATOM     10  C   UNL     1       7.704   8.984  17.380  0.00  0.00    +0.000 A 
ATOM     11  C   UNL     1       6.939   7.862  17.068  0.00  0.00    +0.000 A 
ATOM     12  C   UNL     1       7.141   6.669  17.759  0.00  0.00    +0.000 A 
ATOM     13  C   UNL     1       8.044   6.698  18.825  0.00  0.00    +0.000 A 
ATOM     14  N   UNL     1       8.782   7.786  19.188  0.00  0.00    +0.000 NA
BRANCH   9  17
ATOM     15  C   UNL     1      10.191  11.557  20.629  0.00  0.00    +0.000 C 
ATOM     16  N   UNL     1       9.527  10.370  20.156  0.00  0.00    +0.000 N 
ATOM     17  C   UNL     1       9.376  10.134  18.806  0.00  0.00    +0.000 C 
ATOM     18  O   UNL     1       9.824  10.874  17.937  0.00  0.00    +0.000 OA
ATOM     19  H   UNL     1       9.085   9.717  20.796  0.00  0.00    +0.000 HD
ENDBRANCH   9  17
ENDBRANCH   1  12
BRANCH   7  20
ATOM     20  N   UNL     1       2.071   6.896  19.424  0.00  0.00    +0.000 N 
ATOM     21  C   UNL     1       1.614   6.513  20.660  0.00  0.00    +0.000 A 
ATOM     22  C   UNL     1       0.998   7.624  21.180  0.00  0.00    +0.000 A 
ATOM     23  N   UNL     1       1.076   8.670  20.304  0.00  0.00    +0.000 NA
ATOM     24  C   UNL     1       1.724   8.218  19.248  0.00  0.00    +0.000 A 
ATOM     25  C   UNL     1       2.046   9.019  18.040  0.00  0.00    +0.000 C 
ENDBRANCH   7  20
TORSDOF 3
ENDMDL
MODEL 7
REMARK VINA RESULT:      -7.0      2.811      4.920
REMARK  Name = 
REMARK  5 active torsions:
REMARK  status: ('A' for Active; 'I' for Inactive)
REMARK    1  A    between atoms: C_1  and  N_2
REMARK    2  A    between atoms: C_3  and  C_5
REMARK    3  A    between atoms: C_8  and  C_9
REMARK    4  A    between atoms: C_15  and  N_16
REMARK    5  A    between atoms: C_20  and  C_21
REMARK                            x       y       z     vdW  Elec       q    Type
REMARK                         _______ _______ _______ _____ _____    ______ ____
ROOT
ATOM      1  C   UNL     1       2.250   8.679  18.239  0.00  0.00    +0.000 C 
ATOM      2  O   UNL     1       2.462   9.331  17.217  0.00  0.00    +0.000 OA
ATOM      3  N   UNL     1       2.818   7.413  18.435  0.00  0.00    +0.000 N 
ATOM      4  C   UNL     1       3.916   7.004  17.556  0.00  0.00    +0.000 C 
ATOM      5  C   UNL     1       3.634   5.648  16.919  0.00  0.00    +0.000 C 
ATOM      6  C   UNL     1       3.375   4.582  17.981  0.00  0.00    +0.000 C 
ATOM      7  C   UNL     1       2.262   5.020  18.944  0.00  0.00    +0.000 C 
ATOM      8  C   UNL     1       2.479   6.444  19.484  0.00  0.00    +0.000 C 
ENDROOT
BRANCH   1  12
ATOM      9  C   UNL     1      -0.204  10.342  21.275  0.00  0.00    +0.000 A 
ATOM     10  C   UNL     1      -0.488  10.685  19.959  0.00  0.00    +0.000 A 
ATOM     11  C   UNL     1       0.282  10.129  18.940  0.00  0.00    +0.000 A 
ATOM     12  C   UNL     1       1.367   9.315  19.256  0.00  0.00    +0.000 A 
ATOM     13  C   UNL     1       1.559   9.006  20.605  0.00  0.00    +0.000 A 
ATOM     14  N   UNL     1       0.802   9.497  21.628  0.00  0.00    +0.000 NA
BRANCH   9  17
ATOM     15  C   UNL     1      -2.843  12.494  22.932  0.00  0.00    +0.000 C 
ATOM     16  N   UNL     1      -2.002  11.835  21.966  0.00  0.00    +0.000 N 
ATOM     17  C   UNL     1      -1.071  10.898  22.360  0.00  0.00    +0.000 C 
ATOM     18  O   UNL     1      -0.929  10.535  23.523  0.00  0.00    +0.000 OA
ATOM     19  H   UNL     1      -2.015  12.096  20.984  0.00  0.00    +0.000 HD
ENDBRANCH   9  17
ENDBRANCH   1  12
BRANCH   7  20
ATOM     20  N   UNL     1       2.078   4.080  20.047  0.00  0.00    +0.000 N 
ATOM     21  C   UNL     1       2.521   4.264  21.332  0.00  0.00    +0.000 A 
ATOM     22  C   UNL     1       2.070   3.174  22.033  0.00  0.00    +0.000 A 
ATOM     23  N   UNL     1       1.359   2.340  21.216  0.00  0.00    +0.000 NA
ATOM     24  C   UNL     1       1.372   2.897  20.021  0.00  0.00    +0.000 A 
ATOM     25  C   UNL     1       0.713   2.337  18.813  0.00  0.00    +0.000 C 
ENDBRANCH   7  20
TORSDOF 3
ENDMDL
MODEL 8
REMARK VINA RESULT:      -6.9      2.651      4.840
REMARK  Name = 
REMARK  5 active torsions:
REMARK  status: ('A' for Active; 'I' for Inactive)
REMARK    1  A    between atoms: C_1  and  N_2
REMARK    2  A    between atoms: C_3  and  C_5
REMARK    3  A    between atoms: C_8  and  C_9
REMARK    4  A    between atoms: C_15  and  N_16
REMARK    5  A    between atoms: C_20  and  C_21
REMARK                            x       y       z     vdW  Elec       q    Type
REMARK                         _______ _______ _______ _____ _____    ______ ____
ROOT
ATOM      1  C   UNL     1       2.332   8.636  18.183  0.00  0.00    +0.000 C 
ATOM      2  O   UNL     1       2.593   9.287  17.171  0.00  0.00    +0.000 OA
ATOM      3  N   UNL     1       2.908   7.382  18.420  0.00  0.00    +0.000 N 
ATOM      4  C   UNL     1       4.062   6.987  17.610  0.00  0.00    +0.000 C 
ATOM      5  C   UNL     1       3.842   5.622  16.966  0.00  0.00    +0.000 C 
ATOM      6  C   UNL     1       3.539   4.558  18.019  0.00  0.00    +0.000 C 
ATOM      7  C   UNL     1       2.364   4.982  18.911  0.00  0.00    +0.000 C 
ATOM      8  C   UNL     1       2.524   6.413  19.454  0.00  0.00    +0.000 C 
ENDROOT
BRANCH   1  12
ATOM      9  C   UNL     1      -0.377  10.598  20.794  0.00  0.00    +0.000 A 
ATOM     10  C   UNL     1       0.294   9.484  21.284  0.00  0.00    +0.000 A 
ATOM     11  C   UNL     1       1.212   8.839  20.458  0.00  0.00    +0.000 A 
ATOM     12  C   UNL     1       1.380   9.263  19.141  0.00  0.00    +0.000 A 
ATOM     13  C   UNL     1       0.681  10.407  18.749  0.00  0.00    +0.000 A 
ATOM     14  N   UNL     1      -0.195  11.090  19.539  0.00  0.00    +0.000 NA
BRANCH   9  17
ATOM     15  C   UNL     1      -3.020  13.075  21.897  0.00  0.00    +0.000 C 
ATOM     16  N   UNL     1      -2.127  12.266  21.111  0.00  0.00    +0.000 N 
ATOM     17  C   UNL     1      -1.319  11.320  21.706  0.00  0.00    +0.000 C 
ATOM     18  O   UNL     1      -1.337  11.077  22.908  0.00  0.00    +0.000 OA
ATOM     19  H   UNL     1      -2.008  12.419  20.113  0.00  0.00    +0.000 HD
ENDBRANCH   9  17
ENDBRANCH   1  12
BRANCH   7  20
ATOM     20  N   UNL     1       2.130   4.046  20.008  0.00  0.00    +0.000 N 
ATOM     21  C   UNL     1       2.557   4.211  21.301  0.00  0.00    +0.000 A 
ATOM     22  C   UNL     1       2.059   3.134  21.990  0.00  0.00    +0.000 A 
ATOM     23  N   UNL     1       1.336   2.326  21.158  0.00  0.00    +0.000 NA
ATOM     24  C   UNL     1       1.388   2.885  19.965  0.00  0.00    +0.000 A 
ATOM     25  C   UNL     1       0.732   2.351  18.744  0.00  0.00    +0.000 C 
ENDBRANCH   7  20
TORSDOF 3
ENDMDL
MODEL 9
REMARK VINA RESULT:      -6.9      3.038      8.546
REMARK  Name = 
REMARK  5 active torsions:
REMARK  status: ('A' for Active; 'I' for Inactive)
REMARK    1  A    between atoms: C_1  and  N_2
REMARK    2  A    between atoms: C_3  and  C_5
REMARK    3  A    between atoms: C_8  and  C_9
REMARK    4  A    between atoms: C_15  and  N_16
REMARK    5  A    between atoms: C_20  and  C_21
REMARK                            x       y       z     vdW  Elec       q    Type
REMARK                         _______ _______ _______ _____ _____    ______ ____
ROOT
ATOM      1  C   UNL     1       0.718  10.163  20.923  0.00  0.00    +0.000 C 
ATOM      2  O   UNL     1       1.056  10.335  22.095  0.00  0.00    +0.000 OA
ATOM      3  N   UNL     1      -0.160  11.040  20.274  0.00  0.00    +0.000 N 
ATOM      4  C   UNL     1      -0.429  12.337  20.900  0.00  0.00    +0.000 C 
ATOM      5  C   UNL     1      -1.927  12.578  21.046  0.00  0.00    +0.000 C 
ATOM      6  C   UNL     1      -2.637  12.477  19.697  0.00  0.00    +0.000 C 
ATOM      7  C   UNL     1      -2.322  11.144  19.005  0.00  0.00    +0.000 C 
ATOM      8  C   UNL     1      -0.815  10.838  18.976  0.00  0.00    +0.000 C 
ENDROOT
BRANCH   1  12
ATOM      9  C   UNL     1       2.344   6.883  18.778  0.00  0.00    +0.000 A 
ATOM     10  C   UNL     1       1.975   6.666  20.100  0.00  0.00    +0.000 A 
ATOM     11  C   UNL     1       1.410   7.718  20.818  0.00  0.00    +0.000 A 
ATOM     12  C   UNL     1       1.303   8.979  20.236  0.00  0.00    +0.000 A 
ATOM     13  C   UNL     1       1.677   9.092  18.895  0.00  0.00    +0.000 A 
ATOM     14  N   UNL     1       2.196   8.078  18.145  0.00  0.00    +0.000 NA
BRANCH   9  17
ATOM     15  C   UNL     1       2.595   3.395  17.325  0.00  0.00    +0.000 C 
ATOM     16  N   UNL     1       2.131   4.588  17.983  0.00  0.00    +0.000 N 
ATOM     17  C   UNL     1       2.898   5.734  17.995  0.00  0.00    +0.000 C 
ATOM     18  O   UNL     1       3.979   5.829  17.423  0.00  0.00    +0.000 OA
ATOM     19  H   UNL     1       1.268   4.599  18.520  0.00  0.00    +0.000 HD
ENDBRANCH   9  17
ENDBRANCH   1  12
BRANCH   7  20
ATOM     20  N   UNL     1      -2.881  11.069  17.657  0.00  0.00    +0.000 N 
ATOM     21  C   UNL     1      -2.155  11.039  16.494  0.00  0.00    +0.000 A 
ATOM     22  C   UNL     1      -3.080  10.901  15.490  0.00  0.00    +0.000 A 
ATOM     23  N   UNL     1      -4.343  10.837  16.008  0.00  0.00    +0.000 NA
ATOM     24  C   UNL     1      -4.210  10.941  17.316  0.00  0.00    +0.000 A 
ATOM     25  C   UNL     1      -5.330  10.916  18.291  0.00  0.00    +0.000 C 
ENDBRANCH   7  20
TORSDOF 3
ENDMDL
