MODEL 1
REMARK VINA RESULT:      -7.6      0.000      0.000
REMARK  Name = 
REMARK  8 active torsions:
REMARK  status: ('A' for Active; 'I' for Inactive)
REMARK    1  A    between atoms: C_1  and  C_2
REMARK    2  A    between atoms: C_5  and  C_6
REMARK    3  A    between atoms: C_6  and  N_7
REMARK    4  A    between atoms: C_8  and  C_10
REMARK    5  A    between atoms: C_12  and  C_13
REMARK    6  A    between atoms: N_14  and  C_15
REMARK    7  A    between atoms: N_18  and  C_19
REMARK    8  A    between atoms: C_22  and  C_23
REMARK                            x       y       z     vdW  Elec       q    Type
REMARK                         _______ _______ _______ _____ _____    ______ ____
ROOT
ATOM      1  C   UNL     1       5.136   5.927  16.472  0.00  0.00    +0.000 A 
ATOM      2  N   UNL     1       4.552   7.182  16.531  0.00  0.00    +0.000 NA
ATOM      3  C   UNL     1       3.572   7.092  17.409  0.00  0.00    +0.000 A 
ATOM      4  C   UNL     1       2.652   8.201  17.781  0.00  0.00    +0.000 C 
ATOM      5  N   UNL     1       3.501   5.819  17.944  0.00  0.00    +0.000 N 
ATOM      6  C   UNL     1       4.496   5.063  17.349  0.00  0.00    +0.000 A 
ATOM      7  C   UNL     1       4.793   3.627  17.611  0.00  0.00    +0.000 C 
ENDROOT
BRANCH   5   8
ATOM      8  C   UNL     1       2.517   5.367  18.935  0.00  0.00    +0.000 C 
ATOM      9  C   UNL     1       3.110   5.304  20.350  0.00  0.00    +0.000 C 
ATOM     10  C   UNL     1       2.233   4.530  21.327  0.00  0.00    +0.000 C 
ATOM     11  N   UNL     1       1.821   3.240  20.767  0.00  0.00    +0.000 NA
ATOM     12  C   UNL     1       1.092   2.461  21.770  0.00  0.00    +0.000 C 
ATOM     13  C   UNL     1       0.993   3.434  19.574  0.00  0.00    +0.000 C 
ATOM     14  C   UNL     1       1.803   4.093  18.465  0.00  0.00    +0.000 C 
ENDBRANCH   5   8
BRANCH   1  16
ATOM     15  N   UNL     1       5.921   4.761  14.550  0.00  0.00    +0.000 N 
ATOM     16  C   UNL     1       6.265   5.601  15.585  0.00  0.00    +0.000 C 
ATOM     17  O   UNL     1       7.401   6.028  15.748  0.00  0.00    +0.000 OA
ATOM     18  H   UNL     1       4.932   4.569  14.432  0.00  0.00    +0.000 HD
BRANCH  15  19
ATOM     19  C   UNL     1       6.865   4.387  13.528  0.00  0.00    +0.000 C 
BRANCH  19  24
ATOM     20  C   UNL     1       3.178   3.079  10.670  0.00  0.00    +0.000 C 
ATOM     21  C   UNL     1       4.522   2.905  11.253  0.00  0.00    +0.000 A 
ATOM     22  C   UNL     1       5.501   1.950  11.090  0.00  0.00    +0.000 A 
ATOM     23  C   UNL     1       6.578   2.335  11.921  0.00  0.00    +0.000 A 
ATOM     24  C   UNL     1       6.192   3.501  12.548  0.00  0.00    +0.000 A 
ATOM     25  O   UNL     1       4.936   3.853  12.142  0.00  0.00    +0.000 OA
ENDBRANCH  19  24
ENDBRANCH  15  19
ENDBRANCH   1  16
TORSDOF 4
ENDMDL
MODEL 2
REMARK VINA RESULT:      -7.3      0.645      1.137
REMARK  Name = 
REMARK  8 active torsions:
REMARK  status: ('A' for Active; 'I' for Inactive)
REMARK    1  A    between atoms: C_1  and  C_2
REMARK    2  A    between atoms: C_5  and  C_6
REMARK    3  A    between atoms: C_6  and  N_7
REMARK    4  A    between atoms: C_8  and  C_10
REMARK    5  A    between atoms: C_12  and  C_13
REMARK    6  A    between atoms: N_14  and  C_15
REMARK    7  A    between atoms: N_18  and  C_19
REMARK    8  A    between atoms: C_22  and  C_23
REMARK                            x       y       z     vdW  Elec       q    Type
REMARK                         _______ _______ _______ _____ _____    ______ ____
ROOT
ATOM      1  C   UNL     1       5.032   5.897  16.524  0.00  0.00    +0.000 A 
ATOM      2  N   UNL     1       4.486   7.165  16.642  0.00  0.00    +0.000 NA
ATOM      3  C   UNL     1       3.527   7.071  17.543  0.00  0.00    +0.000 A 
ATOM      4  C   UNL     1       2.649   8.191  17.978  0.00  0.00    +0.000 C 
ATOM      5  N   UNL     1       3.433   5.782  18.034  0.00  0.00    +0.000 N 
ATOM      6  C   UNL     1       4.390   5.020  17.387  0.00  0.00    +0.000 A 
ATOM      7  C   UNL     1       4.651   3.568  17.589  0.00  0.00    +0.000 C 
ENDROOT
BRANCH   5   8
ATOM      8  C   UNL     1       2.461   5.323  19.034  0.00  0.00    +0.000 C 
ATOM      9  C   UNL     1       3.074   5.244  20.440  0.00  0.00    +0.000 C 
ATOM     10  C   UNL     1       2.209   4.462  21.422  0.00  0.00    +0.000 C 
ATOM     11  N   UNL     1       1.786   3.179  20.854  0.00  0.00    +0.000 NA
ATOM     12  C   UNL     1       1.069   2.392  21.860  0.00  0.00    +0.000 C 
ATOM     13  C   UNL     1       0.941   3.387  19.675  0.00  0.00    +0.000 C 
ATOM     14  C   UNL     1       1.737   4.055  18.562  0.00  0.00    +0.000 C 
ENDBRANCH   5   8
BRANCH   1  16
ATOM     15  N   UNL     1       5.726   4.806  14.525  0.00  0.00    +0.000 N 
ATOM     16  C   UNL     1       6.127   5.572  15.596  0.00  0.00    +0.000 C 
ATOM     17  O   UNL     1       7.284   5.939  15.757  0.00  0.00    +0.000 OA
ATOM     18  H   UNL     1       4.727   4.664  14.417  0.00  0.00    +0.000 HD
BRANCH  15  19
ATOM     19  C   UNL     1       6.633   4.448  13.463  0.00  0.00    +0.000 C 
BRANCH  19  24
ATOM     20  C   UNL     1       6.184   0.333  10.944  0.00  0.00    +0.000 C 
ATOM     21  C   UNL     1       5.735   1.669  11.381  0.00  0.00    +0.000 A 
ATOM     22  C   UNL     1       4.627   2.432  11.085  0.00  0.00    +0.000 A 
ATOM     23  C   UNL     1       4.758   3.630  11.823  0.00  0.00    +0.000 A 
ATOM     24  C   UNL     1       5.941   3.533  12.524  0.00  0.00    +0.000 A 
ATOM     25  O   UNL     1       6.542   2.334  12.257  0.00  0.00    +0.000 OA
ENDBRANCH  19  24
ENDBRANCH  15  19
ENDBRANCH   1  16
TORSDOF 4
ENDMDL
MODEL 3
REMARK VINA RESULT:      -7.1      1.789      2.455
REMARK  Name = 
REMARK  8 active torsions:
REMARK  status: ('A' for Active; 'I' for Inactive)
REMARK    1  A    between atoms: C_1  and  C_2
REMARK    2  A    between atoms: C_5  and  C_6
REMARK    3  A    between atoms: C_6  and  N_7
REMARK    4  A    between atoms: C_8  and  C_10
REMARK    5  A    between atoms: C_12  and  C_13
REMARK    6  A    between atoms: N_14  and  C_15
REMARK    7  A    between atoms: N_18  and  C_19
REMARK    8  A    between atoms: C_22  and  C_23
REMARK                            x       y       z     vdW  Elec       q    Type
REMARK                         _______ _______ _______ _____ _____    ______ ____
ROOT
ATOM      1  C   UNL     1       6.224   5.300  16.353  0.00  0.00    +0.000 A 
ATOM      2  N   UNL     1       7.268   5.632  17.200  0.00  0.00    +0.000 NA
ATOM      3  C   UNL     1       6.864   5.333  18.420  0.00  0.00    +0.000 A 
ATOM      4  C   UNL     1       7.659   5.543  19.660  0.00  0.00    +0.000 C 
ATOM      5  N   UNL     1       5.589   4.797  18.402  0.00  0.00    +0.000 N 
ATOM      6  C   UNL     1       5.167   4.774  17.084  0.00  0.00    +0.000 A 
ATOM      7  C   UNL     1       3.852   4.287  16.584  0.00  0.00    +0.000 C 
ENDROOT
BRANCH   5   8
ATOM      8  C   UNL     1       4.830   4.373  19.584  0.00  0.00    +0.000 C 
ATOM      9  C   UNL     1       4.591   2.855  19.602  0.00  0.00    +0.000 C 
ATOM     10  C   UNL     1       3.536   2.433  20.617  0.00  0.00    +0.000 C 
ATOM     11  N   UNL     1       2.326   3.252  20.499  0.00  0.00    +0.000 NA
ATOM     12  C   UNL     1       1.281   2.744  21.391  0.00  0.00    +0.000 C 
ATOM     13  C   UNL     1       2.618   4.654  20.807  0.00  0.00    +0.000 C 
ATOM     14  C   UNL     1       3.576   5.237  19.777  0.00  0.00    +0.000 C 
ENDBRANCH   5   8
BRANCH   1  16
ATOM     15  N   UNL     1       7.172   4.682  14.258  0.00  0.00    +0.000 N 
ATOM     16  C   UNL     1       6.269   5.502  14.896  0.00  0.00    +0.000 C 
ATOM     17  O   UNL     1       5.576   6.319  14.303  0.00  0.00    +0.000 OA
ATOM     18  H   UNL     1       7.601   3.955  14.821  0.00  0.00    +0.000 HD
BRANCH  15  19
ATOM     19  C   UNL     1       7.309   4.671  12.823  0.00  0.00    +0.000 C 
BRANCH  19  24
ATOM     20  C   UNL     1       6.114   0.348  10.989  0.00  0.00    +0.000 C 
ATOM     21  C   UNL     1       5.815   1.727  11.422  0.00  0.00    +0.000 A 
ATOM     22  C   UNL     1       4.661   2.478  11.437  0.00  0.00    +0.000 A 
ATOM     23  C   UNL     1       5.010   3.737  11.976  0.00  0.00    +0.000 A 
ATOM     24  C   UNL     1       6.360   3.685  12.254  0.00  0.00    +0.000 A 
ATOM     25  O   UNL     1       6.856   2.456  11.917  0.00  0.00    +0.000 OA
ENDBRANCH  19  24
ENDBRANCH  15  19
ENDBRANCH   1  16
TORSDOF 4
ENDMDL
MODEL 4
REMARK VINA RESULT:      -7.1      1.845      2.607
REMARK  Name = 
REMARK  8 active torsions:
REMARK  status: ('A' for Active; 'I' for Inactive)
REMARK    1  A    between atoms: C_1  and  C_2
REMARK    2  A    between atoms: C_5  and  C_6
REMARK    3  A    between atoms: C_6  and  N_7
REMARK    4  A    between atoms: C_8  and  C_10
REMARK    5  A    between atoms: C_12  and  C_13
REMARK    6  A    between atoms: N_14  and  C_15
REMARK    7  A    between atoms: N_18  and  C_19
REMARK    8  A    between atoms: C_22  and  C_23
REMARK                            x       y       z     vdW  Elec       q    Type
REMARK                         _______ _______ _______ _____ _____    ______ ____
ROOT
ATOM      1  C   UNL     1       6.377   4.846  15.979  0.00  0.00    +0.000 A 
ATOM      2  N   UNL     1       7.422   5.266  16.785  0.00  0.00    +0.000 NA
ATOM      3  C   UNL     1       7.010   5.122  18.030  0.00  0.00    +0.000 A 
ATOM      4  C   UNL     1       7.802   5.472  19.240  0.00  0.00    +0.000 C 
ATOM      5  N   UNL     1       5.728   4.604  18.070  0.00  0.00    +0.000 N 
ATOM      6  C   UNL     1       5.311   4.426  16.763  0.00  0.00    +0.000 A 
ATOM      7  C   UNL     1       3.991   3.897  16.318  0.00  0.00    +0.000 C 
ENDROOT
BRANCH   5   8
ATOM      8  C   UNL     1       4.959   4.336  19.291  0.00  0.00    +0.000 C 
ATOM      9  C   UNL     1       4.649   2.841  19.461  0.00  0.00    +0.000 C 
ATOM     10  C   UNL     1       3.582   2.573  20.516  0.00  0.00    +0.000 C 
ATOM     11  N   UNL     1       2.411   3.433  20.321  0.00  0.00    +0.000 NA
ATOM     12  C   UNL     1       1.351   3.067  21.263  0.00  0.00    +0.000 C 
ATOM     13  C   UNL     1       2.772   4.844  20.487  0.00  0.00    +0.000 C 
ATOM     14  C   UNL     1       3.749   5.274  19.401  0.00  0.00    +0.000 C 
ENDBRANCH   5   8
BRANCH   1  16
ATOM     15  N   UNL     1       5.424   4.140  13.914  0.00  0.00    +0.000 N 
ATOM     16  C   UNL     1       6.430   4.868  14.508  0.00  0.00    +0.000 C 
ATOM     17  O   UNL     1       7.285   5.469  13.869  0.00  0.00    +0.000 OA
ATOM     18  H   UNL     1       4.696   3.787  14.527  0.00  0.00    +0.000 HD
BRANCH  15  19
ATOM     19  C   UNL     1       5.255   4.102  12.483  0.00  0.00    +0.000 C 
BRANCH  19  24
ATOM     20  C   UNL     1       5.964  -0.506  11.164  0.00  0.00    +0.000 C 
ATOM     21  C   UNL     1       6.384   0.898  11.333  0.00  0.00    +0.000 A 
ATOM     22  C   UNL     1       7.556   1.568  11.057  0.00  0.00    +0.000 A 
ATOM     23  C   UNL     1       7.346   2.913  11.438  0.00  0.00    +0.000 A 
ATOM     24  C   UNL     1       6.060   2.986  11.931  0.00  0.00    +0.000 A 
ATOM     25  O   UNL     1       5.468   1.755  11.868  0.00  0.00    +0.000 OA
ENDBRANCH  19  24
ENDBRANCH  15  19
ENDBRANCH   1  16
TORSDOF 4
ENDMDL
MODEL 5
REMARK VINA RESULT:      -7.1      4.879      7.866
REMARK  Name = 
REMARK  8 active torsions:
REMARK  status: ('A' for Active; 'I' for Inactive)
REMARK    1  A    between atoms: C_1  and  C_2
REMARK    2  A    between atoms: C_5  and  C_6
REMARK    3  A    between atoms: C_6  and  N_7
REMARK    4  A    between atoms: C_8  and  C_10
REMARK    5  A    between atoms: C_12  and  C_13
REMARK    6  A    between atoms: N_14  and  C_15
REMARK    7  A    between atoms: N_18  and  C_19
REMARK    8  A    between atoms: C_22  and  C_23
REMARK                            x       y       z     vdW  Elec       q    Type
REMARK                         _______ _______ _______ _____ _____    ______ ____
ROOT
ATOM      1  C   UNL     1       1.669   9.211  18.767  0.00  0.00    +0.000 A 
ATOM      2  N   UNL     1       2.432   8.905  17.651  0.00  0.00    +0.000 NA
ATOM      3  C   UNL     1       2.937   7.706  17.866  0.00  0.00    +0.000 A 
ATOM      4  C   UNL     1       3.844   6.981  16.936  0.00  0.00    +0.000 C 
ATOM      5  N   UNL     1       2.519   7.204  19.085  0.00  0.00    +0.000 N 
ATOM      6  C   UNL     1       1.709   8.160  19.672  0.00  0.00    +0.000 A 
ATOM      7  C   UNL     1       1.038   8.059  20.998  0.00  0.00    +0.000 C 
ENDROOT
BRANCH   5   8
ATOM      8  C   UNL     1       2.909   5.905  19.647  0.00  0.00    +0.000 C 
ATOM      9  C   UNL     1       4.359   5.538  19.301  0.00  0.00    +0.000 C 
ATOM     10  C   UNL     1       4.682   4.073  19.573  0.00  0.00    +0.000 C 
ATOM     11  N   UNL     1       3.663   3.188  19.001  0.00  0.00    +0.000 NA
ATOM     12  C   UNL     1       4.061   1.788  19.160  0.00  0.00    +0.000 C 
ATOM     13  C   UNL     1       2.362   3.421  19.633  0.00  0.00    +0.000 C 
ATOM     14  C   UNL     1       1.864   4.827  19.325  0.00  0.00    +0.000 C 
ENDBRANCH   5   8
BRANCH   1  16
ATOM     15  N   UNL     1      -0.219  10.547  18.200  0.00  0.00    +0.000 N 
ATOM     16  C   UNL     1       0.947  10.483  18.929  0.00  0.00    +0.000 C 
ATOM     17  O   UNL     1       1.340  11.400  19.639  0.00  0.00    +0.000 OA
ATOM     18  H   UNL     1      -0.518   9.689  17.746  0.00  0.00    +0.000 HD
BRANCH  15  19
ATOM     19  C   UNL     1      -1.109  11.677  18.284  0.00  0.00    +0.000 C 
BRANCH  19  24
ATOM     20  C   UNL     1      -3.513  10.158  14.361  0.00  0.00    +0.000 C 
ATOM     21  C   UNL     1      -3.431  10.696  15.733  0.00  0.00    +0.000 A 
ATOM     22  C   UNL     1      -4.383  11.067  16.656  0.00  0.00    +0.000 A 
ATOM     23  C   UNL     1      -3.681  11.506  17.801  0.00  0.00    +0.000 A 
ATOM     24  C   UNL     1      -2.339  11.384  17.509  0.00  0.00    +0.000 A 
ATOM     25  O   UNL     1      -2.181  10.888  16.245  0.00  0.00    +0.000 OA
ENDBRANCH  19  24
ENDBRANCH  15  19
ENDBRANCH   1  16
TORSDOF 4
ENDMDL
MODEL 6
REMARK VINA RESULT:      -7.0      1.694      2.214
REMARK  Name = 
REMARK  8 active torsions:
REMARK  status: ('A' for Active; 'I' for Inactive)
REMARK    1  A    between atoms: C_1  and  C_2
REMARK    2  A    between atoms: C_5  and  C_6
REMARK    3  A    between atoms: C_6  and  N_7
REMARK    4  A    between atoms: C_8  and  C_10
REMARK    5  A    between atoms: C_12  and  C_13
REMARK    6  A    between atoms: N_14  and  C_15
REMARK    7  A    between atoms: N_18  and  C_19
REMARK    8  A    between atoms: C_22  and  C_23
REMARK                            x       y       z     vdW  Elec       q    Type
REMARK                         _______ _______ _______ _____ _____    ______ ____
ROOT
ATOM      1  C   UNL     1       6.286   5.318  16.339  0.00  0.00    +0.000 A 
ATOM      2  N   UNL     1       7.321   5.653  17.198  0.00  0.00    +0.000 NA
ATOM      3  C   UNL     1       6.907   5.344  18.412  0.00  0.00    +0.000 A 
ATOM      4  C   UNL     1       7.689   5.552  19.660  0.00  0.00    +0.000 C 
ATOM      5  N   UNL     1       5.635   4.802  18.379  0.00  0.00    +0.000 N 
ATOM      6  C   UNL     1       5.226   4.783  17.057  0.00  0.00    +0.000 A 
ATOM      7  C   UNL     1       3.918   4.291  16.542  0.00  0.00    +0.000 C 
ENDROOT
BRANCH   5   8
ATOM      8  C   UNL     1       4.867   4.367  19.552  0.00  0.00    +0.000 C 
ATOM      9  C   UNL     1       4.623   2.850  19.551  0.00  0.00    +0.000 C 
ATOM     10  C   UNL     1       3.559   2.420  20.555  0.00  0.00    +0.000 C 
ATOM     11  N   UNL     1       2.354   3.246  20.440  0.00  0.00    +0.000 NA
ATOM     12  C   UNL     1       1.302   2.731  21.320  0.00  0.00    +0.000 C 
ATOM     13  C   UNL     1       2.650   4.643  20.765  0.00  0.00    +0.000 C 
ATOM     14  C   UNL     1       3.616   5.234  19.747  0.00  0.00    +0.000 C 
ENDBRANCH   5   8
BRANCH   1  16
ATOM     15  N   UNL     1       7.332   4.798  14.264  0.00  0.00    +0.000 N 
ATOM     16  C   UNL     1       6.343   5.528  14.884  0.00  0.00    +0.000 C 
ATOM     17  O   UNL     1       5.591   6.280  14.276  0.00  0.00    +0.000 OA
ATOM     18  H   UNL     1       7.815   4.112  14.836  0.00  0.00    +0.000 HD
BRANCH  15  19
ATOM     19  C   UNL     1       7.501   4.804  12.833  0.00  0.00    +0.000 C 
BRANCH  19  24
ATOM     20  C   UNL     1       3.391   3.034  10.975  0.00  0.00    +0.000 C 
ATOM     21  C   UNL     1       4.800   2.929  11.400  0.00  0.00    +0.000 A 
ATOM     22  C   UNL     1       5.711   1.897  11.388  0.00  0.00    +0.000 A 
ATOM     23  C   UNL     1       6.911   2.416  11.926  0.00  0.00    +0.000 A 
ATOM     24  C   UNL     1       6.661   3.734  12.242  0.00  0.00    +0.000 A 
ATOM     25  O   UNL     1       5.371   4.053  11.922  0.00  0.00    +0.000 OA
ENDBRANCH  19  24
ENDBRANCH  15  19
ENDBRANCH   1  16
TORSDOF 4
ENDMDL
MODEL 7
REMARK VINA RESULT:      -7.0      4.589      8.148
REMARK  Name = 
REMARK  8 active torsions:
REMARK  status: ('A' for Active; 'I' for Inactive)
REMARK    1  A    between atoms: C_1  and  C_2
REMARK    2  A    between atoms: C_5  and  C_6
REMARK    3  A    between atoms: C_6  and  N_7
REMARK    4  A    between atoms: C_8  and  C_10
REMARK    5  A    between atoms: C_12  and  C_13
REMARK    6  A    between atoms: N_14  and  C_15
REMARK    7  A    between atoms: N_18  and  C_19
REMARK    8  A    between atoms: C_22  and  C_23
REMARK                            x       y       z     vdW  Elec       q    Type
REMARK                         _______ _______ _______ _____ _____    ______ ____
ROOT
ATOM      1  C   UNL     1       1.657   7.695  20.161  0.00  0.00    +0.000 A 
ATOM      2  N   UNL     1       1.360   6.683  21.059  0.00  0.00    +0.000 NA
ATOM      3  C   UNL     1       2.038   5.624  20.658  0.00  0.00    +0.000 A 
ATOM      4  C   UNL     1       2.007   4.290  21.317  0.00  0.00    +0.000 C 
ATOM      5  N   UNL     1       2.784   5.911  19.531  0.00  0.00    +0.000 N 
ATOM      6  C   UNL     1       2.546   7.234  19.201  0.00  0.00    +0.000 A 
ATOM      7  C   UNL     1       3.131   7.979  18.051  0.00  0.00    +0.000 C 
ENDROOT
BRANCH   5   8
ATOM      8  C   UNL     1       3.638   4.957  18.812  0.00  0.00    +0.000 C 
ATOM      9  C   UNL     1       5.110   5.399  18.797  0.00  0.00    +0.000 C 
ATOM     10  C   UNL     1       5.951   4.624  17.789  0.00  0.00    +0.000 C 
ATOM     11  N   UNL     1       5.300   4.578  16.476  0.00  0.00    +0.000 NA
ATOM     12  C   UNL     1       6.184   3.944  15.495  0.00  0.00    +0.000 C 
ATOM     13  C   UNL     1       4.028   3.856  16.553  0.00  0.00    +0.000 C 
ATOM     14  C   UNL     1       3.044   4.605  17.442  0.00  0.00    +0.000 C 
ENDBRANCH   5   8
BRANCH   1  16
ATOM     15  N   UNL     1       0.414   9.430  19.103  0.00  0.00    +0.000 N 
ATOM     16  C   UNL     1       1.080   9.046  20.246  0.00  0.00    +0.000 C 
ATOM     17  O   UNL     1       1.180   9.767  21.231  0.00  0.00    +0.000 OA
ATOM     18  H   UNL     1       0.279   8.715  18.396  0.00  0.00    +0.000 HD
BRANCH  15  19
ATOM     19  C   UNL     1      -0.287  10.686  19.015  0.00  0.00    +0.000 C 
BRANCH  19  24
ATOM     20  C   UNL     1      -4.800  11.686  17.564  0.00  0.00    +0.000 C 
ATOM     21  C   UNL     1      -3.513  10.971  17.474  0.00  0.00    +0.000 A 
ATOM     22  C   UNL     1      -3.032  10.004  16.619  0.00  0.00    +0.000 A 
ATOM     23  C   UNL     1      -1.714   9.716  17.041  0.00  0.00    +0.000 A 
ATOM     24  C   UNL     1      -1.468  10.520  18.134  0.00  0.00    +0.000 A 
ATOM     25  O   UNL     1      -2.565  11.290  18.402  0.00  0.00    +0.000 OA
ENDBRANCH  19  24
ENDBRANCH  15  19
ENDBRANCH   1  16
TORSDOF 4
ENDMDL
MODEL 8
REMARK VINA RESULT:      -6.9      4.154      6.625
REMARK  Name = 
REMARK  8 active torsions:
REMARK  status: ('A' for Active; 'I' for Inactive)
REMARK    1  A    between atoms: C_1  and  C_2
REMARK    2  A    between atoms: C_5  and  C_6
REMARK    3  A    between atoms: C_6  and  N_7
REMARK    4  A    between atoms: C_8  and  C_10
REMARK    5  A    between atoms: C_12  and  C_13
REMARK    6  A    between atoms: N_14  and  C_15
REMARK    7  A    between atoms: N_18  and  C_19
REMARK    8  A    between atoms: C_22  and  C_23
REMARK                            x       y       z     vdW  Elec       q    Type
REMARK                         _______ _______ _______ _____ _____    ______ ____
ROOT
ATOM      1  C   UNL     1       2.002   7.258  19.695  0.00  0.00    +0.000 A 
ATOM      2  N   UNL     1       1.473   7.333  20.974  0.00  0.00    +0.000 NA
ATOM      3  C   UNL     1       0.937   8.533  21.081  0.00  0.00    +0.000 A 
ATOM      4  C   UNL     1       0.268   9.064  22.300  0.00  0.00    +0.000 C 
ATOM      5  N   UNL     1       1.083   9.248  19.907  0.00  0.00    +0.000 N 
ATOM      6  C   UNL     1       1.766   8.443  19.013  0.00  0.00    +0.000 A 
ATOM      7  C   UNL     1       2.156   8.799  17.620  0.00  0.00    +0.000 C 
ENDROOT
BRANCH   5   8
ATOM      8  C   UNL     1       0.619  10.624  19.687  0.00  0.00    +0.000 C 
ATOM      9  C   UNL     1       1.164  11.593  20.747  0.00  0.00    +0.000 C 
ATOM     10  C   UNL     1       0.444  12.936  20.749  0.00  0.00    +0.000 C 
ATOM     11  N   UNL     1      -1.011  12.761  20.755  0.00  0.00    +0.000 NA
ATOM     12  C   UNL     1      -1.677  14.058  20.890  0.00  0.00    +0.000 C 
ATOM     13  C   UNL     1      -1.457  12.085  19.534  0.00  0.00    +0.000 C 
ATOM     14  C   UNL     1      -0.901  10.669  19.476  0.00  0.00    +0.000 C 
ENDBRANCH   5   8
BRANCH   1  16
ATOM     15  N   UNL     1       3.964   5.909  19.731  0.00  0.00    +0.000 N 
ATOM     16  C   UNL     1       2.713   6.076  19.182  0.00  0.00    +0.000 C 
ATOM     17  O   UNL     1       2.245   5.314  18.345  0.00  0.00    +0.000 OA
ATOM     18  H   UNL     1       4.205   6.520  20.505  0.00  0.00    +0.000 HD
BRANCH  15  19
ATOM     19  C   UNL     1       4.787   4.768  19.418  0.00  0.00    +0.000 C 
BRANCH  19  24
ATOM     20  C   UNL     1       6.345   4.170  14.869  0.00  0.00    +0.000 C 
ATOM     21  C   UNL     1       6.351   4.825  16.191  0.00  0.00    +0.000 A 
ATOM     22  C   UNL     1       7.088   5.860  16.724  0.00  0.00    +0.000 A 
ATOM     23  C   UNL     1       6.629   6.036  18.049  0.00  0.00    +0.000 A 
ATOM     24  C   UNL     1       5.643   5.094  18.252  0.00  0.00    +0.000 A 
ATOM     25  O   UNL     1       5.469   4.352  17.118  0.00  0.00    +0.000 OA
ENDBRANCH  19  24
ENDBRANCH  15  19
ENDBRANCH   1  16
TORSDOF 4
ENDMDL
MODEL 9
REMARK VINA RESULT:      -6.8      4.325      7.841
REMARK  Name = 
REMARK  8 active torsions:
REMARK  status: ('A' for Active; 'I' for Inactive)
REMARK    1  A    between atoms: C_1  and  C_2
REMARK    2  A    between atoms: C_5  and  C_6
REMARK    3  A    between atoms: C_6  and  N_7
REMARK    4  A    between atoms: C_8  and  C_10
REMARK    5  A    between atoms: C_12  and  C_13
REMARK    6  A    between atoms: N_14  and  C_15
REMARK    7  A    between atoms: N_18  and  C_19
REMARK    8  A    between atoms: C_22  and  C_23
REMARK                            x       y       z     vdW  Elec       q    Type
REMARK                         _______ _______ _______ _____ _____    ______ ____
ROOT
ATOM      1  C   UNL     1       1.699   7.756  19.979  0.00  0.00    +0.000 A 
ATOM      2  N   UNL     1       1.404   6.777  20.914  0.00  0.00    +0.000 NA
ATOM      3  C   UNL     1       2.105   5.714  20.569  0.00  0.00    +0.000 A 
ATOM      4  C   UNL     1       2.084   4.408  21.282  0.00  0.00    +0.000 C 
ATOM      5  N   UNL     1       2.867   5.967  19.443  0.00  0.00    +0.000 N 
ATOM      6  C   UNL     1       2.613   7.270  19.054  0.00  0.00    +0.000 A 
ATOM      7  C   UNL     1       3.206   7.977  17.884  0.00  0.00    +0.000 C 
ENDROOT
BRANCH   5   8
ATOM      8  C   UNL     1       3.749   4.999  18.780  0.00  0.00    +0.000 C 
ATOM      9  C   UNL     1       5.209   5.474  18.751  0.00  0.00    +0.000 C 
ATOM     10  C   UNL     1       6.076   4.669  17.790  0.00  0.00    +0.000 C 
ATOM     11  N   UNL     1       5.437   4.540  16.477  0.00  0.00    +0.000 NA
ATOM     12  C   UNL     1       6.343   3.880  15.535  0.00  0.00    +0.000 C 
ATOM     13  C   UNL     1       4.181   3.793  16.583  0.00  0.00    +0.000 C 
ATOM     14  C   UNL     1       3.173   4.563  17.426  0.00  0.00    +0.000 C 
ENDBRANCH   5   8
BRANCH   1  16
ATOM     15  N   UNL     1       0.539   9.465  18.795  0.00  0.00    +0.000 N 
ATOM     16  C   UNL     1       1.099   9.100  19.998  0.00  0.00    +0.000 C 
ATOM     17  O   UNL     1       1.098   9.829  20.982  0.00  0.00    +0.000 OA
ATOM     18  H   UNL     1       0.480   8.743  18.084  0.00  0.00    +0.000 HD
BRANCH  15  19
ATOM     19  C   UNL     1      -0.168  10.710  18.630  0.00  0.00    +0.000 C 
BRANCH  19  24
ATOM     20  C   UNL     1      -3.098  10.019  14.834  0.00  0.00    +0.000 C 
ATOM     21  C   UNL     1      -2.811  10.128  16.277  0.00  0.00    +0.000 A 
ATOM     22  C   UNL     1      -3.598  10.026  17.403  0.00  0.00    +0.000 A 
ATOM     23  C   UNL     1      -2.742  10.224  18.509  0.00  0.00    +0.000 A 
ATOM     24  C   UNL     1      -1.481  10.442  17.996  0.00  0.00    +0.000 A 
ATOM     25  O   UNL     1      -1.518  10.384  16.631  0.00  0.00    +0.000 OA
ENDBRANCH  19  24
ENDBRANCH  15  19
ENDBRANCH   1  16
TORSDOF 4
ENDMDL
