MODEL 1
REMARK VINA RESULT:      -8.8      0.000      0.000
REMARK  Name = 
REMARK  7 active torsions:
REMARK  status: ('A' for Active; 'I' for Inactive)
REMARK    1  A    between atoms: C_2  and  O_3
REMARK    2  A    between atoms: C_2  and  C_23
REMARK    3  A    between atoms: O_3  and  C_4
REMARK    4  A    between atoms: C_4  and  C_5
REMARK    5  A    between atoms: C_5  and  C_15
REMARK    6  A    between atoms: C_6  and  C_7
REMARK    7  A    between atoms: C_15  and  C_17
REMARK                            x       y       z     vdW  Elec       q    Type
REMARK                         _______ _______ _______ _____ _____    ______ ____
ROOT
ATOM      1  C   UNL     1       3.880   6.585  17.701  0.00  0.00    +0.000 C 
ATOM      2  C   UNL     1       3.103   7.692  17.838  0.00  0.00    +0.000 C 
ENDROOT
BRANCH   2   3
ATOM      3  C   UNL     1       2.251   8.087  18.965  0.00  0.00    +0.000 A 
ATOM      4  C   UNL     1       2.103   7.188  20.032  0.00  0.00    +0.000 A 
ATOM      5  C   UNL     1       1.259   7.497  21.102  0.00  0.00    +0.000 A 
ATOM      6  C   UNL     1       0.574   8.711  21.113  0.00  0.00    +0.000 A 
ATOM      7 CL   UNL     1      -0.516   9.063  22.397  0.00  0.00    +0.000 Cl
ATOM      8  C   UNL     1       0.758   9.639  20.091  0.00  0.00    +0.000 A 
ATOM      9  C   UNL     1       1.599   9.329  19.020  0.00  0.00    +0.000 A 
ATOM     10 CL   UNL     1       1.826  10.525  17.791  0.00  0.00    +0.000 Cl
ENDBRANCH   2   3
BRANCH   1  11
ATOM     11  C   UNL     1       4.003   5.549  18.809  0.00  0.00    +0.000 C 
ATOM     12  O   UNL     1       4.975   5.540  19.564  0.00  0.00    +0.000 OA
BRANCH  11  13
ATOM     13  C   UNL     1       3.008   4.436  18.999  0.00  0.00    +0.000 A 
ATOM     14  C   UNL     1       3.012   3.761  20.232  0.00  0.00    +0.000 A 
ATOM     15  C   UNL     1       2.095   2.735  20.500  0.00  0.00    +0.000 A 
ATOM     16  C   UNL     1       1.174   2.351  19.529  0.00  0.00    +0.000 A 
ATOM     17  C   UNL     1       1.146   3.016  18.309  0.00  0.00    +0.000 A 
ATOM     18  C   UNL     1       2.025   4.079  18.067  0.00  0.00    +0.000 A 
ENDBRANCH  11  13
ENDBRANCH   1  11
BRANCH   1  19
ATOM     19  C   UNL     1       4.706   6.400  16.454  0.00  0.00    +0.000 C 
BRANCH  19  20
ATOM     20  O   UNL     1       5.315   5.102  16.380  0.00  0.00    +0.000 OA
BRANCH  20  22
ATOM     21  O   UNL     1       7.568   5.261  16.784  0.00  0.00    +0.000 OA
ATOM     22  C   UNL     1       6.622   5.071  16.039  0.00  0.00    +0.000 C 
BRANCH  22  23
ATOM     23  C   UNL     1       6.748   4.748  14.597  0.00  0.00    +0.000 A 
ATOM     24  C   UNL     1       5.875   3.791  14.063  0.00  0.00    +0.000 A 
ATOM     25  C   UNL     1       5.958   3.446  12.716  0.00  0.00    +0.000 A 
ATOM     26  C   UNL     1       6.897   4.056  11.897  0.00  0.00    +0.000 A 
ATOM     27  C   UNL     1       7.761   5.027  12.412  0.00  0.00    +0.000 A 
ATOM     28  C   UNL     1       7.683   5.375  13.763  0.00  0.00    +0.000 A 
ENDBRANCH  22  23
ENDBRANCH  20  22
ENDBRANCH  19  20
ENDBRANCH   1  19
TORSDOF 7
ENDMDL
MODEL 2
REMARK VINA RESULT:      -8.8      1.965      3.114
REMARK  Name = 
REMARK  7 active torsions:
REMARK  status: ('A' for Active; 'I' for Inactive)
REMARK    1  A    between atoms: C_2  and  O_3
REMARK    2  A    between atoms: C_2  and  C_23
REMARK    3  A    between atoms: O_3  and  C_4
REMARK    4  A    between atoms: C_4  and  C_5
REMARK    5  A    between atoms: C_5  and  C_15
REMARK    6  A    between atoms: C_6  and  C_7
REMARK    7  A    between atoms: C_15  and  C_17
REMARK                            x       y       z     vdW  Elec       q    Type
REMARK                         _______ _______ _______ _____ _____    ______ ____
ROOT
ATOM      1  C   UNL     1       3.136   5.138  17.440  0.00  0.00    +0.000 C 
ATOM      2  C   UNL     1       3.333   6.386  17.939  0.00  0.00    +0.000 C 
ENDROOT
BRANCH   2   3
ATOM      3  C   UNL     1       2.564   7.103  18.963  0.00  0.00    +0.000 A 
ATOM      4  C   UNL     1       2.414   6.503  20.222  0.00  0.00    +0.000 A 
ATOM      5  C   UNL     1       1.644   7.122  21.210  0.00  0.00    +0.000 A 
ATOM      6  C   UNL     1       1.036   8.348  20.945  0.00  0.00    +0.000 A 
ATOM      7 CL   UNL     1       0.035   9.078  22.139  0.00  0.00    +0.000 Cl
ATOM      8  C   UNL     1       1.226   8.984  19.722  0.00  0.00    +0.000 A 
ATOM      9  C   UNL     1       1.992   8.364  18.732  0.00  0.00    +0.000 A 
ATOM     10 CL   UNL     1       2.231   9.207  17.240  0.00  0.00    +0.000 Cl
ENDBRANCH   2   3
BRANCH   1  11
ATOM     11  C   UNL     1       2.021   4.237  17.951  0.00  0.00    +0.000 C 
ATOM     12  O   UNL     1       0.984   4.083  17.306  0.00  0.00    +0.000 OA
BRANCH  11  13
ATOM     13  C   UNL     1       2.072   3.554  19.291  0.00  0.00    +0.000 A 
ATOM     14  C   UNL     1       3.307   3.029  19.709  0.00  0.00    +0.000 A 
ATOM     15  C   UNL     1       3.445   2.407  20.959  0.00  0.00    +0.000 A 
ATOM     16  C   UNL     1       2.343   2.280  21.800  0.00  0.00    +0.000 A 
ATOM     17  C   UNL     1       1.118   2.805  21.410  0.00  0.00    +0.000 A 
ATOM     18  C   UNL     1       0.997   3.477  20.186  0.00  0.00    +0.000 A 
ENDBRANCH  11  13
ENDBRANCH   1  11
BRANCH   1  19
ATOM     19  C   UNL     1       4.082   4.587  16.406  0.00  0.00    +0.000 C 
BRANCH  19  20
ATOM     20  O   UNL     1       5.304   4.094  16.977  0.00  0.00    +0.000 OA
BRANCH  20  22
ATOM     21  O   UNL     1       6.910   4.068  15.339  0.00  0.00    +0.000 OA
ATOM     22  C   UNL     1       6.448   4.495  16.383  0.00  0.00    +0.000 C 
BRANCH  22  23
ATOM     23  C   UNL     1       7.073   5.571  17.192  0.00  0.00    +0.000 A 
ATOM     24  C   UNL     1       7.584   5.229  18.450  0.00  0.00    +0.000 A 
ATOM     25  C   UNL     1       8.173   6.204  19.252  0.00  0.00    +0.000 A 
ATOM     26  C   UNL     1       8.267   7.513  18.802  0.00  0.00    +0.000 A 
ATOM     27  C   UNL     1       7.780   7.864  17.540  0.00  0.00    +0.000 A 
ATOM     28  C   UNL     1       7.186   6.890  16.733  0.00  0.00    +0.000 A 
ENDBRANCH  22  23
ENDBRANCH  20  22
ENDBRANCH  19  20
ENDBRANCH   1  19
TORSDOF 7
ENDMDL
MODEL 3
REMARK VINA RESULT:      -8.8      2.847      5.052
REMARK  Name = 
REMARK  7 active torsions:
REMARK  status: ('A' for Active; 'I' for Inactive)
REMARK    1  A    between atoms: C_2  and  O_3
REMARK    2  A    between atoms: C_2  and  C_23
REMARK    3  A    between atoms: O_3  and  C_4
REMARK    4  A    between atoms: C_4  and  C_5
REMARK    5  A    between atoms: C_5  and  C_15
REMARK    6  A    between atoms: C_6  and  C_7
REMARK    7  A    between atoms: C_15  and  C_17
REMARK                            x       y       z     vdW  Elec       q    Type
REMARK                         _______ _______ _______ _____ _____    ______ ____
ROOT
ATOM      1  C   UNL     1       6.161   4.244  16.472  0.00  0.00    +0.000 C 
ATOM      2  C   UNL     1       4.897   3.776  16.300  0.00  0.00    +0.000 C 
ENDROOT
BRANCH   2   3
ATOM      3  C   UNL     1       3.810   3.671  17.281  0.00  0.00    +0.000 A 
ATOM      4  C   UNL     1       3.473   2.397  17.764  0.00  0.00    +0.000 A 
ATOM      5  C   UNL     1       2.410   2.242  18.657  0.00  0.00    +0.000 A 
ATOM      6  C   UNL     1       1.693   3.359  19.079  0.00  0.00    +0.000 A 
ATOM      7 CL   UNL     1       0.342   3.159  20.127  0.00  0.00    +0.000 Cl
ATOM      8  C   UNL     1       2.054   4.636  18.656  0.00  0.00    +0.000 A 
ATOM      9  C   UNL     1       3.114   4.792  17.760  0.00  0.00    +0.000 A 
ATOM     10 CL   UNL     1       3.551   6.398  17.289  0.00  0.00    +0.000 Cl
ENDBRANCH   2   3
BRANCH   1  11
ATOM     11  C   UNL     1       6.635   4.800  17.808  0.00  0.00    +0.000 C 
ATOM     12  O   UNL     1       6.488   4.160  18.849  0.00  0.00    +0.000 OA
BRANCH  11  13
ATOM     13  C   UNL     1       7.226   6.176  17.955  0.00  0.00    +0.000 A 
ATOM     14  C   UNL     1       6.742   7.188  17.110  0.00  0.00    +0.000 A 
ATOM     15  C   UNL     1       7.218   8.504  17.207  0.00  0.00    +0.000 A 
ATOM     16  C   UNL     1       8.203   8.822  18.138  0.00  0.00    +0.000 A 
ATOM     17  C   UNL     1       8.684   7.838  18.992  0.00  0.00    +0.000 A 
ATOM     18  C   UNL     1       8.165   6.538  18.930  0.00  0.00    +0.000 A 
ENDBRANCH  11  13
ENDBRANCH   1  11
BRANCH   1  19
ATOM     19  C   UNL     1       7.108   4.290  15.302  0.00  0.00    +0.000 C 
BRANCH  19  20
ATOM     20  O   UNL     1       6.759   5.302  14.345  0.00  0.00    +0.000 OA
BRANCH  20  22
ATOM     21  O   UNL     1       8.147   5.921  12.627  0.00  0.00    +0.000 OA
ATOM     22  C   UNL     1       7.311   5.183  13.118  0.00  0.00    +0.000 C 
BRANCH  22  23
ATOM     23  C   UNL     1       6.756   3.985  12.441  0.00  0.00    +0.000 A 
ATOM     24  C   UNL     1       5.363   3.854  12.383  0.00  0.00    +0.000 A 
ATOM     25  C   UNL     1       4.791   2.744  11.766  0.00  0.00    +0.000 A 
ATOM     26  C   UNL     1       5.600   1.771  11.196  0.00  0.00    +0.000 A 
ATOM     27  C   UNL     1       6.991   1.899  11.229  0.00  0.00    +0.000 A 
ATOM     28  C   UNL     1       7.568   3.010  11.849  0.00  0.00    +0.000 A 
ENDBRANCH  22  23
ENDBRANCH  20  22
ENDBRANCH  19  20
ENDBRANCH   1  19
TORSDOF 7
ENDMDL
MODEL 4
REMARK VINA RESULT:      -8.7      1.886      3.208
REMARK  Name = 
REMARK  7 active torsions:
REMARK  status: ('A' for Active; 'I' for Inactive)
REMARK    1  A    between atoms: C_2  and  O_3
REMARK    2  A    between atoms: C_2  and  C_23
REMARK    3  A    between atoms: O_3  and  C_4
REMARK    4  A    between atoms: C_4  and  C_5
REMARK    5  A    between atoms: C_5  and  C_15
REMARK    6  A    between atoms: C_6  and  C_7
REMARK    7  A    between atoms: C_15  and  C_17
REMARK                            x       y       z     vdW  Elec       q    Type
REMARK                         _______ _______ _______ _____ _____    ______ ____
ROOT
ATOM      1  C   UNL     1       3.288   5.157  17.474  0.00  0.00    +0.000 C 
ATOM      2  C   UNL     1       3.443   6.426  17.934  0.00  0.00    +0.000 C 
ENDROOT
BRANCH   2   3
ATOM      3  C   UNL     1       2.617   7.166  18.895  0.00  0.00    +0.000 A 
ATOM      4  C   UNL     1       2.413   6.605  20.165  0.00  0.00    +0.000 A 
ATOM      5  C   UNL     1       1.590   7.246  21.095  0.00  0.00    +0.000 A 
ATOM      6  C   UNL     1       0.982   8.455  20.761  0.00  0.00    +0.000 A 
ATOM      7 CL   UNL     1      -0.084   9.210  21.881  0.00  0.00    +0.000 Cl
ATOM      8  C   UNL     1       1.224   9.054  19.528  0.00  0.00    +0.000 A 
ATOM      9  C   UNL     1       2.043   8.412  18.597  0.00  0.00    +0.000 A 
ATOM     10 CL   UNL     1       2.344   9.209  17.091  0.00  0.00    +0.000 Cl
ENDBRANCH   2   3
BRANCH   1  11
ATOM     11  C   UNL     1       2.166   4.255  17.969  0.00  0.00    +0.000 C 
ATOM     12  O   UNL     1       1.139   4.099  17.308  0.00  0.00    +0.000 OA
BRANCH  11  13
ATOM     13  C   UNL     1       2.198   3.575  19.311  0.00  0.00    +0.000 A 
ATOM     14  C   UNL     1       0.975   3.390  19.978  0.00  0.00    +0.000 A 
ATOM     15  C   UNL     1       0.916   2.735  21.217  0.00  0.00    +0.000 A 
ATOM     16  C   UNL     1       2.085   2.276  21.820  0.00  0.00    +0.000 A 
ATOM     17  C   UNL     1       3.301   2.438  21.169  0.00  0.00    +0.000 A 
ATOM     18  C   UNL     1       3.349   3.041  19.905  0.00  0.00    +0.000 A 
ENDBRANCH  11  13
ENDBRANCH   1  11
BRANCH   1  19
ATOM     19  C   UNL     1       4.288   4.585  16.503  0.00  0.00    +0.000 C 
BRANCH  19  20
ATOM     20  O   UNL     1       5.031   5.600  15.810  0.00  0.00    +0.000 OA
BRANCH  20  22
ATOM     21  O   UNL     1       6.931   4.891  14.738  0.00  0.00    +0.000 OA
ATOM     22  C   UNL     1       6.360   5.393  15.691  0.00  0.00    +0.000 C 
BRANCH  22  23
ATOM     23  C   UNL     1       7.049   5.894  16.905  0.00  0.00    +0.000 A 
ATOM     24  C   UNL     1       7.311   7.267  16.988  0.00  0.00    +0.000 A 
ATOM     25  C   UNL     1       7.962   7.787  18.104  0.00  0.00    +0.000 A 
ATOM     26  C   UNL     1       8.343   6.948  19.142  0.00  0.00    +0.000 A 
ATOM     27  C   UNL     1       8.070   5.579  19.082  0.00  0.00    +0.000 A 
ATOM     28  C   UNL     1       7.418   5.054  17.963  0.00  0.00    +0.000 A 
ENDBRANCH  22  23
ENDBRANCH  20  22
ENDBRANCH  19  20
ENDBRANCH   1  19
TORSDOF 7
ENDMDL
MODEL 5
REMARK VINA RESULT:      -8.7      2.396      4.141
REMARK  Name = 
REMARK  7 active torsions:
REMARK  status: ('A' for Active; 'I' for Inactive)
REMARK    1  A    between atoms: C_2  and  O_3
REMARK    2  A    between atoms: C_2  and  C_23
REMARK    3  A    between atoms: O_3  and  C_4
REMARK    4  A    between atoms: C_4  and  C_5
REMARK    5  A    between atoms: C_5  and  C_15
REMARK    6  A    between atoms: C_6  and  C_7
REMARK    7  A    between atoms: C_15  and  C_17
REMARK                            x       y       z     vdW  Elec       q    Type
REMARK                         _______ _______ _______ _____ _____    ______ ____
ROOT
ATOM      1  C   UNL     1       4.625   4.264  17.270  0.00  0.00    +0.000 C 
ATOM      2  C   UNL     1       3.361   4.754  17.357  0.00  0.00    +0.000 C 
ENDROOT
BRANCH   2   3
ATOM      3  C   UNL     1       2.780   5.631  18.380  0.00  0.00    +0.000 A 
ATOM      4  C   UNL     1       2.694   7.004  18.105  0.00  0.00    +0.000 A 
ATOM      5  C   UNL     1       2.198   7.886  19.070  0.00  0.00    +0.000 A 
ATOM      6  C   UNL     1       1.775   7.394  20.303  0.00  0.00    +0.000 A 
ATOM      7 CL   UNL     1       1.228   8.487  21.514  0.00  0.00    +0.000 Cl
ATOM      8  C   UNL     1       1.798   6.027  20.567  0.00  0.00    +0.000 A 
ATOM      9  C   UNL     1       2.297   5.146  19.605  0.00  0.00    +0.000 A 
ATOM     10 CL   UNL     1       2.274   3.453  19.962  0.00  0.00    +0.000 Cl
ENDBRANCH   2   3
BRANCH   1  11
ATOM     11  C   UNL     1       5.697   4.625  18.288  0.00  0.00    +0.000 C 
ATOM     12  O   UNL     1       5.899   3.918  19.275  0.00  0.00    +0.000 OA
BRANCH  11  13
ATOM     13  C   UNL     1       6.509   5.889  18.204  0.00  0.00    +0.000 A 
ATOM     14  C   UNL     1       7.652   5.985  19.015  0.00  0.00    +0.000 A 
ATOM     15  C   UNL     1       8.480   7.117  18.972  0.00  0.00    +0.000 A 
ATOM     16  C   UNL     1       8.163   8.181  18.132  0.00  0.00    +0.000 A 
ATOM     17  C   UNL     1       7.044   8.099  17.313  0.00  0.00    +0.000 A 
ATOM     18  C   UNL     1       6.252   6.942  17.317  0.00  0.00    +0.000 A 
ENDBRANCH  11  13
ENDBRANCH   1  11
BRANCH   1  19
ATOM     19  C   UNL     1       5.013   3.397  16.100  0.00  0.00    +0.000 C 
BRANCH  19  20
ATOM     20  O   UNL     1       6.286   3.758  15.540  0.00  0.00    +0.000 OA
BRANCH  20  22
ATOM     21  O   UNL     1       6.497   5.783  14.485  0.00  0.00    +0.000 OA
ATOM     22  C   UNL     1       6.259   4.588  14.476  0.00  0.00    +0.000 C 
BRANCH  22  23
ATOM     23  C   UNL     1       5.910   3.817  13.257  0.00  0.00    +0.000 A 
ATOM     24  C   UNL     1       6.916   3.047  12.661  0.00  0.00    +0.000 A 
ATOM     25  C   UNL     1       6.642   2.311  11.510  0.00  0.00    +0.000 A 
ATOM     26  C   UNL     1       5.369   2.329  10.959  0.00  0.00    +0.000 A 
ATOM     27  C   UNL     1       4.350   3.077  11.555  0.00  0.00    +0.000 A 
ATOM     28  C   UNL     1       4.621   3.818  12.708  0.00  0.00    +0.000 A 
ENDBRANCH  22  23
ENDBRANCH  20  22
ENDBRANCH  19  20
ENDBRANCH   1  19
TORSDOF 7
ENDMDL
MODEL 6
REMARK VINA RESULT:      -8.6      2.687      5.038
REMARK  Name = 
REMARK  7 active torsions:
REMARK  status: ('A' for Active; 'I' for Inactive)
REMARK    1  A    between atoms: C_2  and  O_3
REMARK    2  A    between atoms: C_2  and  C_23
REMARK    3  A    between atoms: O_3  and  C_4
REMARK    4  A    between atoms: C_4  and  C_5
REMARK    5  A    between atoms: C_5  and  C_15
REMARK    6  A    between atoms: C_6  and  C_7
REMARK    7  A    between atoms: C_15  and  C_17
REMARK                            x       y       z     vdW  Elec       q    Type
REMARK                         _______ _______ _______ _____ _____    ______ ____
ROOT
ATOM      1  C   UNL     1       3.853   4.828  17.426  0.00  0.00    +0.000 C 
ATOM      2  C   UNL     1       3.204   3.671  17.721  0.00  0.00    +0.000 C 
ENDROOT
BRANCH   2   3
ATOM      3  C   UNL     1       2.600   3.251  18.991  0.00  0.00    +0.000 A 
ATOM      4  C   UNL     1       1.213   3.396  19.147  0.00  0.00    +0.000 A 
ATOM      5  C   UNL     1       0.601   3.061  20.357  0.00  0.00    +0.000 A 
ATOM      6  C   UNL     1       1.372   2.567  21.407  0.00  0.00    +0.000 A 
ATOM      7 CL   UNL     1       0.628   2.217  22.919  0.00  0.00    +0.000 Cl
ATOM      8  C   UNL     1       2.740   2.360  21.248  0.00  0.00    +0.000 A 
ATOM      9  C   UNL     1       3.353   2.699  20.040  0.00  0.00    +0.000 A 
ATOM     10 CL   UNL     1       5.047   2.392  19.873  0.00  0.00    +0.000 Cl
ENDBRANCH   2   3
BRANCH   1  11
ATOM     11  C   UNL     1       4.013   5.942  18.450  0.00  0.00    +0.000 C 
ATOM     12  O   UNL     1       4.911   5.906  19.292  0.00  0.00    +0.000 OA
BRANCH  11  13
ATOM     13  C   UNL     1       3.055   7.098  18.557  0.00  0.00    +0.000 A 
ATOM     14  C   UNL     1       2.333   7.238  19.754  0.00  0.00    +0.000 A 
ATOM     15  C   UNL     1       1.445   8.307  19.944  0.00  0.00    +0.000 A 
ATOM     16  C   UNL     1       1.248   9.240  18.929  0.00  0.00    +0.000 A 
ATOM     17  C   UNL     1       1.964   9.125  17.744  0.00  0.00    +0.000 A 
ATOM     18  C   UNL     1       2.893   8.088  17.580  0.00  0.00    +0.000 A 
ENDBRANCH  11  13
ENDBRANCH   1  11
BRANCH   1  19
ATOM     19  C   UNL     1       4.368   5.062  16.029  0.00  0.00    +0.000 C 
BRANCH  19  20
ATOM     20  O   UNL     1       5.536   4.281  15.731  0.00  0.00    +0.000 OA
BRANCH  20  22
ATOM     21  O   UNL     1       7.167   5.136  14.363  0.00  0.00    +0.000 OA
ATOM     22  C   UNL     1       6.665   4.970  15.462  0.00  0.00    +0.000 C 
BRANCH  22  23
ATOM     23  C   UNL     1       7.215   5.528  16.722  0.00  0.00    +0.000 A 
ATOM     24  C   UNL     1       7.296   6.921  16.839  0.00  0.00    +0.000 A 
ATOM     25  C   UNL     1       7.812   7.495  17.998  0.00  0.00    +0.000 A 
ATOM     26  C   UNL     1       8.237   6.690  19.045  0.00  0.00    +0.000 A 
ATOM     27  C   UNL     1       8.144   5.298  18.950  0.00  0.00    +0.000 A 
ATOM     28  C   UNL     1       7.628   4.719  17.788  0.00  0.00    +0.000 A 
ENDBRANCH  22  23
ENDBRANCH  20  22
ENDBRANCH  19  20
ENDBRANCH   1  19
TORSDOF 7
ENDMDL
MODEL 7
REMARK VINA RESULT:      -8.6      1.571      2.334
REMARK  Name = 
REMARK  7 active torsions:
REMARK  status: ('A' for Active; 'I' for Inactive)
REMARK    1  A    between atoms: C_2  and  O_3
REMARK    2  A    between atoms: C_2  and  C_23
REMARK    3  A    between atoms: O_3  and  C_4
REMARK    4  A    between atoms: C_4  and  C_5
REMARK    5  A    between atoms: C_5  and  C_15
REMARK    6  A    between atoms: C_6  and  C_7
REMARK    7  A    between atoms: C_15  and  C_17
REMARK                            x       y       z     vdW  Elec       q    Type
REMARK                         _______ _______ _______ _____ _____    ______ ____
ROOT
ATOM      1  C   UNL     1       3.515   5.318  17.444  0.00  0.00    +0.000 C 
ATOM      2  C   UNL     1       3.615   6.653  17.681  0.00  0.00    +0.000 C 
ENDROOT
BRANCH   2   3
ATOM      3  C   UNL     1       2.647   7.551  18.321  0.00  0.00    +0.000 A 
ATOM      4  C   UNL     1       2.014   8.520  17.528  0.00  0.00    +0.000 A 
ATOM      5  C   UNL     1       1.126   9.432  18.105  0.00  0.00    +0.000 A 
ATOM      6  C   UNL     1       0.860   9.367  19.471  0.00  0.00    +0.000 A 
ATOM      7 CL   UNL     1      -0.182  10.532  20.192  0.00  0.00    +0.000 Cl
ATOM      8  C   UNL     1       1.433   8.373  20.260  0.00  0.00    +0.000 A 
ATOM      9  C   UNL     1       2.323   7.464  19.685  0.00  0.00    +0.000 A 
ATOM     10 CL   UNL     1       2.984   6.224  20.694  0.00  0.00    +0.000 Cl
ENDBRANCH   2   3
BRANCH   1  11
ATOM     11  C   UNL     1       2.301   4.514  17.886  0.00  0.00    +0.000 C 
ATOM     12  O   UNL     1       1.269   4.503  17.215  0.00  0.00    +0.000 OA
BRANCH  11  13
ATOM     13  C   UNL     1       2.250   3.762  19.188  0.00  0.00    +0.000 A 
ATOM     14  C   UNL     1       1.016   3.697  19.857  0.00  0.00    +0.000 A 
ATOM     15  C   UNL     1       0.878   2.987  21.059  0.00  0.00    +0.000 A 
ATOM     16  C   UNL     1       1.980   2.350  21.623  0.00  0.00    +0.000 A 
ATOM     17  C   UNL     1       3.206   2.392  20.970  0.00  0.00    +0.000 A 
ATOM     18  C   UNL     1       3.325   3.053  19.740  0.00  0.00    +0.000 A 
ENDBRANCH  11  13
ENDBRANCH   1  11
BRANCH   1  19
ATOM     19  C   UNL     1       4.660   4.586  16.795  0.00  0.00    +0.000 C 
BRANCH  19  20
ATOM     20  O   UNL     1       5.774   5.443  16.504  0.00  0.00    +0.000 OA
BRANCH  20  22
ATOM     21  O   UNL     1       7.836   4.501  16.851  0.00  0.00    +0.000 OA
ATOM     22  C   UNL     1       6.917   4.833  16.123  0.00  0.00    +0.000 C 
BRANCH  22  23
ATOM     23  C   UNL     1       6.889   4.601  14.658  0.00  0.00    +0.000 A 
ATOM     24  C   UNL     1       7.752   5.362  13.859  0.00  0.00    +0.000 A 
ATOM     25  C   UNL     1       7.759   5.187  12.477  0.00  0.00    +0.000 A 
ATOM     26  C   UNL     1       6.919   4.253  11.889  0.00  0.00    +0.000 A 
ATOM     27  C   UNL     1       6.067   3.473  12.675  0.00  0.00    +0.000 A 
ATOM     28  C   UNL     1       6.056   3.646  14.062  0.00  0.00    +0.000 A 
ENDBRANCH  22  23
ENDBRANCH  20  22
ENDBRANCH  19  20
ENDBRANCH   1  19
TORSDOF 7
ENDMDL
MODEL 8
REMARK VINA RESULT:      -8.5      1.190      1.519
REMARK  Name = 
REMARK  7 active torsions:
REMARK  status: ('A' for Active; 'I' for Inactive)
REMARK    1  A    between atoms: C_2  and  O_3
REMARK    2  A    between atoms: C_2  and  C_23
REMARK    3  A    between atoms: O_3  and  C_4
REMARK    4  A    between atoms: C_4  and  C_5
REMARK    5  A    between atoms: C_5  and  C_15
REMARK    6  A    between atoms: C_6  and  C_7
REMARK    7  A    between atoms: C_15  and  C_17
REMARK                            x       y       z     vdW  Elec       q    Type
REMARK                         _______ _______ _______ _____ _____    ______ ____
ROOT
ATOM      1  C   UNL     1       3.328   5.289  17.634  0.00  0.00    +0.000 C 
ATOM      2  C   UNL     1       3.462   6.549  18.123  0.00  0.00    +0.000 C 
ENDROOT
BRANCH   2   3
ATOM      3  C   UNL     1       2.571   7.288  19.025  0.00  0.00    +0.000 A 
ATOM      4  C   UNL     1       2.307   6.743  20.290  0.00  0.00    +0.000 A 
ATOM      5  C   UNL     1       1.422   7.383  21.163  0.00  0.00    +0.000 A 
ATOM      6  C   UNL     1       0.814   8.575  20.777  0.00  0.00    +0.000 A 
ATOM      7 CL   UNL     1      -0.325   9.328  21.825  0.00  0.00    +0.000 Cl
ATOM      8  C   UNL     1       1.114   9.161  19.550  0.00  0.00    +0.000 A 
ATOM      9  C   UNL     1       1.994   8.519  18.676  0.00  0.00    +0.000 A 
ATOM     10 CL   UNL     1       2.365   9.300  17.177  0.00  0.00    +0.000 Cl
ENDBRANCH   2   3
BRANCH   1  11
ATOM     11  C   UNL     1       2.157   4.397  18.024  0.00  0.00    +0.000 C 
ATOM     12  O   UNL     1       1.169   4.294  17.299  0.00  0.00    +0.000 OA
BRANCH  11  13
ATOM     13  C   UNL     1       2.093   3.663  19.336  0.00  0.00    +0.000 A 
ATOM     14  C   UNL     1       3.291   3.142  19.852  0.00  0.00    +0.000 A 
ATOM     15  C   UNL     1       3.321   2.473  21.085  0.00  0.00    +0.000 A 
ATOM     16  C   UNL     1       2.146   2.295  21.810  0.00  0.00    +0.000 A 
ATOM     17  C   UNL     1       0.954   2.816  21.323  0.00  0.00    +0.000 A 
ATOM     18  C   UNL     1       0.938   3.533  20.119  0.00  0.00    +0.000 A 
ENDBRANCH  11  13
ENDBRANCH   1  11
BRANCH   1  19
ATOM     19  C   UNL     1       4.395   4.715  16.738  0.00  0.00    +0.000 C 
BRANCH  19  20
ATOM     20  O   UNL     1       5.161   5.729  16.070  0.00  0.00    +0.000 OA
BRANCH  20  22
ATOM     21  O   UNL     1       7.371   5.579  16.668  0.00  0.00    +0.000 OA
ATOM     22  C   UNL     1       6.467   5.453  15.861  0.00  0.00    +0.000 C 
BRANCH  22  23
ATOM     23  C   UNL     1       6.649   4.943  14.479  0.00  0.00    +0.000 A 
ATOM     24  C   UNL     1       5.781   3.937  14.035  0.00  0.00    +0.000 A 
ATOM     25  C   UNL     1       5.915   3.418  12.749  0.00  0.00    +0.000 A 
ATOM     26  C   UNL     1       6.900   3.904  11.901  0.00  0.00    +0.000 A 
ATOM     27  C   UNL     1       7.759   4.921  12.324  0.00  0.00    +0.000 A 
ATOM     28  C   UNL     1       7.629   5.443  13.614  0.00  0.00    +0.000 A 
ENDBRANCH  22  23
ENDBRANCH  20  22
ENDBRANCH  19  20
ENDBRANCH   1  19
TORSDOF 7
ENDMDL
MODEL 9
REMARK VINA RESULT:      -8.5      3.306      6.567
REMARK  Name = 
REMARK  7 active torsions:
REMARK  status: ('A' for Active; 'I' for Inactive)
REMARK    1  A    between atoms: C_2  and  O_3
REMARK    2  A    between atoms: C_2  and  C_23
REMARK    3  A    between atoms: O_3  and  C_4
REMARK    4  A    between atoms: C_4  and  C_5
REMARK    5  A    between atoms: C_5  and  C_15
REMARK    6  A    between atoms: C_6  and  C_7
REMARK    7  A    between atoms: C_15  and  C_17
REMARK                            x       y       z     vdW  Elec       q    Type
REMARK                         _______ _______ _______ _____ _____    ______ ____
ROOT
ATOM      1  C   UNL     1       5.211   5.368  17.385  0.00  0.00    +0.000 C 
ATOM      2  C   UNL     1       6.347   5.963  16.937  0.00  0.00    +0.000 C 
ENDROOT
BRANCH   2   3
ATOM      3  C   UNL     1       7.117   7.056  17.543  0.00  0.00    +0.000 A 
ATOM      4  C   UNL     1       6.926   8.356  17.052  0.00  0.00    +0.000 A 
ATOM      5  C   UNL     1       7.676   9.419  17.561  0.00  0.00    +0.000 A 
ATOM      6  C   UNL     1       8.607   9.186  18.571  0.00  0.00    +0.000 A 
ATOM      7 CL   UNL     1       9.577  10.484  19.151  0.00  0.00    +0.000 Cl
ATOM      8  C   UNL     1       8.765   7.913  19.111  0.00  0.00    +0.000 A 
ATOM      9  C   UNL     1       8.018   6.849  18.600  0.00  0.00    +0.000 A 
ATOM     10 CL   UNL     1       8.220   5.291  19.325  0.00  0.00    +0.000 Cl
ENDBRANCH   2   3
BRANCH   1  11
ATOM     11  C   UNL     1       4.562   5.768  18.702  0.00  0.00    +0.000 C 
ATOM     12  O   UNL     1       4.866   5.208  19.755  0.00  0.00    +0.000 OA
BRANCH  11  13
ATOM     13  C   UNL     1       3.465   6.794  18.793  0.00  0.00    +0.000 A 
ATOM     14  C   UNL     1       3.269   7.639  17.688  0.00  0.00    +0.000 A 
ATOM     15  C   UNL     1       2.246   8.600  17.681  0.00  0.00    +0.000 A 
ATOM     16  C   UNL     1       1.419   8.745  18.791  0.00  0.00    +0.000 A 
ATOM     17  C   UNL     1       1.588   7.909  19.887  0.00  0.00    +0.000 A 
ATOM     18  C   UNL     1       2.574   6.912  19.867  0.00  0.00    +0.000 A 
ENDBRANCH  11  13
ENDBRANCH   1  11
BRANCH   1  19
ATOM     19  C   UNL     1       4.606   4.229  16.606  0.00  0.00    +0.000 C 
BRANCH  19  20
ATOM     20  O   UNL     1       3.333   3.816  17.126  0.00  0.00    +0.000 OA
BRANCH  20  22
ATOM     21  O   UNL     1       3.820   1.604  17.485  0.00  0.00    +0.000 OA
ATOM     22  C   UNL     1       3.316   2.661  17.824  0.00  0.00    +0.000 C 
BRANCH  22  23
ATOM     23  C   UNL     1       2.596   2.868  19.104  0.00  0.00    +0.000 A 
ATOM     24  C   UNL     1       3.212   2.421  20.280  0.00  0.00    +0.000 A 
ATOM     25  C   UNL     1       2.574   2.584  21.507  0.00  0.00    +0.000 A 
ATOM     26  C   UNL     1       1.332   3.200  21.571  0.00  0.00    +0.000 A 
ATOM     27  C   UNL     1       0.715   3.669  20.408  0.00  0.00    +0.000 A 
ATOM     28  C   UNL     1       1.351   3.506  19.175  0.00  0.00    +0.000 A 
ENDBRANCH  22  23
ENDBRANCH  20  22
ENDBRANCH  19  20
ENDBRANCH   1  19
TORSDOF 7
ENDMDL
