MODEL 1
REMARK VINA RESULT:      -6.6      0.000      0.000
REMARK  Name = 
REMARK  8 active torsions:
REMARK  status: ('A' for Active; 'I' for Inactive)
REMARK    1  A    between atoms: C_1  and  O_2
REMARK    2  A    between atoms: O_2  and  C_3
REMARK    3  A    between atoms: C_6  and  C_7
REMARK    4  A    between atoms: C_7  and  C_9
REMARK    5  A    between atoms: C_9  and  C_10
REMARK    6  A    between atoms: C_10  and  N_11
REMARK    7  A    between atoms: N_11  and  C_12
REMARK    8  A    between atoms: N_11  and  C_13
REMARK                            x       y       z     vdW  Elec       q    Type
REMARK                         _______ _______ _______ _____ _____    ______ ____
ROOT
ATOM      1  C   UNL     1       4.996   4.798  16.673  0.00  0.00    +0.000 A 
ATOM      2  C   UNL     1       5.258   6.169  16.704  0.00  0.00    +0.000 A 
ATOM      3  C   UNL     1       4.378   7.049  17.310  0.00  0.00    +0.000 A 
ATOM      4  C   UNL     1       3.186   6.614  17.925  0.00  0.00    +0.000 A 
ATOM      5  C   UNL     1       2.885   5.209  17.892  0.00  0.00    +0.000 A 
ATOM      6  C   UNL     1       1.713   4.640  18.467  0.00  0.00    +0.000 A 
ATOM      7  C   UNL     1       1.471   3.268  18.413  0.00  0.00    +0.000 A 
ATOM      8  C   UNL     1       2.372   2.418  17.790  0.00  0.00    +0.000 A 
ATOM      9  C   UNL     1       3.529   2.930  17.214  0.00  0.00    +0.000 A 
ATOM     10  C   UNL     1       3.805   4.313  17.253  0.00  0.00    +0.000 A 
ENDROOT
BRANCH   1  12
ATOM     11  C   UNL     1       6.230   3.880  14.777  0.00  0.00    +0.000 C 
ATOM     12  O   UNL     1       5.878   3.924  16.111  0.00  0.00    +0.000 OA
ENDBRANCH   1  12
BRANCH   4  13
ATOM     13  C   UNL     1       2.325   7.672  18.581  0.00  0.00    +0.000 C 
ATOM     14  O   UNL     1       2.179   7.704  19.790  0.00  0.00    +0.000 OA
BRANCH  13  15
ATOM     15  C   UNL     1       1.622   8.733  17.754  0.00  0.00    +0.000 C 
BRANCH  15  16
ATOM     16  C   UNL     1       1.948  10.167  18.208  0.00  0.00    +0.000 C 
BRANCH  16  17
ATOM     17  N   UNL     1       0.760  10.896  18.705  0.00  0.00    +0.000 NA
ATOM     18  C   UNL     1      -0.500  10.227  18.337  0.00  0.00    +0.000 C 
ATOM     19  C   UNL     1       0.846  11.004  20.172  0.00  0.00    +0.000 C 
ENDBRANCH  16  17
ENDBRANCH  15  16
ENDBRANCH  13  15
ENDBRANCH   4  13
TORSDOF 5
ENDMDL
MODEL 2
REMARK VINA RESULT:      -6.5      3.727      5.027
REMARK  Name = 
REMARK  8 active torsions:
REMARK  status: ('A' for Active; 'I' for Inactive)
REMARK    1  A    between atoms: C_1  and  O_2
REMARK    2  A    between atoms: O_2  and  C_3
REMARK    3  A    between atoms: C_6  and  C_7
REMARK    4  A    between atoms: C_7  and  C_9
REMARK    5  A    between atoms: C_9  and  C_10
REMARK    6  A    between atoms: C_10  and  N_11
REMARK    7  A    between atoms: N_11  and  C_12
REMARK    8  A    between atoms: N_11  and  C_13
REMARK                            x       y       z     vdW  Elec       q    Type
REMARK                         _______ _______ _______ _____ _____    ______ ____
ROOT
ATOM      1  C   UNL     1       6.613   4.996  15.345  0.00  0.00    +0.000 A 
ATOM      2  C   UNL     1       5.589   4.243  14.766  0.00  0.00    +0.000 A 
ATOM      3  C   UNL     1       4.589   3.684  15.543  0.00  0.00    +0.000 A 
ATOM      4  C   UNL     1       4.549   3.845  16.944  0.00  0.00    +0.000 A 
ATOM      5  C   UNL     1       5.602   4.602  17.566  0.00  0.00    +0.000 A 
ATOM      6  C   UNL     1       5.684   4.833  18.968  0.00  0.00    +0.000 A 
ATOM      7  C   UNL     1       6.723   5.580  19.521  0.00  0.00    +0.000 A 
ATOM      8  C   UNL     1       7.711   6.119  18.711  0.00  0.00    +0.000 A 
ATOM      9  C   UNL     1       7.671   5.917  17.336  0.00  0.00    +0.000 A 
ATOM     10  C   UNL     1       6.633   5.168  16.744  0.00  0.00    +0.000 A 
ENDROOT
BRANCH   1  12
ATOM     11  C   UNL     1       7.846   5.284  13.258  0.00  0.00    +0.000 C 
ATOM     12  O   UNL     1       7.577   5.581  14.579  0.00  0.00    +0.000 OA
ENDBRANCH   1  12
BRANCH   4  13
ATOM     13  C   UNL     1       3.387   3.210  17.676  0.00  0.00    +0.000 C 
ATOM     14  O   UNL     1       3.413   2.036  18.001  0.00  0.00    +0.000 OA
BRANCH  13  15
ATOM     15  C   UNL     1       2.153   4.018  18.037  0.00  0.00    +0.000 C 
BRANCH  15  16
ATOM     16  C   UNL     1       1.108   3.205  18.822  0.00  0.00    +0.000 C 
BRANCH  16  17
ATOM     17  N   UNL     1       0.963   3.657  20.223  0.00  0.00    +0.000 NA
ATOM     18  C   UNL     1       1.515   2.685  21.184  0.00  0.00    +0.000 C 
ATOM     19  C   UNL     1       1.655   4.947  20.382  0.00  0.00    +0.000 C 
ENDBRANCH  16  17
ENDBRANCH  15  16
ENDBRANCH  13  15
ENDBRANCH   4  13
TORSDOF 5
ENDMDL
MODEL 3
REMARK VINA RESULT:      -6.5      4.027      5.435
REMARK  Name = 
REMARK  8 active torsions:
REMARK  status: ('A' for Active; 'I' for Inactive)
REMARK    1  A    between atoms: C_1  and  O_2
REMARK    2  A    between atoms: O_2  and  C_3
REMARK    3  A    between atoms: C_6  and  C_7
REMARK    4  A    between atoms: C_7  and  C_9
REMARK    5  A    between atoms: C_9  and  C_10
REMARK    6  A    between atoms: C_10  and  N_11
REMARK    7  A    between atoms: N_11  and  C_12
REMARK    8  A    between atoms: N_11  and  C_13
REMARK                            x       y       z     vdW  Elec       q    Type
REMARK                         _______ _______ _______ _____ _____    ______ ____
ROOT
ATOM      1  C   UNL     1       6.681   5.742  17.842  0.00  0.00    +0.000 A 
ATOM      2  C   UNL     1       5.814   5.507  18.912  0.00  0.00    +0.000 A 
ATOM      3  C   UNL     1       4.707   4.688  18.764  0.00  0.00    +0.000 A 
ATOM      4  C   UNL     1       4.400   4.053  17.543  0.00  0.00    +0.000 A 
ATOM      5  C   UNL     1       5.268   4.292  16.422  0.00  0.00    +0.000 A 
ATOM      6  C   UNL     1       5.069   3.720  15.134  0.00  0.00    +0.000 A 
ATOM      7  C   UNL     1       5.944   3.979  14.082  0.00  0.00    +0.000 A 
ATOM      8  C   UNL     1       7.040   4.811  14.264  0.00  0.00    +0.000 A 
ATOM      9  C   UNL     1       7.272   5.392  15.505  0.00  0.00    +0.000 A 
ATOM     10  C   UNL     1       6.407   5.149  16.592  0.00  0.00    +0.000 A 
ENDROOT
BRANCH   1  12
ATOM     11  C   UNL     1       7.835   7.892  17.898  0.00  0.00    +0.000 C 
ATOM     12  O   UNL     1       7.793   6.515  17.993  0.00  0.00    +0.000 OA
ENDBRANCH   1  12
BRANCH   4  13
ATOM     13  C   UNL     1       3.180   3.158  17.521  0.00  0.00    +0.000 C 
ATOM     14  O   UNL     1       2.228   3.409  16.803  0.00  0.00    +0.000 OA
BRANCH  13  15
ATOM     15  C   UNL     1       3.105   1.913  18.387  0.00  0.00    +0.000 C 
BRANCH  15  16
ATOM     16  C   UNL     1       1.965   1.965  19.420  0.00  0.00    +0.000 C 
BRANCH  16  17
ATOM     17  N   UNL     1       2.056   3.138  20.317  0.00  0.00    +0.000 NA
ATOM     18  C   UNL     1       0.854   3.988  20.249  0.00  0.00    +0.000 C 
ATOM     19  C   UNL     1       2.243   2.667  21.701  0.00  0.00    +0.000 C 
ENDBRANCH  16  17
ENDBRANCH  15  16
ENDBRANCH  13  15
ENDBRANCH   4  13
TORSDOF 5
ENDMDL
MODEL 4
REMARK VINA RESULT:      -6.5      2.809      5.560
REMARK  Name = 
REMARK  8 active torsions:
REMARK  status: ('A' for Active; 'I' for Inactive)
REMARK    1  A    between atoms: C_1  and  O_2
REMARK    2  A    between atoms: O_2  and  C_3
REMARK    3  A    between atoms: C_6  and  C_7
REMARK    4  A    between atoms: C_7  and  C_9
REMARK    5  A    between atoms: C_9  and  C_10
REMARK    6  A    between atoms: C_10  and  N_11
REMARK    7  A    between atoms: N_11  and  C_12
REMARK    8  A    between atoms: N_11  and  C_13
REMARK                            x       y       z     vdW  Elec       q    Type
REMARK                         _______ _______ _______ _____ _____    ______ ____
ROOT
ATOM      1  C   UNL     1       2.241   6.498  19.858  0.00  0.00    +0.000 A 
ATOM      2  C   UNL     1       2.769   7.159  18.747  0.00  0.00    +0.000 A 
ATOM      3  C   UNL     1       3.607   6.505  17.860  0.00  0.00    +0.000 A 
ATOM      4  C   UNL     1       3.966   5.151  18.028  0.00  0.00    +0.000 A 
ATOM      5  C   UNL     1       3.450   4.453  19.174  0.00  0.00    +0.000 A 
ATOM      6  C   UNL     1       3.740   3.090  19.464  0.00  0.00    +0.000 A 
ATOM      7  C   UNL     1       3.208   2.458  20.586  0.00  0.00    +0.000 A 
ATOM      8  C   UNL     1       2.377   3.148  21.457  0.00  0.00    +0.000 A 
ATOM      9  C   UNL     1       2.068   4.481  21.212  0.00  0.00    +0.000 A 
ATOM     10  C   UNL     1       2.588   5.151  20.085  0.00  0.00    +0.000 A 
ENDROOT
BRANCH   1  12
ATOM     11  C   UNL     1       1.290   8.493  20.895  0.00  0.00    +0.000 C 
ATOM     12  O   UNL     1       1.385   7.128  20.712  0.00  0.00    +0.000 OA
ENDBRANCH   1  12
BRANCH   4  13
ATOM     13  C   UNL     1       4.864   4.542  16.972  0.00  0.00    +0.000 C 
ATOM     14  O   UNL     1       4.398   4.001  15.985  0.00  0.00    +0.000 OA
BRANCH  13  15
ATOM     15  C   UNL     1       6.375   4.594  17.105  0.00  0.00    +0.000 C 
BRANCH  15  16
ATOM     16  C   UNL     1       6.982   5.910  16.585  0.00  0.00    +0.000 C 
BRANCH  16  17
ATOM     17  N   UNL     1       7.871   6.562  17.571  0.00  0.00    +0.000 NA
ATOM     18  C   UNL     1       7.681   8.023  17.616  0.00  0.00    +0.000 C 
ATOM     19  C   UNL     1       7.602   5.994  18.904  0.00  0.00    +0.000 C 
ENDBRANCH  16  17
ENDBRANCH  15  16
ENDBRANCH  13  15
ENDBRANCH   4  13
TORSDOF 5
ENDMDL
MODEL 5
REMARK VINA RESULT:      -6.5      2.658      5.601
REMARK  Name = 
REMARK  8 active torsions:
REMARK  status: ('A' for Active; 'I' for Inactive)
REMARK    1  A    between atoms: C_1  and  O_2
REMARK    2  A    between atoms: O_2  and  C_3
REMARK    3  A    between atoms: C_6  and  C_7
REMARK    4  A    between atoms: C_7  and  C_9
REMARK    5  A    between atoms: C_9  and  C_10
REMARK    6  A    between atoms: C_10  and  N_11
REMARK    7  A    between atoms: N_11  and  C_12
REMARK    8  A    between atoms: N_11  and  C_13
REMARK                            x       y       z     vdW  Elec       q    Type
REMARK                         _______ _______ _______ _____ _____    ______ ____
ROOT
ATOM      1  C   UNL     1       2.005   6.482  20.008  0.00  0.00    +0.000 A 
ATOM      2  C   UNL     1       2.762   7.267  19.135  0.00  0.00    +0.000 A 
ATOM      3  C   UNL     1       3.490   6.691  18.108  0.00  0.00    +0.000 A 
ATOM      4  C   UNL     1       3.503   5.298  17.887  0.00  0.00    +0.000 A 
ATOM      5  C   UNL     1       2.745   4.466  18.783  0.00  0.00    +0.000 A 
ATOM      6  C   UNL     1       2.680   3.048  18.677  0.00  0.00    +0.000 A 
ATOM      7  C   UNL     1       1.924   2.288  19.567  0.00  0.00    +0.000 A 
ATOM      8  C   UNL     1       1.214   2.900  20.590  0.00  0.00    +0.000 A 
ATOM      9  C   UNL     1       1.251   4.282  20.731  0.00  0.00    +0.000 A 
ATOM     10  C   UNL     1       2.003   5.081  19.846  0.00  0.00    +0.000 A 
ENDROOT
BRANCH   1  12
ATOM     11  C   UNL     1       1.031   8.401  21.161  0.00  0.00    +0.000 C 
ATOM     12  O   UNL     1       1.257   7.048  20.997  0.00  0.00    +0.000 OA
ENDBRANCH   1  12
BRANCH   4  13
ATOM     13  C   UNL     1       4.312   4.796  16.711  0.00  0.00    +0.000 C 
ATOM     14  O   UNL     1       4.262   3.629  16.365  0.00  0.00    +0.000 OA
BRANCH  13  15
ATOM     15  C   UNL     1       5.207   5.732  15.919  0.00  0.00    +0.000 C 
BRANCH  15  16
ATOM     16  C   UNL     1       6.633   5.186  15.728  0.00  0.00    +0.000 C 
BRANCH  16  17
ATOM     17  N   UNL     1       7.577   5.671  16.759  0.00  0.00    +0.000 NA
ATOM     18  C   UNL     1       7.164   6.966  17.330  0.00  0.00    +0.000 C 
ATOM     19  C   UNL     1       7.665   4.669  17.835  0.00  0.00    +0.000 C 
ENDBRANCH  16  17
ENDBRANCH  15  16
ENDBRANCH  13  15
ENDBRANCH   4  13
TORSDOF 5
ENDMDL
MODEL 6
REMARK VINA RESULT:      -6.4      2.906      5.786
REMARK  Name = 
REMARK  8 active torsions:
REMARK  status: ('A' for Active; 'I' for Inactive)
REMARK    1  A    between atoms: C_1  and  O_2
REMARK    2  A    between atoms: O_2  and  C_3
REMARK    3  A    between atoms: C_6  and  C_7
REMARK    4  A    between atoms: C_7  and  C_9
REMARK    5  A    between atoms: C_9  and  C_10
REMARK    6  A    between atoms: C_10  and  N_11
REMARK    7  A    between atoms: N_11  and  C_12
REMARK    8  A    between atoms: N_11  and  C_13
REMARK                            x       y       z     vdW  Elec       q    Type
REMARK                         _______ _______ _______ _____ _____    ______ ____
ROOT
ATOM      1  C   UNL     1       2.709   3.594  18.980  0.00  0.00    +0.000 A 
ATOM      2  C   UNL     1       3.382   2.578  18.297  0.00  0.00    +0.000 A 
ATOM      3  C   UNL     1       4.241   2.870  17.251  0.00  0.00    +0.000 A 
ATOM      4  C   UNL     1       4.484   4.194  16.828  0.00  0.00    +0.000 A 
ATOM      5  C   UNL     1       3.790   5.256  17.504  0.00  0.00    +0.000 A 
ATOM      6  C   UNL     1       3.939   6.632  17.170  0.00  0.00    +0.000 A 
ATOM      7  C   UNL     1       3.248   7.625  17.862  0.00  0.00    +0.000 A 
ATOM      8  C   UNL     1       2.389   7.293  18.900  0.00  0.00    +0.000 A 
ATOM      9  C   UNL     1       2.213   5.962  19.258  0.00  0.00    +0.000 A 
ATOM     10  C   UNL     1       2.898   4.932  18.580  0.00  0.00    +0.000 A 
ENDROOT
BRANCH   1  12
ATOM     11  C   UNL     1       2.296   2.803  21.252  0.00  0.00    +0.000 C 
ATOM     12  O   UNL     1       1.893   3.313  20.035  0.00  0.00    +0.000 OA
ENDBRANCH   1  12
BRANCH   4  13
ATOM     13  C   UNL     1       5.469   4.382  15.695  0.00  0.00    +0.000 C 
ATOM     14  O   UNL     1       5.109   4.332  14.532  0.00  0.00    +0.000 OA
BRANCH  13  15
ATOM     15  C   UNL     1       6.938   4.649  15.970  0.00  0.00    +0.000 C 
BRANCH  15  16
ATOM     16  C   UNL     1       7.296   4.568  17.465  0.00  0.00    +0.000 C 
BRANCH  16  17
ATOM     17  N   UNL     1       7.937   5.803  17.969  0.00  0.00    +0.000 NA
ATOM     18  C   UNL     1       7.314   7.020  17.420  0.00  0.00    +0.000 C 
ATOM     19  C   UNL     1       7.838   5.825  19.439  0.00  0.00    +0.000 C 
ENDBRANCH  16  17
ENDBRANCH  15  16
ENDBRANCH  13  15
ENDBRANCH   4  13
TORSDOF 5
ENDMDL
MODEL 7
REMARK VINA RESULT:      -6.3      2.942      6.200
REMARK  Name = 
REMARK  8 active torsions:
REMARK  status: ('A' for Active; 'I' for Inactive)
REMARK    1  A    between atoms: C_1  and  O_2
REMARK    2  A    between atoms: O_2  and  C_3
REMARK    3  A    between atoms: C_6  and  C_7
REMARK    4  A    between atoms: C_7  and  C_9
REMARK    5  A    between atoms: C_9  and  C_10
REMARK    6  A    between atoms: C_10  and  N_11
REMARK    7  A    between atoms: N_11  and  C_12
REMARK    8  A    between atoms: N_11  and  C_13
REMARK                            x       y       z     vdW  Elec       q    Type
REMARK                         _______ _______ _______ _____ _____    ______ ____
ROOT
ATOM      1  C   UNL     1       2.991   6.645  18.136  0.00  0.00    +0.000 A 
ATOM      2  C   UNL     1       4.130   7.322  17.696  0.00  0.00    +0.000 A 
ATOM      3  C   UNL     1       5.193   6.636  17.132  0.00  0.00    +0.000 A 
ATOM      4  C   UNL     1       5.180   5.235  16.970  0.00  0.00    +0.000 A 
ATOM      5  C   UNL     1       4.024   4.514  17.431  0.00  0.00    +0.000 A 
ATOM      6  C   UNL     1       3.887   3.100  17.334  0.00  0.00    +0.000 A 
ATOM      7  C   UNL     1       2.743   2.449  17.790  0.00  0.00    +0.000 A 
ATOM      8  C   UNL     1       1.701   3.170  18.357  0.00  0.00    +0.000 A 
ATOM      9  C   UNL     1       1.793   4.552  18.473  0.00  0.00    +0.000 A 
ATOM     10  C   UNL     1       2.936   5.242  18.019  0.00  0.00    +0.000 A 
ENDROOT
BRANCH   1  12
ATOM     11  C   UNL     1       1.900   7.962  19.879  0.00  0.00    +0.000 C 
ATOM     12  O   UNL     1       1.927   7.321  18.657  0.00  0.00    +0.000 OA
ENDBRANCH   1  12
BRANCH   4  13
ATOM     13  C   UNL     1       6.389   4.608  16.310  0.00  0.00    +0.000 C 
ATOM     14  O   UNL     1       7.519   4.900  16.660  0.00  0.00    +0.000 OA
BRANCH  13  15
ATOM     15  C   UNL     1       6.233   3.589  15.196  0.00  0.00    +0.000 C 
BRANCH  15  16
ATOM     16  C   UNL     1       5.608   4.181  13.919  0.00  0.00    +0.000 C 
BRANCH  16  17
ATOM     17  N   UNL     1       5.910   3.384  12.710  0.00  0.00    +0.000 NA
ATOM     18  C   UNL     1       4.750   3.278  11.806  0.00  0.00    +0.000 C 
ATOM     19  C   UNL     1       7.032   4.013  11.992  0.00  0.00    +0.000 C 
ENDBRANCH  16  17
ENDBRANCH  15  16
ENDBRANCH  13  15
ENDBRANCH   4  13
TORSDOF 5
ENDMDL
MODEL 8
REMARK VINA RESULT:      -6.3      3.250      6.470
REMARK  Name = 
REMARK  8 active torsions:
REMARK  status: ('A' for Active; 'I' for Inactive)
REMARK    1  A    between atoms: C_1  and  O_2
REMARK    2  A    between atoms: O_2  and  C_3
REMARK    3  A    between atoms: C_6  and  C_7
REMARK    4  A    between atoms: C_7  and  C_9
REMARK    5  A    between atoms: C_9  and  C_10
REMARK    6  A    between atoms: C_10  and  N_11
REMARK    7  A    between atoms: N_11  and  C_12
REMARK    8  A    between atoms: N_11  and  C_13
REMARK                            x       y       z     vdW  Elec       q    Type
REMARK                         _______ _______ _______ _____ _____    ______ ____
ROOT
ATOM      1  C   UNL     1       2.914   3.730  18.360  0.00  0.00    +0.000 A 
ATOM      2  C   UNL     1       3.798   2.732  17.945  0.00  0.00    +0.000 A 
ATOM      3  C   UNL     1       4.942   3.046  17.231  0.00  0.00    +0.000 A 
ATOM      4  C   UNL     1       5.274   4.374  16.893  0.00  0.00    +0.000 A 
ATOM      5  C   UNL     1       4.371   5.418  17.294  0.00  0.00    +0.000 A 
ATOM      6  C   UNL     1       4.584   6.797  17.010  0.00  0.00    +0.000 A 
ATOM      7  C   UNL     1       3.680   7.772  17.428  0.00  0.00    +0.000 A 
ATOM      8  C   UNL     1       2.539   7.418  18.135  0.00  0.00    +0.000 A 
ATOM      9  C   UNL     1       2.292   6.083  18.433  0.00  0.00    +0.000 A 
ATOM     10  C   UNL     1       3.187   5.072  18.027  0.00  0.00    +0.000 A 
ENDROOT
BRANCH   1  12
ATOM     11  C   UNL     1       0.767   2.616  18.692  0.00  0.00    +0.000 C 
ATOM     12  O   UNL     1       1.807   3.429  19.097  0.00  0.00    +0.000 OA
ENDBRANCH   1  12
BRANCH   4  13
ATOM     13  C   UNL     1       6.568   4.588  16.138  0.00  0.00    +0.000 C 
ATOM     14  O   UNL     1       7.636   4.647  16.722  0.00  0.00    +0.000 OA
BRANCH  13  15
ATOM     15  C   UNL     1       6.580   4.727  14.626  0.00  0.00    +0.000 C 
BRANCH  15  16
ATOM     16  C   UNL     1       5.396   4.016  13.946  0.00  0.00    +0.000 C 
BRANCH  16  17
ATOM     17  N   UNL     1       5.782   3.328  12.694  0.00  0.00    +0.000 NA
ATOM     18  C   UNL     1       4.696   3.329  11.698  0.00  0.00    +0.000 C 
ATOM     19  C   UNL     1       6.965   3.998  12.127  0.00  0.00    +0.000 C 
ENDBRANCH  16  17
ENDBRANCH  15  16
ENDBRANCH  13  15
ENDBRANCH   4  13
TORSDOF 5
ENDMDL
MODEL 9
REMARK VINA RESULT:      -6.3      2.805      5.743
REMARK  Name = 
REMARK  8 active torsions:
REMARK  status: ('A' for Active; 'I' for Inactive)
REMARK    1  A    between atoms: C_1  and  O_2
REMARK    2  A    between atoms: O_2  and  C_3
REMARK    3  A    between atoms: C_6  and  C_7
REMARK    4  A    between atoms: C_7  and  C_9
REMARK    5  A    between atoms: C_9  and  C_10
REMARK    6  A    between atoms: C_10  and  N_11
REMARK    7  A    between atoms: N_11  and  C_12
REMARK    8  A    between atoms: N_11  and  C_13
REMARK                            x       y       z     vdW  Elec       q    Type
REMARK                         _______ _______ _______ _____ _____    ______ ____
ROOT
ATOM      1  C   UNL     1       2.795   3.640  18.589  0.00  0.00    +0.000 A 
ATOM      2  C   UNL     1       3.526   2.684  17.880  0.00  0.00    +0.000 A 
ATOM      3  C   UNL     1       4.431   3.061  16.902  0.00  0.00    +0.000 A 
ATOM      4  C   UNL     1       4.663   4.414  16.576  0.00  0.00    +0.000 A 
ATOM      5  C   UNL     1       3.910   5.416  17.281  0.00  0.00    +0.000 A 
ATOM      6  C   UNL     1       4.043   6.813  17.044  0.00  0.00    +0.000 A 
ATOM      7  C   UNL     1       3.294   7.745  17.760  0.00  0.00    +0.000 A 
ATOM      8  C   UNL     1       2.390   7.329  18.727  0.00  0.00    +0.000 A 
ATOM      9  C   UNL     1       2.228   5.974  18.990  0.00  0.00    +0.000 A 
ATOM     10  C   UNL     1       2.972   5.005  18.286  0.00  0.00    +0.000 A 
ENDROOT
BRANCH   1  12
ATOM     11  C   UNL     1       0.712   2.654  19.396  0.00  0.00    +0.000 C 
ATOM     12  O   UNL     1       1.932   3.274  19.579  0.00  0.00    +0.000 OA
ENDBRANCH   1  12
BRANCH   4  13
ATOM     13  C   UNL     1       5.700   4.696  15.511  0.00  0.00    +0.000 C 
ATOM     14  O   UNL     1       5.427   4.609  14.327  0.00  0.00    +0.000 OA
BRANCH  13  15
ATOM     15  C   UNL     1       7.114   5.104  15.883  0.00  0.00    +0.000 C 
BRANCH  15  16
ATOM     16  C   UNL     1       7.480   4.757  17.338  0.00  0.00    +0.000 C 
BRANCH  16  17
ATOM     17  N   UNL     1       7.223   5.872  18.276  0.00  0.00    +0.000 NA
ATOM     18  C   UNL     1       7.905   5.683  19.569  0.00  0.00    +0.000 C 
ATOM     19  C   UNL     1       7.685   7.129  17.661  0.00  0.00    +0.000 C 
ENDBRANCH  16  17
ENDBRANCH  15  16
ENDBRANCH  13  15
ENDBRANCH   4  13
TORSDOF 5
ENDMDL
