MODEL 1
REMARK VINA RESULT:      -7.7      0.000      0.000
REMARK  Name = 
REMARK  5 active torsions:
REMARK  status: ('A' for Active; 'I' for Inactive)
REMARK    1  A    between atoms: C_1  and  O_2
REMARK    2  A    between atoms: O_2  and  C_3
REMARK    3  A    between atoms: C_6  and  C_7
REMARK    4  A    between atoms: C_9  and  C_10
REMARK    5  A    between atoms: C_10  and  N_11
REMARK                            x       y       z     vdW  Elec       q    Type
REMARK                         _______ _______ _______ _____ _____    ______ ____
ROOT
ATOM      1  C   UNL     1       8.141   8.734  18.137  0.00  0.00    +0.000 A 
ATOM      2  N   UNL     1       7.173   8.372  17.313  0.00  0.00    +0.000 NA
ATOM      3  C   UNL     1       7.042   7.010  17.524  0.00  0.00    +0.000 A 
ATOM      4  C   UNL     1       7.951   6.608  18.475  0.00  0.00    +0.000 A 
ATOM      5  O   UNL     1       8.659   7.699  18.875  0.00  0.00    +0.000 OA
ENDROOT
BRANCH   1   9
ATOM      6  C   UNL     1       9.738  12.643  18.849  0.00  0.00    +0.000 A 
ATOM      7  C   UNL     1       8.854  12.421  17.792  0.00  0.00    +0.000 A 
ATOM      8  C   UNL     1       8.338  11.140  17.560  0.00  0.00    +0.000 A 
ATOM      9  C   UNL     1       8.706  10.061  18.371  0.00  0.00    +0.000 A 
ATOM     10  C   UNL     1       9.616  10.291  19.413  0.00  0.00    +0.000 A 
ATOM     11  C   UNL     1      10.129  11.569  19.649  0.00  0.00    +0.000 A 
BRANCH   6  13
ATOM     12  C   UNL     1      10.998  14.411  17.932  0.00  0.00    +0.000 C 
ATOM     13  O   UNL     1      10.184  13.928  18.996  0.00  0.00    +0.000 OA
ENDBRANCH   6  13
ENDBRANCH   1   9
BRANCH   3  14
ATOM     14  C   UNL     1       6.051   6.209  16.745  0.00  0.00    +0.000 C 
BRANCH  14  15
ATOM     15  N   UNL     1       5.584   5.007  17.477  0.00  0.00    +0.000 NA
ATOM     16  C   UNL     1       4.894   5.386  18.727  0.00  0.00    +0.000 C 
ATOM     17  C   UNL     1       4.301   4.180  19.453  0.00  0.00    +0.000 C 
ATOM     18  C   UNL     1       3.352   3.410  18.550  0.00  0.00    +0.000 C 
ATOM     19  C   UNL     1       4.077   3.014  17.268  0.00  0.00    +0.000 C 
ATOM     20  C   UNL     1       4.691   4.233  16.588  0.00  0.00    +0.000 C 
ATOM     21  O   UNL     1       2.211   4.232  18.242  0.00  0.00    +0.000 OA
ATOM     22  C   UNL     1       1.082   3.380  18.411  0.00  0.00    +0.000 C 
ATOM     23  C   UNL     1       1.522   2.420  19.481  0.00  0.00    +0.000 C 
ATOM     24  O   UNL     1       2.905   2.210  19.208  0.00  0.00    +0.000 OA
ENDBRANCH  14  15
ENDBRANCH   3  14
TORSDOF 4
ENDMDL
MODEL 2
REMARK VINA RESULT:      -7.7      0.481      1.095
REMARK  Name = 
REMARK  5 active torsions:
REMARK  status: ('A' for Active; 'I' for Inactive)
REMARK    1  A    between atoms: C_1  and  O_2
REMARK    2  A    between atoms: O_2  and  C_3
REMARK    3  A    between atoms: C_6  and  C_7
REMARK    4  A    between atoms: C_9  and  C_10
REMARK    5  A    between atoms: C_10  and  N_11
REMARK                            x       y       z     vdW  Elec       q    Type
REMARK                         _______ _______ _______ _____ _____    ______ ____
ROOT
ATOM      1  C   UNL     1       8.124   8.774  18.100  0.00  0.00    +0.000 A 
ATOM      2  N   UNL     1       7.155   8.394  17.286  0.00  0.00    +0.000 NA
ATOM      3  C   UNL     1       7.037   7.034  17.514  0.00  0.00    +0.000 A 
ATOM      4  C   UNL     1       7.954   6.651  18.464  0.00  0.00    +0.000 A 
ATOM      5  O   UNL     1       8.656   7.753  18.848  0.00  0.00    +0.000 OA
ENDROOT
BRANCH   1   9
ATOM      6  C   UNL     1       9.810  12.664  18.701  0.00  0.00    +0.000 A 
ATOM      7  C   UNL     1      10.191  11.594  19.512  0.00  0.00    +0.000 A 
ATOM      8  C   UNL     1       9.634  10.325  19.315  0.00  0.00    +0.000 A 
ATOM      9  C   UNL     1       8.680  10.109  18.315  0.00  0.00    +0.000 A 
ATOM     10  C   UNL     1       8.284  11.197  17.524  0.00  0.00    +0.000 A 
ATOM     11  C   UNL     1       8.842  12.464  17.716  0.00  0.00    +0.000 A 
BRANCH   6  13
ATOM     12  C   UNL     1      11.108  13.926  20.210  0.00  0.00    +0.000 C 
ATOM     13  O   UNL     1      10.413  13.863  18.969  0.00  0.00    +0.000 OA
ENDBRANCH   6  13
ENDBRANCH   1   9
BRANCH   3  14
ATOM     14  C   UNL     1       6.048   6.216  16.751  0.00  0.00    +0.000 C 
BRANCH  14  15
ATOM     15  N   UNL     1       5.583   5.026  17.506  0.00  0.00    +0.000 NA
ATOM     16  C   UNL     1       4.855   5.430  18.726  0.00  0.00    +0.000 C 
ATOM     17  C   UNL     1       4.265   4.234  19.472  0.00  0.00    +0.000 C 
ATOM     18  C   UNL     1       3.352   3.421  18.569  0.00  0.00    +0.000 C 
ATOM     19  C   UNL     1       4.117   3.001  17.317  0.00  0.00    +0.000 C 
ATOM     20  C   UNL     1       4.727   4.211  16.617  0.00  0.00    +0.000 C 
ATOM     21  O   UNL     1       2.206   4.213  18.209  0.00  0.00    +0.000 OA
ATOM     22  C   UNL     1       1.088   3.347  18.374  0.00  0.00    +0.000 C 
ATOM     23  C   UNL     1       1.517   2.426  19.483  0.00  0.00    +0.000 C 
ATOM     24  O   UNL     1       2.910   2.233  19.251  0.00  0.00    +0.000 OA
ENDBRANCH  14  15
ENDBRANCH   3  14
TORSDOF 4
ENDMDL
MODEL 3
REMARK VINA RESULT:      -7.7      0.846      1.484
REMARK  Name = 
REMARK  5 active torsions:
REMARK  status: ('A' for Active; 'I' for Inactive)
REMARK    1  A    between atoms: C_1  and  O_2
REMARK    2  A    between atoms: O_2  and  C_3
REMARK    3  A    between atoms: C_6  and  C_7
REMARK    4  A    between atoms: C_9  and  C_10
REMARK    5  A    between atoms: C_10  and  N_11
REMARK                            x       y       z     vdW  Elec       q    Type
REMARK                         _______ _______ _______ _____ _____    ______ ____
ROOT
ATOM      1  C   UNL     1       8.079   8.325  18.044  0.00  0.00    +0.000 A 
ATOM      2  N   UNL     1       7.306   7.916  17.053  0.00  0.00    +0.000 NA
ATOM      3  C   UNL     1       7.148   6.560  17.286  0.00  0.00    +0.000 A 
ATOM      4  C   UNL     1       7.844   6.210  18.419  0.00  0.00    +0.000 A 
ATOM      5  O   UNL     1       8.443   7.327  18.914  0.00  0.00    +0.000 OA
ENDROOT
BRANCH   1   9
ATOM      6  C   UNL     1       9.456  12.283  18.923  0.00  0.00    +0.000 A 
ATOM      7  C   UNL     1       8.683  12.038  17.787  0.00  0.00    +0.000 A 
ATOM      8  C   UNL     1       8.239  10.741  17.501  0.00  0.00    +0.000 A 
ATOM      9  C   UNL     1       8.570   9.670  18.337  0.00  0.00    +0.000 A 
ATOM     10  C   UNL     1       9.371   9.923  19.460  0.00  0.00    +0.000 A 
ATOM     11  C   UNL     1       9.811  11.217  19.750  0.00  0.00    +0.000 A 
BRANCH   6  13
ATOM     12  C   UNL     1      11.181  13.880  18.745  0.00  0.00    +0.000 C 
ATOM     13  O   UNL     1       9.839  13.582  19.118  0.00  0.00    +0.000 OA
ENDBRANCH   6  13
ENDBRANCH   1   9
BRANCH   3  14
ATOM     14  C   UNL     1       6.348   5.714  16.352  0.00  0.00    +0.000 C 
BRANCH  14  15
ATOM     15  N   UNL     1       4.965   5.476  16.835  0.00  0.00    +0.000 NA
ATOM     16  C   UNL     1       4.556   4.079  16.589  0.00  0.00    +0.000 C 
ATOM     17  C   UNL     1       3.179   3.765  17.173  0.00  0.00    +0.000 C 
ATOM     18  C   UNL     1       3.135   4.063  18.662  0.00  0.00    +0.000 C 
ATOM     19  C   UNL     1       3.550   5.512  18.904  0.00  0.00    +0.000 C 
ATOM     20  C   UNL     1       4.909   5.804  18.276  0.00  0.00    +0.000 C 
ATOM     21  O   UNL     1       4.024   3.170  19.356  0.00  0.00    +0.000 OA
ATOM     22  C   UNL     1       3.286   2.711  20.484  0.00  0.00    +0.000 C 
ATOM     23  C   UNL     1       1.860   2.734  20.005  0.00  0.00    +0.000 C 
ATOM     24  O   UNL     1       1.799   3.884  19.165  0.00  0.00    +0.000 OA
ENDBRANCH  14  15
ENDBRANCH   3  14
TORSDOF 4
ENDMDL
MODEL 4
REMARK VINA RESULT:      -7.6      1.008      1.174
REMARK  Name = 
REMARK  5 active torsions:
REMARK  status: ('A' for Active; 'I' for Inactive)
REMARK    1  A    between atoms: C_1  and  O_2
REMARK    2  A    between atoms: O_2  and  C_3
REMARK    3  A    between atoms: C_6  and  C_7
REMARK    4  A    between atoms: C_9  and  C_10
REMARK    5  A    between atoms: C_10  and  N_11
REMARK                            x       y       z     vdW  Elec       q    Type
REMARK                         _______ _______ _______ _____ _____    ______ ____
ROOT
ATOM      1  C   UNL     1       8.332   9.158  18.158  0.00  0.00    +0.000 A 
ATOM      2  N   UNL     1       7.313   8.772  17.410  0.00  0.00    +0.000 NA
ATOM      3  C   UNL     1       7.185   7.421  17.686  0.00  0.00    +0.000 A 
ATOM      4  C   UNL     1       8.147   7.051  18.598  0.00  0.00    +0.000 A 
ATOM      5  O   UNL     1       8.886   8.151  18.907  0.00  0.00    +0.000 OA
ENDROOT
BRANCH   1   9
ATOM      6  C   UNL     1      10.002  13.075  18.612  0.00  0.00    +0.000 A 
ATOM      7  C   UNL     1       8.952  12.852  17.720  0.00  0.00    +0.000 A 
ATOM      8  C   UNL     1       8.413  11.569  17.571  0.00  0.00    +0.000 A 
ATOM      9  C   UNL     1       8.920  10.488  18.301  0.00  0.00    +0.000 A 
ATOM     10  C   UNL     1       9.994  10.719  19.173  0.00  0.00    +0.000 A 
ATOM     11  C   UNL     1      10.531  12.000  19.327  0.00  0.00    +0.000 A 
BRANCH   6  13
ATOM     12  C   UNL     1      10.697  14.996  17.436  0.00  0.00    +0.000 C 
ATOM     13  O   UNL     1      10.458  14.363  18.689  0.00  0.00    +0.000 OA
ENDBRANCH   6  13
ENDBRANCH   1   9
BRANCH   3  14
ATOM     14  C   UNL     1       6.143   6.598  17.004  0.00  0.00    +0.000 C 
BRANCH  14  15
ATOM     15  N   UNL     1       5.133   6.056  17.946  0.00  0.00    +0.000 NA
ATOM     16  C   UNL     1       3.781   6.106  17.353  0.00  0.00    +0.000 C 
ATOM     17  C   UNL     1       2.729   5.454  18.249  0.00  0.00    +0.000 C 
ATOM     18  C   UNL     1       3.101   4.016  18.572  0.00  0.00    +0.000 C 
ATOM     19  C   UNL     1       4.494   3.978  19.194  0.00  0.00    +0.000 C 
ATOM     20  C   UNL     1       5.513   4.670  18.295  0.00  0.00    +0.000 C 
ATOM     21  O   UNL     1       3.073   3.231  17.367  0.00  0.00    +0.000 OA
ATOM     22  C   UNL     1       2.382   2.035  17.716  0.00  0.00    +0.000 C 
ATOM     23  C   UNL     1       1.431   2.480  18.793  0.00  0.00    +0.000 C 
ATOM     24  O   UNL     1       2.167   3.463  19.518  0.00  0.00    +0.000 OA
ENDBRANCH  14  15
ENDBRANCH   3  14
TORSDOF 4
ENDMDL
MODEL 5
REMARK VINA RESULT:      -7.6      0.932      1.840
REMARK  Name = 
REMARK  5 active torsions:
REMARK  status: ('A' for Active; 'I' for Inactive)
REMARK    1  A    between atoms: C_1  and  O_2
REMARK    2  A    between atoms: O_2  and  C_3
REMARK    3  A    between atoms: C_6  and  C_7
REMARK    4  A    between atoms: C_9  and  C_10
REMARK    5  A    between atoms: C_10  and  N_11
REMARK                            x       y       z     vdW  Elec       q    Type
REMARK                         _______ _______ _______ _____ _____    ______ ____
ROOT
ATOM      1  C   UNL     1       8.134   8.467  18.089  0.00  0.00    +0.000 A 
ATOM      2  N   UNL     1       7.350   8.031  17.120  0.00  0.00    +0.000 NA
ATOM      3  C   UNL     1       7.219   6.677  17.376  0.00  0.00    +0.000 A 
ATOM      4  C   UNL     1       7.942   6.355  18.501  0.00  0.00    +0.000 A 
ATOM      5  O   UNL     1       8.532   7.490  18.967  0.00  0.00    +0.000 OA
ENDROOT
BRANCH   1   9
ATOM      6  C   UNL     1       9.587  12.426  18.835  0.00  0.00    +0.000 A 
ATOM      7  C   UNL     1       9.942  11.371  19.677  0.00  0.00    +0.000 A 
ATOM      8  C   UNL     1       9.461  10.079  19.432  0.00  0.00    +0.000 A 
ATOM      9  C   UNL     1       8.609   9.825  18.352  0.00  0.00    +0.000 A 
ATOM     10  C   UNL     1       8.236  10.897  17.530  0.00  0.00    +0.000 A 
ATOM     11  C   UNL     1       8.719  12.187  17.770  0.00  0.00    +0.000 A 
BRANCH   6  13
ATOM     12  C   UNL     1       9.310  14.439  20.031  0.00  0.00    +0.000 C 
ATOM     13  O   UNL     1      10.110  13.649  19.156  0.00  0.00    +0.000 OA
ENDBRANCH   6  13
ENDBRANCH   1   9
BRANCH   3  14
ATOM     14  C   UNL     1       6.414   5.803  16.471  0.00  0.00    +0.000 C 
BRANCH  14  15
ATOM     15  N   UNL     1       5.033   5.581  16.966  0.00  0.00    +0.000 NA
ATOM     16  C   UNL     1       4.567   4.220  16.632  0.00  0.00    +0.000 C 
ATOM     17  C   UNL     1       3.191   3.916  17.222  0.00  0.00    +0.000 C 
ATOM     18  C   UNL     1       3.186   4.111  18.729  0.00  0.00    +0.000 C 
ATOM     19  C   UNL     1       3.659   5.523  19.062  0.00  0.00    +0.000 C 
ATOM     20  C   UNL     1       5.016   5.809  18.427  0.00  0.00    +0.000 C 
ATOM     21  O   UNL     1       4.054   3.140  19.340  0.00  0.00    +0.000 OA
ATOM     22  C   UNL     1       3.320   2.630  20.450  0.00  0.00    +0.000 C 
ATOM     23  C   UNL     1       1.888   2.737  20.003  0.00  0.00    +0.000 C 
ATOM     24  O   UNL     1       1.853   3.945  19.247  0.00  0.00    +0.000 OA
ENDBRANCH  14  15
ENDBRANCH   3  14
TORSDOF 4
ENDMDL
MODEL 6
REMARK VINA RESULT:      -7.5      1.458      2.039
REMARK  Name = 
REMARK  5 active torsions:
REMARK  status: ('A' for Active; 'I' for Inactive)
REMARK    1  A    between atoms: C_1  and  O_2
REMARK    2  A    between atoms: O_2  and  C_3
REMARK    3  A    between atoms: C_6  and  C_7
REMARK    4  A    between atoms: C_9  and  C_10
REMARK    5  A    between atoms: C_10  and  N_11
REMARK                            x       y       z     vdW  Elec       q    Type
REMARK                         _______ _______ _______ _____ _____    ______ ____
ROOT
ATOM      1  C   UNL     1       8.676   9.389  18.488  0.00  0.00    +0.000 A 
ATOM      2  N   UNL     1       8.717   8.131  18.891  0.00  0.00    +0.000 NA
ATOM      3  C   UNL     1       7.749   7.502  18.127  0.00  0.00    +0.000 A 
ATOM      4  C   UNL     1       7.161   8.421  17.290  0.00  0.00    +0.000 A 
ATOM      5  O   UNL     1       7.744   9.631  17.510  0.00  0.00    +0.000 OA
ENDROOT
BRANCH   1   9
ATOM      6  C   UNL     1      11.000  12.760  19.746  0.00  0.00    +0.000 A 
ATOM      7  C   UNL     1      10.917  12.421  18.394  0.00  0.00    +0.000 A 
ATOM      8  C   UNL     1      10.160  11.316  17.988  0.00  0.00    +0.000 A 
ATOM      9  C   UNL     1       9.486  10.525  18.925  0.00  0.00    +0.000 A 
ATOM     10  C   UNL     1       9.600  10.858  20.283  0.00  0.00    +0.000 A 
ATOM     11  C   UNL     1      10.351  11.964  20.690  0.00  0.00    +0.000 A 
BRANCH   6  13
ATOM     12  C   UNL     1      11.041  14.968  20.567  0.00  0.00    +0.000 C 
ATOM     13  O   UNL     1      11.761  13.858  20.042  0.00  0.00    +0.000 OA
ENDBRANCH   6  13
ENDBRANCH   1   9
BRANCH   3  14
ATOM     14  C   UNL     1       7.462   6.047  18.307  0.00  0.00    +0.000 C 
BRANCH  14  15
ATOM     15  N   UNL     1       6.120   5.661  17.806  0.00  0.00    +0.000 NA
ATOM     16  C   UNL     1       6.183   4.387  17.061  0.00  0.00    +0.000 C 
ATOM     17  C   UNL     1       4.802   3.900  16.625  0.00  0.00    +0.000 C 
ATOM     18  C   UNL     1       3.871   3.757  17.817  0.00  0.00    +0.000 C 
ATOM     19  C   UNL     1       3.805   5.081  18.573  0.00  0.00    +0.000 C 
ATOM     20  C   UNL     1       5.200   5.560  18.960  0.00  0.00    +0.000 C 
ATOM     21  O   UNL     1       4.356   2.715  18.683  0.00  0.00    +0.000 OA
ATOM     22  C   UNL     1       3.207   1.941  19.014  0.00  0.00    +0.000 C 
ATOM     23  C   UNL     1       2.327   2.080  17.802  0.00  0.00    +0.000 C 
ATOM     24  O   UNL     1       2.544   3.422  17.373  0.00  0.00    +0.000 OA
ENDBRANCH  14  15
ENDBRANCH   3  14
TORSDOF 4
ENDMDL
MODEL 7
REMARK VINA RESULT:      -7.3      1.447      2.156
REMARK  Name = 
REMARK  5 active torsions:
REMARK  status: ('A' for Active; 'I' for Inactive)
REMARK    1  A    between atoms: C_1  and  O_2
REMARK    2  A    between atoms: O_2  and  C_3
REMARK    3  A    between atoms: C_6  and  C_7
REMARK    4  A    between atoms: C_9  and  C_10
REMARK    5  A    between atoms: C_10  and  N_11
REMARK                            x       y       z     vdW  Elec       q    Type
REMARK                         _______ _______ _______ _____ _____    ______ ____
ROOT
ATOM      1  C   UNL     1       8.642   9.314  18.410  0.00  0.00    +0.000 A 
ATOM      2  N   UNL     1       8.650   8.071  18.858  0.00  0.00    +0.000 NA
ATOM      3  C   UNL     1       7.674   7.436  18.109  0.00  0.00    +0.000 A 
ATOM      4  C   UNL     1       7.113   8.339  17.236  0.00  0.00    +0.000 A 
ATOM      5  O   UNL     1       7.722   9.542  17.417  0.00  0.00    +0.000 OA
ENDROOT
BRANCH   1   9
ATOM      6  C   UNL     1      11.126  12.587  19.616  0.00  0.00    +0.000 A 
ATOM      7  C   UNL     1      10.358  11.897  20.555  0.00  0.00    +0.000 A 
ATOM      8  C   UNL     1       9.544  10.831  20.156  0.00  0.00    +0.000 A 
ATOM      9  C   UNL     1       9.474  10.446  18.813  0.00  0.00    +0.000 A 
ATOM     10  C   UNL     1      10.228  11.165  17.874  0.00  0.00    +0.000 A 
ATOM     11  C   UNL     1      11.045  12.226  18.271  0.00  0.00    +0.000 A 
BRANCH   6  13
ATOM     12  C   UNL     1      11.182  14.810  20.397  0.00  0.00    +0.000 C 
ATOM     13  O   UNL     1      11.892  13.611  20.104  0.00  0.00    +0.000 OA
ENDBRANCH   6  13
ENDBRANCH   1   9
BRANCH   3  14
ATOM     14  C   UNL     1       7.352   5.996  18.339  0.00  0.00    +0.000 C 
BRANCH  14  15
ATOM     15  N   UNL     1       5.958   5.653  17.964  0.00  0.00    +0.000 NA
ATOM     16  C   UNL     1       5.929   4.487  17.059  0.00  0.00    +0.000 C 
ATOM     17  C   UNL     1       4.505   4.035  16.740  0.00  0.00    +0.000 C 
ATOM     18  C   UNL     1       3.732   3.724  18.010  0.00  0.00    +0.000 C 
ATOM     19  C   UNL     1       3.760   4.938  18.933  0.00  0.00    +0.000 C 
ATOM     20  C   UNL     1       5.192   5.389  19.201  0.00  0.00    +0.000 C 
ATOM     21  O   UNL     1       4.324   2.588  18.666  0.00  0.00    +0.000 OA
ATOM     22  C   UNL     1       3.228   1.757  19.035  0.00  0.00    +0.000 C 
ATOM     23  C   UNL     1       2.202   2.035  17.971  0.00  0.00    +0.000 C 
ATOM     24  O   UNL     1       2.360   3.424  17.695  0.00  0.00    +0.000 OA
ENDBRANCH  14  15
ENDBRANCH   3  14
TORSDOF 4
ENDMDL
MODEL 8
REMARK VINA RESULT:      -7.2      5.217      6.871
REMARK  Name = 
REMARK  5 active torsions:
REMARK  status: ('A' for Active; 'I' for Inactive)
REMARK    1  A    between atoms: C_1  and  O_2
REMARK    2  A    between atoms: O_2  and  C_3
REMARK    3  A    between atoms: C_6  and  C_7
REMARK    4  A    between atoms: C_9  and  C_10
REMARK    5  A    between atoms: C_10  and  N_11
REMARK                            x       y       z     vdW  Elec       q    Type
REMARK                         _______ _______ _______ _____ _____    ______ ____
ROOT
ATOM      1  C   UNL     1       2.289   6.936  19.820  0.00  0.00    +0.000 A 
ATOM      2  N   UNL     1       3.418   6.550  19.252  0.00  0.00    +0.000 NA
ATOM      3  C   UNL     1       3.525   5.211  19.588  0.00  0.00    +0.000 A 
ATOM      4  C   UNL     1       2.442   4.849  20.355  0.00  0.00    +0.000 A 
ATOM      5  O   UNL     1       1.645   5.941  20.511  0.00  0.00    +0.000 OA
ENDROOT
BRANCH   1   9
ATOM      6  C   UNL     1       0.453  10.805  19.780  0.00  0.00    +0.000 A 
ATOM      7  C   UNL     1       0.473  10.042  20.949  0.00  0.00    +0.000 A 
ATOM      8  C   UNL     1       1.070   8.776  20.956  0.00  0.00    +0.000 A 
ATOM      9  C   UNL     1       1.645   8.247  19.795  0.00  0.00    +0.000 A 
ATOM     10  C   UNL     1       1.594   9.011  18.619  0.00  0.00    +0.000 A 
ATOM     11  C   UNL     1       1.002  10.277  18.611  0.00  0.00    +0.000 A 
BRANCH   6  13
ATOM     12  C   UNL     1       0.500  13.080  19.167  0.00  0.00    +0.000 C 
ATOM     13  O   UNL     1      -0.150  12.029  19.875  0.00  0.00    +0.000 OA
ENDBRANCH   6  13
ENDBRANCH   1   9
BRANCH   3  14
ATOM     14  C   UNL     1       4.703   4.406  19.150  0.00  0.00    +0.000 C 
BRANCH  14  15
ATOM     15  N   UNL     1       5.460   5.049  18.048  0.00  0.00    +0.000 NA
ATOM     16  C   UNL     1       6.643   4.243  17.683  0.00  0.00    +0.000 C 
ATOM     17  C   UNL     1       7.387   4.816  16.478  0.00  0.00    +0.000 C 
ATOM     18  C   UNL     1       6.463   4.953  15.279  0.00  0.00    +0.000 C 
ATOM     19  C   UNL     1       5.251   5.795  15.664  0.00  0.00    +0.000 C 
ATOM     20  C   UNL     1       4.553   5.220  16.893  0.00  0.00    +0.000 C 
ATOM     21  O   UNL     1       6.043   3.646  14.847  0.00  0.00    +0.000 OA
ATOM     22  C   UNL     1       6.179   3.662  13.429  0.00  0.00    +0.000 C 
ATOM     23  C   UNL     1       7.321   4.612  13.195  0.00  0.00    +0.000 C 
ATOM     24  O   UNL     1       7.148   5.611  14.198  0.00  0.00    +0.000 OA
ENDBRANCH  14  15
ENDBRANCH   3  14
TORSDOF 4
ENDMDL
MODEL 9
REMARK VINA RESULT:      -7.2      5.216      6.907
REMARK  Name = 
REMARK  5 active torsions:
REMARK  status: ('A' for Active; 'I' for Inactive)
REMARK    1  A    between atoms: C_1  and  O_2
REMARK    2  A    between atoms: O_2  and  C_3
REMARK    3  A    between atoms: C_6  and  C_7
REMARK    4  A    between atoms: C_9  and  C_10
REMARK    5  A    between atoms: C_10  and  N_11
REMARK                            x       y       z     vdW  Elec       q    Type
REMARK                         _______ _______ _______ _____ _____    ______ ____
ROOT
ATOM      1  C   UNL     1       2.246   6.864  19.933  0.00  0.00    +0.000 A 
ATOM      2  N   UNL     1       3.350   6.468  19.325  0.00  0.00    +0.000 NA
ATOM      3  C   UNL     1       3.442   5.122  19.636  0.00  0.00    +0.000 A 
ATOM      4  C   UNL     1       2.377   4.765  20.430  0.00  0.00    +0.000 A 
ATOM      5  O   UNL     1       1.605   5.868  20.628  0.00  0.00    +0.000 OA
ENDROOT
BRANCH   1   9
ATOM      6  C   UNL     1       0.372  10.715  19.946  0.00  0.00    +0.000 A 
ATOM      7  C   UNL     1       1.002  10.237  18.795  0.00  0.00    +0.000 A 
ATOM      8  C   UNL     1       1.617   8.980  18.797  0.00  0.00    +0.000 A 
ATOM      9  C   UNL     1       1.624   8.187  19.950  0.00  0.00    +0.000 A 
ATOM     10  C   UNL     1       1.013   8.689  21.108  0.00  0.00    +0.000 A 
ATOM     11  C   UNL     1       0.394   9.942  21.107  0.00  0.00    +0.000 A 
BRANCH   6  13
ATOM     12  C   UNL     1       0.169  12.878  20.860  0.00  0.00    +0.000 C 
ATOM     13  O   UNL     1      -0.203  11.952  19.843  0.00  0.00    +0.000 OA
ENDBRANCH   6  13
ENDBRANCH   1   9
BRANCH   3  14
ATOM     14  C   UNL     1       4.593   4.304  19.149  0.00  0.00    +0.000 C 
BRANCH  14  15
ATOM     15  N   UNL     1       5.363   4.978  18.075  0.00  0.00    +0.000 NA
ATOM     16  C   UNL     1       6.567   4.199  17.723  0.00  0.00    +0.000 C 
ATOM     17  C   UNL     1       7.327   4.805  16.544  0.00  0.00    +0.000 C 
ATOM     18  C   UNL     1       6.428   4.945  15.327  0.00  0.00    +0.000 C 
ATOM     19  C   UNL     1       5.192   5.760  15.699  0.00  0.00    +0.000 C 
ATOM     20  C   UNL     1       4.478   5.153  16.902  0.00  0.00    +0.000 C 
ATOM     21  O   UNL     1       6.041   3.639  14.865  0.00  0.00    +0.000 OA
ATOM     22  C   UNL     1       6.208   3.680  13.450  0.00  0.00    +0.000 C 
ATOM     23  C   UNL     1       7.338   4.654  13.258  0.00  0.00    +0.000 C 
ATOM     24  O   UNL     1       7.124   5.633  14.272  0.00  0.00    +0.000 OA
ENDBRANCH  14  15
ENDBRANCH   3  14
TORSDOF 4
ENDMDL
