MODEL 1
REMARK VINA RESULT:      -8.6      0.000      0.000
REMARK  Name = 
REMARK  5 active torsions:
REMARK  status: ('A' for Active; 'I' for Inactive)
REMARK    1  A    between atoms: C_1  and  C_2
REMARK    2  A    between atoms: C_2  and  C_4
REMARK    3  A    between atoms: N_5  and  N_6
REMARK    4  A    between atoms: N_6  and  C_7
REMARK    5  A    between atoms: C_10  and  N_11
REMARK                            x       y       z     vdW  Elec       q    Type
REMARK                         _______ _______ _______ _____ _____    ______ ____
ROOT
ATOM      1  C   UNL     1       3.487   4.312  18.780  0.00  0.00    +0.000 C 
ATOM      2  N   UNL     1       2.739   4.590  19.797  0.00  0.00    +0.000 NA
ATOM      3  N   UNL     1       4.611   4.796  18.053  0.00  0.00    +0.000 N 
ATOM      4  C   UNL     1       4.800   4.312  16.664  0.00  0.00    +0.000 C 
ATOM      5  C   UNL     1       4.845   5.447  15.664  0.00  0.00    +0.000 C 
ATOM      6  C   UNL     1       5.621   6.669  16.097  0.00  0.00    +0.000 C 
ATOM      7  C   UNL     1       6.202   6.566  17.476  0.00  0.00    +0.000 A 
ATOM      8  C   UNL     1       7.353   7.365  17.666  0.00  0.00    +0.000 A 
ATOM      9  C   UNL     1       8.295   6.995  18.595  0.00  0.00    +0.000 A 
ATOM     10  C   UNL     1       8.030   5.873  19.380  0.00  0.00    +0.000 A 
ATOM     11  C   UNL     1       6.775   5.195  19.319  0.00  0.00    +0.000 A 
ATOM     12  C   UNL     1       5.793   5.560  18.389  0.00  0.00    +0.000 A 
ENDROOT
BRANCH   1  14
ATOM     13  C   UNL     1       3.266   1.757  18.367  0.00  0.00    +0.000 C 
ATOM     14  C   UNL     1       2.720   3.137  18.074  0.00  0.00    +0.000 C 
ATOM     15  O   UNL     1       1.705   3.351  17.421  0.00  0.00    +0.000 OA
ENDBRANCH   1  14
BRANCH   2  16
ATOM     16  N   UNL     1       2.756   5.681  20.564  0.00  0.00    +0.000 N 
ATOM     17  H   UNL     1       3.098   5.667  21.517  0.00  0.00    +0.000 HD
BRANCH  16  18
ATOM     18  C   UNL     1       2.225   6.888  20.030  0.00  0.00    +0.000 A 
ATOM     19  C   UNL     1       2.464   7.314  18.694  0.00  0.00    +0.000 A 
ATOM     20  C   UNL     1       1.942   8.504  18.183  0.00  0.00    +0.000 A 
ATOM     21  C   UNL     1       1.186   9.319  19.016  0.00  0.00    +0.000 A 
ATOM     22  C   UNL     1       0.970   8.969  20.355  0.00  0.00    +0.000 A 
ATOM     23  C   UNL     1       1.490   7.751  20.840  0.00  0.00    +0.000 A 
BRANCH  21  24
ATOM     24  N   UNL     1       0.622  10.585  18.499  0.00  0.00    +0.000 N 
ATOM     25  O   UNL     1      -0.547  10.566  18.085  0.00  0.00    +0.000 OA
ATOM     26  O   UNL     1       1.341  11.596  18.530  0.00  0.00    +0.000 OA
ENDBRANCH  21  24
ENDBRANCH  16  18
ENDBRANCH   2  16
TORSDOF 4
ENDMDL
MODEL 2
REMARK VINA RESULT:      -8.4      2.269      2.878
REMARK  Name = 
REMARK  5 active torsions:
REMARK  status: ('A' for Active; 'I' for Inactive)
REMARK    1  A    between atoms: C_1  and  C_2
REMARK    2  A    between atoms: C_2  and  C_4
REMARK    3  A    between atoms: N_5  and  N_6
REMARK    4  A    between atoms: N_6  and  C_7
REMARK    5  A    between atoms: C_10  and  N_11
REMARK                            x       y       z     vdW  Elec       q    Type
REMARK                         _______ _______ _______ _____ _____    ______ ____
ROOT
ATOM      1  C   UNL     1       2.754   4.948  20.260  0.00  0.00    +0.000 C 
ATOM      2  N   UNL     1       2.157   6.055  20.558  0.00  0.00    +0.000 NA
ATOM      3  N   UNL     1       3.745   4.410  19.391  0.00  0.00    +0.000 N 
ATOM      4  C   UNL     1       3.738   2.946  19.152  0.00  0.00    +0.000 C 
ATOM      5  C   UNL     1       3.607   2.607  17.684  0.00  0.00    +0.000 C 
ATOM      6  C   UNL     1       4.407   3.472  16.738  0.00  0.00    +0.000 C 
ATOM      7  C   UNL     1       5.188   4.557  17.418  0.00  0.00    +0.000 A 
ATOM      8  C   UNL     1       6.334   4.966  16.698  0.00  0.00    +0.000 A 
ATOM      9  C   UNL     1       7.412   5.489  17.368  0.00  0.00    +0.000 A 
ATOM     10  C   UNL     1       7.294   5.674  18.746  0.00  0.00    +0.000 A 
ATOM     11  C   UNL     1       6.062   5.447  19.430  0.00  0.00    +0.000 A 
ATOM     12  C   UNL     1       4.944   4.925  18.767  0.00  0.00    +0.000 A 
ENDROOT
BRANCH   1  14
ATOM     13  C   UNL     1       0.713   3.341  20.291  0.00  0.00    +0.000 C 
ATOM     14  C   UNL     1       1.921   3.866  21.035  0.00  0.00    +0.000 C 
ATOM     15  O   UNL     1       2.304   3.432  22.116  0.00  0.00    +0.000 OA
ENDBRANCH   1  14
BRANCH   2  16
ATOM     16  N   UNL     1       2.260   7.240  19.954  0.00  0.00    +0.000 N 
ATOM     17  H   UNL     1       2.909   7.405  19.194  0.00  0.00    +0.000 HD
BRANCH  16  18
ATOM     18  C   UNL     1       1.461   8.314  20.436  0.00  0.00    +0.000 A 
ATOM     19  C   UNL     1       1.026   9.386  19.608  0.00  0.00    +0.000 A 
ATOM     20  C   UNL     1       0.246  10.438  20.094  0.00  0.00    +0.000 A 
ATOM     21  C   UNL     1      -0.093  10.457  21.441  0.00  0.00    +0.000 A 
ATOM     22  C   UNL     1       0.359   9.452  22.306  0.00  0.00    +0.000 A 
ATOM     23  C   UNL     1       1.126   8.390  21.786  0.00  0.00    +0.000 A 
BRANCH  21  24
ATOM     24  N   UNL     1      -0.918  11.560  21.980  0.00  0.00    +0.000 N 
ATOM     25  O   UNL     1      -0.700  11.924  23.145  0.00  0.00    +0.000 OA
ATOM     26  O   UNL     1      -1.763  12.072  21.230  0.00  0.00    +0.000 OA
ENDBRANCH  21  24
ENDBRANCH  16  18
ENDBRANCH   2  16
TORSDOF 4
ENDMDL
MODEL 3
REMARK VINA RESULT:      -8.3      0.407      1.046
REMARK  Name = 
REMARK  5 active torsions:
REMARK  status: ('A' for Active; 'I' for Inactive)
REMARK    1  A    between atoms: C_1  and  C_2
REMARK    2  A    between atoms: C_2  and  C_4
REMARK    3  A    between atoms: N_5  and  N_6
REMARK    4  A    between atoms: N_6  and  C_7
REMARK    5  A    between atoms: C_10  and  N_11
REMARK                            x       y       z     vdW  Elec       q    Type
REMARK                         _______ _______ _______ _____ _____    ______ ____
ROOT
ATOM      1  C   UNL     1       3.208   4.630  18.810  0.00  0.00    +0.000 C 
ATOM      2  N   UNL     1       2.483   4.998  19.816  0.00  0.00    +0.000 NA
ATOM      3  N   UNL     1       4.384   4.984  18.091  0.00  0.00    +0.000 N 
ATOM      4  C   UNL     1       4.535   4.466  16.709  0.00  0.00    +0.000 C 
ATOM      5  C   UNL     1       4.711   5.577  15.698  0.00  0.00    +0.000 C 
ATOM      6  C   UNL     1       5.607   6.716  16.125  0.00  0.00    +0.000 C 
ATOM      7  C   UNL     1       6.160   6.568  17.512  0.00  0.00    +0.000 A 
ATOM      8  C   UNL     1       7.387   7.243  17.707  0.00  0.00    +0.000 A 
ATOM      9  C   UNL     1       8.275   6.787  18.650  0.00  0.00    +0.000 A 
ATOM     10  C   UNL     1       7.884   5.710  19.445  0.00  0.00    +0.000 A 
ATOM     11  C   UNL     1       6.566   5.167  19.376  0.00  0.00    +0.000 A 
ATOM     12  C   UNL     1       5.637   5.622  18.431  0.00  0.00    +0.000 A 
ENDROOT
BRANCH   1  14
ATOM     13  C   UNL     1       2.728   2.109  18.415  0.00  0.00    +0.000 C 
ATOM     14  C   UNL     1       2.329   3.535  18.109  0.00  0.00    +0.000 C 
ATOM     15  O   UNL     1       1.343   3.846  17.449  0.00  0.00    +0.000 OA
ENDBRANCH   1  14
BRANCH   2  16
ATOM     16  N   UNL     1       2.608   6.091  20.570  0.00  0.00    +0.000 N 
ATOM     17  H   UNL     1       3.055   6.073  21.478  0.00  0.00    +0.000 HD
BRANCH  16  18
ATOM     18  C   UNL     1       2.043   7.307  20.094  0.00  0.00    +0.000 A 
ATOM     19  C   UNL     1       1.177   8.117  20.880  0.00  0.00    +0.000 A 
ATOM     20  C   UNL     1       0.625   9.307  20.399  0.00  0.00    +0.000 A 
ATOM     21  C   UNL     1       0.905   9.700  19.097  0.00  0.00    +0.000 A 
ATOM     22  C   UNL     1       1.708   8.908  18.268  0.00  0.00    +0.000 A 
ATOM     23  C   UNL     1       2.271   7.722  18.784  0.00  0.00    +0.000 A 
BRANCH  21  24
ATOM     24  N   UNL     1       0.333  10.956  18.565  0.00  0.00    +0.000 N 
ATOM     25  O   UNL     1      -0.836  10.926  18.152  0.00  0.00    +0.000 OA
ATOM     26  O   UNL     1       1.045  11.972  18.585  0.00  0.00    +0.000 OA
ENDBRANCH  21  24
ENDBRANCH  16  18
ENDBRANCH   2  16
TORSDOF 4
ENDMDL
MODEL 4
REMARK VINA RESULT:      -8.2      2.183      2.846
REMARK  Name = 
REMARK  5 active torsions:
REMARK  status: ('A' for Active; 'I' for Inactive)
REMARK    1  A    between atoms: C_1  and  C_2
REMARK    2  A    between atoms: C_2  and  C_4
REMARK    3  A    between atoms: N_5  and  N_6
REMARK    4  A    between atoms: N_6  and  C_7
REMARK    5  A    between atoms: C_10  and  N_11
REMARK                            x       y       z     vdW  Elec       q    Type
REMARK                         _______ _______ _______ _____ _____    ______ ____
ROOT
ATOM      1  C   UNL     1       2.606   5.057  19.962  0.00  0.00    +0.000 C 
ATOM      2  N   UNL     1       2.048   6.149  20.372  0.00  0.00    +0.000 NA
ATOM      3  N   UNL     1       3.635   4.583  19.099  0.00  0.00    +0.000 N 
ATOM      4  C   UNL     1       3.569   3.170  18.653  0.00  0.00    +0.000 C 
ATOM      5  C   UNL     1       3.538   3.047  17.145  0.00  0.00    +0.000 C 
ATOM      6  C   UNL     1       4.456   3.982  16.393  0.00  0.00    +0.000 C 
ATOM      7  C   UNL     1       5.237   4.910  17.275  0.00  0.00    +0.000 A 
ATOM      8  C   UNL     1       6.456   5.341  16.705  0.00  0.00    +0.000 A 
ATOM      9  C   UNL     1       7.504   5.696  17.519  0.00  0.00    +0.000 A 
ATOM     10  C   UNL     1       7.286   5.695  18.897  0.00  0.00    +0.000 A 
ATOM     11  C   UNL     1       5.992   5.455  19.451  0.00  0.00    +0.000 A 
ATOM     12  C   UNL     1       4.905   5.102  18.642  0.00  0.00    +0.000 A 
ENDROOT
BRANCH   1  14
ATOM     13  C   UNL     1       2.118   3.292  21.803  0.00  0.00    +0.000 C 
ATOM     14  C   UNL     1       1.659   3.934  20.513  0.00  0.00    +0.000 C 
ATOM     15  O   UNL     1       0.589   3.688  19.966  0.00  0.00    +0.000 OA
ENDBRANCH   1  14
BRANCH   2  16
ATOM     16  N   UNL     1       2.261   7.396  19.952  0.00  0.00    +0.000 N 
ATOM     17  H   UNL     1       2.990   7.627  19.287  0.00  0.00    +0.000 HD
BRANCH  16  18
ATOM     18  C   UNL     1       1.464   8.438  20.503  0.00  0.00    +0.000 A 
ATOM     19  C   UNL     1       1.110   8.495  21.879  0.00  0.00    +0.000 A 
ATOM     20  C   UNL     1       0.322   9.522  22.407  0.00  0.00    +0.000 A 
ATOM     21  C   UNL     1      -0.159  10.507  21.554  0.00  0.00    +0.000 A 
ATOM     22  C   UNL     1       0.118  10.462  20.182  0.00  0.00    +0.000 A 
ATOM     23  C   UNL     1       0.934   9.428  19.678  0.00  0.00    +0.000 A 
BRANCH  21  24
ATOM     24  N   UNL     1      -0.994  11.604  22.089  0.00  0.00    +0.000 N 
ATOM     25  O   UNL     1      -0.710  12.048  23.211  0.00  0.00    +0.000 OA
ATOM     26  O   UNL     1      -1.915  12.032  21.376  0.00  0.00    +0.000 OA
ENDBRANCH  21  24
ENDBRANCH  16  18
ENDBRANCH   2  16
TORSDOF 4
ENDMDL
MODEL 5
REMARK VINA RESULT:      -7.7      1.764      2.342
REMARK  Name = 
REMARK  5 active torsions:
REMARK  status: ('A' for Active; 'I' for Inactive)
REMARK    1  A    between atoms: C_1  and  C_2
REMARK    2  A    between atoms: C_2  and  C_4
REMARK    3  A    between atoms: N_5  and  N_6
REMARK    4  A    between atoms: N_6  and  C_7
REMARK    5  A    between atoms: C_10  and  N_11
REMARK                            x       y       z     vdW  Elec       q    Type
REMARK                         _______ _______ _______ _____ _____    ______ ____
ROOT
ATOM      1  C   UNL     1       2.675   5.205  19.987  0.00  0.00    +0.000 C 
ATOM      2  N   UNL     1       2.227   6.338  20.419  0.00  0.00    +0.000 NA
ATOM      3  N   UNL     1       3.631   4.649  19.091  0.00  0.00    +0.000 N 
ATOM      4  C   UNL     1       3.429   3.250  18.641  0.00  0.00    +0.000 C 
ATOM      5  C   UNL     1       3.342   3.140  17.135  0.00  0.00    +0.000 C 
ATOM      6  C   UNL     1       4.315   3.997  16.359  0.00  0.00    +0.000 C 
ATOM      7  C   UNL     1       5.200   4.848  17.220  0.00  0.00    +0.000 A 
ATOM      8  C   UNL     1       6.435   5.174  16.615  0.00  0.00    +0.000 A 
ATOM      9  C   UNL     1       7.534   5.431  17.399  0.00  0.00    +0.000 A 
ATOM     10  C   UNL     1       7.358   5.440  18.782  0.00  0.00    +0.000 A 
ATOM     11  C   UNL     1       6.066   5.309  19.375  0.00  0.00    +0.000 A 
ATOM     12  C   UNL     1       4.928   5.058  18.597  0.00  0.00    +0.000 A 
ENDROOT
BRANCH   1  14
ATOM     13  C   UNL     1       2.132   3.402  21.776  0.00  0.00    +0.000 C 
ATOM     14  C   UNL     1       1.650   4.164  20.562  0.00  0.00    +0.000 C 
ATOM     15  O   UNL     1       0.519   4.072  20.097  0.00  0.00    +0.000 OA
ENDBRANCH   1  14
BRANCH   2  16
ATOM     16  N   UNL     1       2.535   7.565  19.998  0.00  0.00    +0.000 N 
ATOM     17  H   UNL     1       3.492   7.861  19.846  0.00  0.00    +0.000 HD
BRANCH  16  18
ATOM     18  C   UNL     1       1.478   8.498  19.808  0.00  0.00    +0.000 A 
ATOM     19  C   UNL     1       1.211   9.120  18.556  0.00  0.00    +0.000 A 
ATOM     20  C   UNL     1       0.173  10.039  18.383  0.00  0.00    +0.000 A 
ATOM     21  C   UNL     1      -0.609  10.383  19.478  0.00  0.00    +0.000 A 
ATOM     22  C   UNL     1      -0.349   9.839  20.742  0.00  0.00    +0.000 A 
ATOM     23  C   UNL     1       0.690   8.897  20.886  0.00  0.00    +0.000 A 
BRANCH  21  24
ATOM     24  N   UNL     1      -1.714  11.353  19.321  0.00  0.00    +0.000 N 
ATOM     25  O   UNL     1      -2.245  11.444  18.204  0.00  0.00    +0.000 OA
ATOM     26  O   UNL     1      -2.062  12.003  20.319  0.00  0.00    +0.000 OA
ENDBRANCH  21  24
ENDBRANCH  16  18
ENDBRANCH   2  16
TORSDOF 4
ENDMDL
MODEL 6
REMARK VINA RESULT:      -7.7      1.765      2.559
REMARK  Name = 
REMARK  5 active torsions:
REMARK  status: ('A' for Active; 'I' for Inactive)
REMARK    1  A    between atoms: C_1  and  C_2
REMARK    2  A    between atoms: C_2  and  C_4
REMARK    3  A    between atoms: N_5  and  N_6
REMARK    4  A    between atoms: N_6  and  C_7
REMARK    5  A    between atoms: C_10  and  N_11
REMARK                            x       y       z     vdW  Elec       q    Type
REMARK                         _______ _______ _______ _____ _____    ______ ____
ROOT
ATOM      1  C   UNL     1       2.697   5.187  19.995  0.00  0.00    +0.000 C 
ATOM      2  N   UNL     1       2.240   6.322  20.414  0.00  0.00    +0.000 NA
ATOM      3  N   UNL     1       3.665   4.627  19.114  0.00  0.00    +0.000 N 
ATOM      4  C   UNL     1       3.471   3.224  18.672  0.00  0.00    +0.000 C 
ATOM      5  C   UNL     1       3.402   3.104  17.166  0.00  0.00    +0.000 C 
ATOM      6  C   UNL     1       4.382   3.958  16.395  0.00  0.00    +0.000 C 
ATOM      7  C   UNL     1       5.255   4.817  17.261  0.00  0.00    +0.000 A 
ATOM      8  C   UNL     1       6.495   5.142  16.668  0.00  0.00    +0.000 A 
ATOM      9  C   UNL     1       7.584   5.408  17.462  0.00  0.00    +0.000 A 
ATOM     10  C   UNL     1       7.393   5.425  18.844  0.00  0.00    +0.000 A 
ATOM     11  C   UNL     1       6.094   5.295  19.422  0.00  0.00    +0.000 A 
ATOM     12  C   UNL     1       4.966   5.036  18.633  0.00  0.00    +0.000 A 
ENDROOT
BRANCH   1  14
ATOM     13  C   UNL     1       2.145   3.380  21.778  0.00  0.00    +0.000 C 
ATOM     14  C   UNL     1       1.667   4.148  20.565  0.00  0.00    +0.000 C 
ATOM     15  O   UNL     1       0.537   4.060  20.099  0.00  0.00    +0.000 OA
ENDBRANCH   1  14
BRANCH   2  16
ATOM     16  N   UNL     1       2.551   7.546  19.988  0.00  0.00    +0.000 N 
ATOM     17  H   UNL     1       3.504   7.825  19.787  0.00  0.00    +0.000 HD
BRANCH  16  18
ATOM     18  C   UNL     1       1.504   8.502  19.864  0.00  0.00    +0.000 A 
ATOM     19  C   UNL     1       0.598   8.798  20.919  0.00  0.00    +0.000 A 
ATOM     20  C   UNL     1      -0.430   9.736  20.783  0.00  0.00    +0.000 A 
ATOM     21  C   UNL     1      -0.593  10.382  19.564  0.00  0.00    +0.000 A 
ATOM     22  C   UNL     1       0.241  10.083  18.479  0.00  0.00    +0.000 A 
ATOM     23  C   UNL     1       1.284   9.149  18.649  0.00  0.00    +0.000 A 
BRANCH  21  24
ATOM     24  N   UNL     1      -1.672  11.378  19.395  0.00  0.00    +0.000 N 
ATOM     25  O   UNL     1      -1.571  12.446  20.018  0.00  0.00    +0.000 OA
ATOM     26  O   UNL     1      -2.604  11.100  18.624  0.00  0.00    +0.000 OA
ENDBRANCH  21  24
ENDBRANCH  16  18
ENDBRANCH   2  16
TORSDOF 4
ENDMDL
MODEL 7
REMARK VINA RESULT:      -7.7      0.792      1.289
REMARK  Name = 
REMARK  5 active torsions:
REMARK  status: ('A' for Active; 'I' for Inactive)
REMARK    1  A    between atoms: C_1  and  C_2
REMARK    2  A    between atoms: C_2  and  C_4
REMARK    3  A    between atoms: N_5  and  N_6
REMARK    4  A    between atoms: N_6  and  C_7
REMARK    5  A    between atoms: C_10  and  N_11
REMARK                            x       y       z     vdW  Elec       q    Type
REMARK                         _______ _______ _______ _____ _____    ______ ____
ROOT
ATOM      1  C   UNL     1       3.609   3.939  19.079  0.00  0.00    +0.000 C 
ATOM      2  N   UNL     1       2.887   4.216  20.115  0.00  0.00    +0.000 NA
ATOM      3  N   UNL     1       4.653   4.470  18.269  0.00  0.00    +0.000 N 
ATOM      4  C   UNL     1       4.819   3.920  16.902  0.00  0.00    +0.000 C 
ATOM      5  C   UNL     1       4.721   4.991  15.838  0.00  0.00    +0.000 C 
ATOM      6  C   UNL     1       5.407   6.298  16.160  0.00  0.00    +0.000 C 
ATOM      7  C   UNL     1       6.057   6.329  17.511  0.00  0.00    +0.000 A 
ATOM      8  C   UNL     1       7.142   7.231  17.597  0.00  0.00    +0.000 A 
ATOM      9  C   UNL     1       8.154   6.999  18.496  0.00  0.00    +0.000 A 
ATOM     10  C   UNL     1       8.023   5.909  19.357  0.00  0.00    +0.000 A 
ATOM     11  C   UNL     1       6.830   5.126  19.398  0.00  0.00    +0.000 A 
ATOM     12  C   UNL     1       5.778   5.349  18.500  0.00  0.00    +0.000 A 
ENDROOT
BRANCH   1  14
ATOM     13  C   UNL     1       1.488   2.872  18.027  0.00  0.00    +0.000 C 
ATOM     14  C   UNL     1       2.916   2.664  18.481  0.00  0.00    +0.000 C 
ATOM     15  O   UNL     1       3.543   1.623  18.321  0.00  0.00    +0.000 OA
ENDBRANCH   1  14
BRANCH   2  16
ATOM     16  N   UNL     1       2.845   5.349  20.816  0.00  0.00    +0.000 N 
ATOM     17  H   UNL     1       3.077   5.386  21.801  0.00  0.00    +0.000 HD
BRANCH  16  18
ATOM     18  C   UNL     1       2.407   6.533  20.158  0.00  0.00    +0.000 A 
ATOM     19  C   UNL     1       1.643   7.541  20.809  0.00  0.00    +0.000 A 
ATOM     20  C   UNL     1       1.215   8.697  20.151  0.00  0.00    +0.000 A 
ATOM     21  C   UNL     1       1.519   8.856  18.805  0.00  0.00    +0.000 A 
ATOM     22  C   UNL     1       2.221   7.864  18.108  0.00  0.00    +0.000 A 
ATOM     23  C   UNL     1       2.661   6.717  18.800  0.00  0.00    +0.000 A 
BRANCH  21  24
ATOM     24  N   UNL     1       1.077  10.071  18.086  0.00  0.00    +0.000 N 
ATOM     25  O   UNL     1      -0.124  10.371  18.149  0.00  0.00    +0.000 OA
ATOM     26  O   UNL     1       1.936  10.731  17.481  0.00  0.00    +0.000 OA
ENDBRANCH  21  24
ENDBRANCH  16  18
ENDBRANCH   2  16
TORSDOF 4
ENDMDL
MODEL 8
REMARK VINA RESULT:      -7.7      1.989      2.294
REMARK  Name = 
REMARK  5 active torsions:
REMARK  status: ('A' for Active; 'I' for Inactive)
REMARK    1  A    between atoms: C_1  and  C_2
REMARK    2  A    between atoms: C_2  and  C_4
REMARK    3  A    between atoms: N_5  and  N_6
REMARK    4  A    between atoms: N_6  and  C_7
REMARK    5  A    between atoms: C_10  and  N_11
REMARK                            x       y       z     vdW  Elec       q    Type
REMARK                         _______ _______ _______ _____ _____    ______ ____
ROOT
ATOM      1  C   UNL     1       2.678   5.322  18.412  0.00  0.00    +0.000 C 
ATOM      2  N   UNL     1       1.985   6.313  18.870  0.00  0.00    +0.000 NA
ATOM      3  N   UNL     1       3.975   4.995  17.926  0.00  0.00    +0.000 N 
ATOM      4  C   UNL     1       4.117   3.774  17.096  0.00  0.00    +0.000 C 
ATOM      5  C   UNL     1       4.705   4.072  15.735  0.00  0.00    +0.000 C 
ATOM      6  C   UNL     1       5.836   5.073  15.715  0.00  0.00    +0.000 C 
ATOM      7  C   UNL     1       6.177   5.635  17.063  0.00  0.00    +0.000 A 
ATOM      8  C   UNL     1       7.516   6.072  17.173  0.00  0.00    +0.000 A 
ATOM      9  C   UNL     1       8.136   6.077  18.399  0.00  0.00    +0.000 A 
ATOM     10  C   UNL     1       7.375   5.722  19.513  0.00  0.00    +0.000 A 
ATOM     11  C   UNL     1       5.972   5.479  19.417  0.00  0.00    +0.000 A 
ATOM     12  C   UNL     1       5.314   5.480  18.180  0.00  0.00    +0.000 A 
ENDROOT
BRANCH   1  14
ATOM     13  C   UNL     1       1.328   3.335  19.399  0.00  0.00    +0.000 C 
ATOM     14  C   UNL     1       1.604   4.199  18.189  0.00  0.00    +0.000 C 
ATOM     15  O   UNL     1       0.987   4.119  17.132  0.00  0.00    +0.000 OA
ENDBRANCH   1  14
BRANCH   2  16
ATOM     16  N   UNL     1       2.333   7.597  18.955  0.00  0.00    +0.000 N 
ATOM     17  H   UNL     1       3.166   7.963  18.509  0.00  0.00    +0.000 HD
BRANCH  16  18
ATOM     18  C   UNL     1       1.525   8.464  19.742  0.00  0.00    +0.000 A 
ATOM     19  C   UNL     1       1.036   9.711  19.264  0.00  0.00    +0.000 A 
ATOM     20  C   UNL     1       0.247  10.557  20.049  0.00  0.00    +0.000 A 
ATOM     21  C   UNL     1      -0.046  10.182  21.354  0.00  0.00    +0.000 A 
ATOM     22  C   UNL     1       0.459   8.990  21.887  0.00  0.00    +0.000 A 
ATOM     23  C   UNL     1       1.234   8.144  21.067  0.00  0.00    +0.000 A 
BRANCH  21  24
ATOM     24  N   UNL     1      -0.879  11.060  22.205  0.00  0.00    +0.000 N 
ATOM     25  O   UNL     1      -0.657  11.057  23.425  0.00  0.00    +0.000 OA
ATOM     26  O   UNL     1      -1.735  11.764  21.648  0.00  0.00    +0.000 OA
ENDBRANCH  21  24
ENDBRANCH  16  18
ENDBRANCH   2  16
TORSDOF 4
ENDMDL
MODEL 9
REMARK VINA RESULT:      -7.6      1.018      1.274
REMARK  Name = 
REMARK  5 active torsions:
REMARK  status: ('A' for Active; 'I' for Inactive)
REMARK    1  A    between atoms: C_1  and  C_2
REMARK    2  A    between atoms: C_2  and  C_4
REMARK    3  A    between atoms: N_5  and  N_6
REMARK    4  A    between atoms: N_6  and  C_7
REMARK    5  A    between atoms: C_10  and  N_11
REMARK                            x       y       z     vdW  Elec       q    Type
REMARK                         _______ _______ _______ _____ _____    ______ ____
ROOT
ATOM      1  C   UNL     1       3.167   4.937  18.959  0.00  0.00    +0.000 C 
ATOM      2  N   UNL     1       2.459   5.469  19.901  0.00  0.00    +0.000 NA
ATOM      3  N   UNL     1       4.359   5.137  18.208  0.00  0.00    +0.000 N 
ATOM      4  C   UNL     1       4.487   4.434  16.908  0.00  0.00    +0.000 C 
ATOM      5  C   UNL     1       4.715   5.390  15.759  0.00  0.00    +0.000 C 
ATOM      6  C   UNL     1       5.663   6.534  16.038  0.00  0.00    +0.000 C 
ATOM      7  C   UNL     1       6.207   6.548  17.436  0.00  0.00    +0.000 A 
ATOM      8  C   UNL     1       7.464   7.185  17.548  0.00  0.00    +0.000 A 
ATOM      9  C   UNL     1       8.329   6.819  18.550  0.00  0.00    +0.000 A 
ATOM     10  C   UNL     1       7.887   5.876  19.478  0.00  0.00    +0.000 A 
ATOM     11  C   UNL     1       6.545   5.390  19.473  0.00  0.00    +0.000 A 
ATOM     12  C   UNL     1       5.639   5.757  18.469  0.00  0.00    +0.000 A 
ENDROOT
BRANCH   1  14
ATOM     13  C   UNL     1       1.160   4.269  17.452  0.00  0.00    +0.000 C 
ATOM     14  C   UNL     1       2.238   3.800  18.403  0.00  0.00    +0.000 C 
ATOM     15  O   UNL     1       2.460   2.622  18.664  0.00  0.00    +0.000 OA
ENDBRANCH   1  14
BRANCH   2  16
ATOM     16  N   UNL     1       2.633   6.645  20.504  0.00  0.00    +0.000 N 
ATOM     17  H   UNL     1       3.322   6.782  21.234  0.00  0.00    +0.000 HD
BRANCH  16  18
ATOM     18  C   UNL     1       1.781   7.724  20.137  0.00  0.00    +0.000 A 
ATOM     19  C   UNL     1       1.828   8.345  18.858  0.00  0.00    +0.000 A 
ATOM     20  C   UNL     1       0.990   9.407  18.511  0.00  0.00    +0.000 A 
ATOM     21  C   UNL     1       0.098   9.897  19.457  0.00  0.00    +0.000 A 
ATOM     22  C   UNL     1       0.055   9.354  20.747  0.00  0.00    +0.000 A 
ATOM     23  C   UNL     1       0.896   8.268  21.065  0.00  0.00    +0.000 A 
BRANCH  21  24
ATOM     24  N   UNL     1      -0.800  11.021  19.113  0.00  0.00    +0.000 N 
ATOM     25  O   UNL     1      -1.182  11.754  20.037  0.00  0.00    +0.000 OA
ATOM     26  O   UNL     1      -1.100  11.180  17.920  0.00  0.00    +0.000 OA
ENDBRANCH  21  24
ENDBRANCH  16  18
ENDBRANCH   2  16
TORSDOF 4
ENDMDL
