MODEL 1
REMARK VINA RESULT:      -6.8      0.000      0.000
REMARK  Name = 
REMARK  7 active torsions:
REMARK  status: ('A' for Active; 'I' for Inactive)
REMARK    1  A    between atoms: C_1  and  N_2
REMARK    2  A    between atoms: N_2  and  C_3
REMARK    3  A    between atoms: N_2  and  C_4
REMARK    4  A    between atoms: C_7  and  C_8
REMARK    5  A    between atoms: C_8  and  C_9
REMARK    6  A    between atoms: C_13  and  C_14
REMARK    7  A    between atoms: C_17  and  N_18
REMARK                            x       y       z     vdW  Elec       q    Type
REMARK                         _______ _______ _______ _____ _____    ______ ____
ROOT
ATOM      1  C   UNL     1       6.427   5.262  17.637  0.00  0.00    +0.000 C 
ATOM      2  O   UNL     1       6.987   4.359  18.264  0.00  0.00    +0.000 OA
ATOM      3  N   UNL     1       5.244   5.820  18.068  0.00  0.00    +0.000 N 
ATOM      4  C   UNL     1       4.642   5.440  19.331  0.00  0.00    +0.000 C 
ATOM      5  C   UNL     1       3.142   5.416  19.041  0.00  0.00    +0.000 C 
ATOM      6  C   UNL     1       2.967   6.572  18.024  0.00  0.00    +0.000 C 
ATOM      7  C   UNL     1       4.331   6.647  17.291  0.00  0.00    +0.000 C 
ENDROOT
BRANCH   5   8
ATOM      8  C   UNL     1       2.726   4.081  18.462  0.00  0.00    +0.000 C 
ATOM      9  C   UNL     1       1.515   3.367  19.024  0.00  0.00    +0.000 C 
ATOM     10  C   UNL     1       1.458   3.961  17.645  0.00  0.00    +0.000 C 
ENDBRANCH   5   8
BRANCH   6  11
ATOM     11  N   UNL     1       2.638   7.843  18.685  0.00  0.00    +0.000 NA
ATOM     12  H   UNL     1       3.324   8.048  19.412  0.00  0.00    +0.000 HD
ATOM     13  H   UNL     1       1.738   7.755  19.159  0.00  0.00    +0.000 HD
ENDBRANCH   6  11
BRANCH   1  14
ATOM     14  C   UNL     1       7.045   5.793  16.350  0.00  0.00    +0.000 C 
BRANCH  14  18
ATOM     15  C   UNL     1       5.808   3.588  12.783  0.00  0.00    +0.000 A 
ATOM     16  C   UNL     1       7.012   4.308  12.832  0.00  0.00    +0.000 A 
ATOM     17  C   UNL     1       7.411   5.018  13.973  0.00  0.00    +0.000 A 
ATOM     18  C   UNL     1       6.622   5.019  15.126  0.00  0.00    +0.000 A 
ATOM     19  C   UNL     1       5.451   4.263  15.121  0.00  0.00    +0.000 A 
ATOM     20  C   UNL     1       5.057   3.564  13.971  0.00  0.00    +0.000 A 
BRANCH  15  22
ATOM     21  C   UNL     1       4.021   3.095  11.150  0.00  0.00    +0.000 C 
ATOM     22  N   UNL     1       5.384   2.904  11.634  0.00  0.00    +0.000 N 
ATOM     23  C   UNL     1       5.988   1.598  11.367  0.00  0.00    +0.000 C 
ENDBRANCH  15  22
ENDBRANCH  14  18
ENDBRANCH   1  14
TORSDOF 5
ENDMDL
MODEL 2
REMARK VINA RESULT:      -6.8      0.096      1.046
REMARK  Name = 
REMARK  7 active torsions:
REMARK  status: ('A' for Active; 'I' for Inactive)
REMARK    1  A    between atoms: C_1  and  N_2
REMARK    2  A    between atoms: N_2  and  C_3
REMARK    3  A    between atoms: N_2  and  C_4
REMARK    4  A    between atoms: C_7  and  C_8
REMARK    5  A    between atoms: C_8  and  C_9
REMARK    6  A    between atoms: C_13  and  C_14
REMARK    7  A    between atoms: C_17  and  N_18
REMARK                            x       y       z     vdW  Elec       q    Type
REMARK                         _______ _______ _______ _____ _____    ______ ____
ROOT
ATOM      1  C   UNL     1       6.412   5.222  17.713  0.00  0.00    +0.000 C 
ATOM      2  O   UNL     1       6.945   4.294  18.330  0.00  0.00    +0.000 OA
ATOM      3  N   UNL     1       5.233   5.794  18.138  0.00  0.00    +0.000 N 
ATOM      4  C   UNL     1       4.605   5.400  19.383  0.00  0.00    +0.000 C 
ATOM      5  C   UNL     1       3.109   5.412  19.070  0.00  0.00    +0.000 C 
ATOM      6  C   UNL     1       2.973   6.593  18.076  0.00  0.00    +0.000 C 
ATOM      7  C   UNL     1       4.350   6.656  17.365  0.00  0.00    +0.000 C 
ENDROOT
BRANCH   5   8
ATOM      8  C   UNL     1       2.676   4.099  18.456  0.00  0.00    +0.000 C 
ATOM      9  C   UNL     1       1.397   3.438  18.927  0.00  0.00    +0.000 C 
ATOM     10  C   UNL     1       1.465   4.037  17.550  0.00  0.00    +0.000 C 
ENDBRANCH   5   8
BRANCH   6  11
ATOM     11  N   UNL     1       2.659   7.856  18.759  0.00  0.00    +0.000 NA
ATOM     12  H   UNL     1       2.069   7.677  19.572  0.00  0.00    +0.000 HD
ATOM     13  H   UNL     1       2.113   8.451  18.135  0.00  0.00    +0.000 HD
ENDBRANCH   6  11
BRANCH   1  14
ATOM     14  C   UNL     1       7.060   5.767  16.447  0.00  0.00    +0.000 C 
BRANCH  14  18
ATOM     15  C   UNL     1       5.822   3.620  12.846  0.00  0.00    +0.000 A 
ATOM     16  C   UNL     1       5.061   3.595  14.026  0.00  0.00    +0.000 A 
ATOM     17  C   UNL     1       5.456   4.280  15.183  0.00  0.00    +0.000 A 
ATOM     18  C   UNL     1       6.629   5.039  15.199  0.00  0.00    +0.000 A 
ATOM     19  C   UNL     1       7.370   5.127  14.022  0.00  0.00    +0.000 A 
ATOM     20  C   UNL     1       6.970   4.430  12.872  0.00  0.00    +0.000 A 
BRANCH  15  22
ATOM     21  C   UNL     1       4.111   3.078  11.149  0.00  0.00    +0.000 C 
ATOM     22  N   UNL     1       5.453   2.909  11.695  0.00  0.00    +0.000 N 
ATOM     23  C   UNL     1       6.075   1.602  11.483  0.00  0.00    +0.000 C 
ENDBRANCH  15  22
ENDBRANCH  14  18
ENDBRANCH   1  14
TORSDOF 5
ENDMDL
MODEL 3
REMARK VINA RESULT:      -6.6      2.202      3.463
REMARK  Name = 
REMARK  7 active torsions:
REMARK  status: ('A' for Active; 'I' for Inactive)
REMARK    1  A    between atoms: C_1  and  N_2
REMARK    2  A    between atoms: N_2  and  C_3
REMARK    3  A    between atoms: N_2  and  C_4
REMARK    4  A    between atoms: C_7  and  C_8
REMARK    5  A    between atoms: C_8  and  C_9
REMARK    6  A    between atoms: C_13  and  C_14
REMARK    7  A    between atoms: C_17  and  N_18
REMARK                            x       y       z     vdW  Elec       q    Type
REMARK                         _______ _______ _______ _____ _____    ______ ____
ROOT
ATOM      1  C   UNL     1       3.593   5.999  18.651  0.00  0.00    +0.000 C 
ATOM      2  O   UNL     1       2.926   7.024  18.825  0.00  0.00    +0.000 OA
ATOM      3  N   UNL     1       3.005   4.758  18.551  0.00  0.00    +0.000 N 
ATOM      4  C   UNL     1       1.565   4.599  18.549  0.00  0.00    +0.000 C 
ATOM      5  C   UNL     1       1.325   3.328  19.363  0.00  0.00    +0.000 C 
ATOM      6  C   UNL     1       2.546   2.446  18.996  0.00  0.00    +0.000 C 
ATOM      7  C   UNL     1       3.666   3.465  18.659  0.00  0.00    +0.000 C 
ENDROOT
BRANCH   5   8
ATOM      8  C   UNL     1       1.273   3.637  20.844  0.00  0.00    +0.000 C 
ATOM      9  C   UNL     1       1.182   2.502  21.842  0.00  0.00    +0.000 C 
ATOM     10  C   UNL     1       2.447   3.307  21.739  0.00  0.00    +0.000 C 
ENDBRANCH   5   8
BRANCH   6  11
ATOM     11  N   UNL     1       2.263   1.558  17.859  0.00  0.00    +0.000 NA
ATOM     12  H   UNL     1       2.999   1.643  17.157  0.00  0.00    +0.000 HD
ATOM     13  H   UNL     1       1.399   1.856  17.405  0.00  0.00    +0.000 HD
ENDBRANCH   6  11
BRANCH   1  14
ATOM     14  C   UNL     1       5.109   6.088  18.539  0.00  0.00    +0.000 C 
BRANCH  14  18
ATOM     15  C   UNL     1       6.586   4.841  14.617  0.00  0.00    +0.000 A 
ATOM     16  C   UNL     1       5.571   5.800  14.760  0.00  0.00    +0.000 A 
ATOM     17  C   UNL     1       5.093   6.201  16.015  0.00  0.00    +0.000 A 
ATOM     18  C   UNL     1       5.631   5.666  17.188  0.00  0.00    +0.000 A 
ATOM     19  C   UNL     1       6.680   4.755  17.074  0.00  0.00    +0.000 A 
ATOM     20  C   UNL     1       7.144   4.355  15.812  0.00  0.00    +0.000 A 
BRANCH  15  22
ATOM     21  C   UNL     1       7.883   5.293  12.564  0.00  0.00    +0.000 C 
ATOM     22  N   UNL     1       7.044   4.408  13.365  0.00  0.00    +0.000 N 
ATOM     23  C   UNL     1       6.194   3.478  12.621  0.00  0.00    +0.000 C 
ENDBRANCH  15  22
ENDBRANCH  14  18
ENDBRANCH   1  14
TORSDOF 5
ENDMDL
MODEL 4
REMARK VINA RESULT:      -6.6      4.510      7.456
REMARK  Name = 
REMARK  7 active torsions:
REMARK  status: ('A' for Active; 'I' for Inactive)
REMARK    1  A    between atoms: C_1  and  N_2
REMARK    2  A    between atoms: N_2  and  C_3
REMARK    3  A    between atoms: N_2  and  C_4
REMARK    4  A    between atoms: C_7  and  C_8
REMARK    5  A    between atoms: C_8  and  C_9
REMARK    6  A    between atoms: C_13  and  C_14
REMARK    7  A    between atoms: C_17  and  N_18
REMARK                            x       y       z     vdW  Elec       q    Type
REMARK                         _______ _______ _______ _____ _____    ______ ____
ROOT
ATOM      1  C   UNL     1       2.496   4.983  17.708  0.00  0.00    +0.000 C 
ATOM      2  O   UNL     1       1.412   4.910  17.122  0.00  0.00    +0.000 OA
ATOM      3  N   UNL     1       3.037   3.904  18.372  0.00  0.00    +0.000 N 
ATOM      4  C   UNL     1       2.407   2.599  18.336  0.00  0.00    +0.000 C 
ATOM      5  C   UNL     1       2.604   2.048  19.748  0.00  0.00    +0.000 C 
ATOM      6  C   UNL     1       3.992   2.607  20.148  0.00  0.00    +0.000 C 
ATOM      7  C   UNL     1       4.119   3.928  19.345  0.00  0.00    +0.000 C 
ENDROOT
BRANCH   5   8
ATOM      8  C   UNL     1       1.508   2.532  20.673  0.00  0.00    +0.000 C 
ATOM      9  C   UNL     1       1.558   2.173  22.143  0.00  0.00    +0.000 C 
ATOM     10  C   UNL     1       1.795   3.593  21.713  0.00  0.00    +0.000 C 
ENDBRANCH   5   8
BRANCH   6  11
ATOM     11  N   UNL     1       5.079   1.671  19.824  0.00  0.00    +0.000 NA
ATOM     12  H   UNL     1       4.701   0.735  19.674  0.00  0.00    +0.000 HD
ATOM     13  H   UNL     1       5.712   1.600  20.621  0.00  0.00    +0.000 HD
ENDBRANCH   6  11
BRANCH   1  14
ATOM     14  C   UNL     1       3.274   6.292  17.709  0.00  0.00    +0.000 C 
BRANCH  14  18
ATOM     15  C   UNL     1       1.114   9.534  19.693  0.00  0.00    +0.000 A 
ATOM     16  C   UNL     1       1.497   8.368  20.376  0.00  0.00    +0.000 A 
ATOM     17  C   UNL     1       2.188   7.326  19.742  0.00  0.00    +0.000 A 
ATOM     18  C   UNL     1       2.541   7.419  18.394  0.00  0.00    +0.000 A 
ATOM     19  C   UNL     1       2.224   8.591  17.710  0.00  0.00    +0.000 A 
ATOM     20  C   UNL     1       1.525   9.625  18.352  0.00  0.00    +0.000 A 
BRANCH  15  22
ATOM     21  C   UNL     1      -0.336  10.292  21.544  0.00  0.00    +0.000 C 
ATOM     22  N   UNL     1       0.392  10.566  20.309  0.00  0.00    +0.000 N 
ATOM     23  C   UNL     1      -0.172  11.603  19.444  0.00  0.00    +0.000 C 
ENDBRANCH  15  22
ENDBRANCH  14  18
ENDBRANCH   1  14
TORSDOF 5
ENDMDL
MODEL 5
REMARK VINA RESULT:      -6.6      4.433      7.322
REMARK  Name = 
REMARK  7 active torsions:
REMARK  status: ('A' for Active; 'I' for Inactive)
REMARK    1  A    between atoms: C_1  and  N_2
REMARK    2  A    between atoms: N_2  and  C_3
REMARK    3  A    between atoms: N_2  and  C_4
REMARK    4  A    between atoms: C_7  and  C_8
REMARK    5  A    between atoms: C_8  and  C_9
REMARK    6  A    between atoms: C_13  and  C_14
REMARK    7  A    between atoms: C_17  and  N_18
REMARK                            x       y       z     vdW  Elec       q    Type
REMARK                         _______ _______ _______ _____ _____    ______ ____
ROOT
ATOM      1  C   UNL     1       2.566   4.828  17.657  0.00  0.00    +0.000 C 
ATOM      2  O   UNL     1       1.482   4.725  17.075  0.00  0.00    +0.000 OA
ATOM      3  N   UNL     1       3.113   3.780  18.363  0.00  0.00    +0.000 N 
ATOM      4  C   UNL     1       2.491   2.471  18.381  0.00  0.00    +0.000 C 
ATOM      5  C   UNL     1       2.691   1.978  19.814  0.00  0.00    +0.000 C 
ATOM      6  C   UNL     1       4.077   2.561  20.190  0.00  0.00    +0.000 C 
ATOM      7  C   UNL     1       4.196   3.849  19.334  0.00  0.00    +0.000 C 
ENDROOT
BRANCH   5   8
ATOM      8  C   UNL     1       1.593   2.493  20.719  0.00  0.00    +0.000 C 
ATOM      9  C   UNL     1       1.718   2.320  22.219  0.00  0.00    +0.000 C 
ATOM     10  C   UNL     1       1.834   3.690  21.613  0.00  0.00    +0.000 C 
ENDBRANCH   5   8
BRANCH   6  11
ATOM     11  N   UNL     1       5.168   1.619  19.903  0.00  0.00    +0.000 NA
ATOM     12  H   UNL     1       4.956   1.084  19.061  0.00  0.00    +0.000 HD
ATOM     13  H   UNL     1       5.238   0.941  20.663  0.00  0.00    +0.000 HD
ENDBRANCH   6  11
BRANCH   1  14
ATOM     14  C   UNL     1       3.337   6.141  17.605  0.00  0.00    +0.000 C 
BRANCH  14  18
ATOM     15  C   UNL     1       1.302   9.456  19.600  0.00  0.00    +0.000 A 
ATOM     16  C   UNL     1       1.646   9.504  18.239  0.00  0.00    +0.000 A 
ATOM     17  C   UNL     1       2.300   8.444  17.597  0.00  0.00    +0.000 A 
ATOM     18  C   UNL     1       2.623   7.277  18.293  0.00  0.00    +0.000 A 
ATOM     19  C   UNL     1       2.239   7.181  19.630  0.00  0.00    +0.000 A 
ATOM     20  C   UNL     1       1.592   8.252  20.265  0.00  0.00    +0.000 A 
BRANCH  15  22
ATOM     21  C   UNL     1       0.022  10.292  21.540  0.00  0.00    +0.000 C 
ATOM     22  N   UNL     1       0.680  10.526  20.259  0.00  0.00    +0.000 N 
ATOM     23  C   UNL     1       0.117  11.592  19.430  0.00  0.00    +0.000 C 
ENDBRANCH  15  22
ENDBRANCH  14  18
ENDBRANCH   1  14
TORSDOF 5
ENDMDL
MODEL 6
REMARK VINA RESULT:      -6.5      1.519      2.380
REMARK  Name = 
REMARK  7 active torsions:
REMARK  status: ('A' for Active; 'I' for Inactive)
REMARK    1  A    between atoms: C_1  and  N_2
REMARK    2  A    between atoms: N_2  and  C_3
REMARK    3  A    between atoms: N_2  and  C_4
REMARK    4  A    between atoms: C_7  and  C_8
REMARK    5  A    between atoms: C_8  and  C_9
REMARK    6  A    between atoms: C_13  and  C_14
REMARK    7  A    between atoms: C_17  and  N_18
REMARK                            x       y       z     vdW  Elec       q    Type
REMARK                         _______ _______ _______ _____ _____    ______ ____
ROOT
ATOM      1  C   UNL     1       5.107   4.147  19.268  0.00  0.00    +0.000 C 
ATOM      2  O   UNL     1       5.323   2.946  19.460  0.00  0.00    +0.000 OA
ATOM      3  N   UNL     1       3.956   4.758  19.713  0.00  0.00    +0.000 N 
ATOM      4  C   UNL     1       2.980   4.045  20.513  0.00  0.00    +0.000 C 
ATOM      5  C   UNL     1       1.632   4.555  20.004  0.00  0.00    +0.000 C 
ATOM      6  C   UNL     1       1.928   6.037  19.665  0.00  0.00    +0.000 C 
ATOM      7  C   UNL     1       3.435   6.052  19.298  0.00  0.00    +0.000 C 
ENDROOT
BRANCH   5   8
ATOM      8  C   UNL     1       1.183   3.772  18.790  0.00  0.00    +0.000 C 
ATOM      9  C   UNL     1       1.982   2.567  18.339  0.00  0.00    +0.000 C 
ATOM     10  C   UNL     1       0.618   2.377  18.941  0.00  0.00    +0.000 C 
ENDBRANCH   5   8
BRANCH   6  11
ATOM     11  N   UNL     1       1.638   6.931  20.795  0.00  0.00    +0.000 NA
ATOM     12  H   UNL     1       1.710   6.418  21.675  0.00  0.00    +0.000 HD
ATOM     13  H   UNL     1       0.673   7.255  20.731  0.00  0.00    +0.000 HD
ENDBRANCH   6  11
BRANCH   1  14
ATOM     14  C   UNL     1       6.130   4.995  18.523  0.00  0.00    +0.000 C 
BRANCH  14  18
ATOM     15  C   UNL     1       6.285   4.097  14.248  0.00  0.00    +0.000 A 
ATOM     16  C   UNL     1       5.118   3.909  15.006  0.00  0.00    +0.000 A 
ATOM     17  C   UNL     1       5.065   4.193  16.377  0.00  0.00    +0.000 A 
ATOM     18  C   UNL     1       6.183   4.700  17.045  0.00  0.00    +0.000 A 
ATOM     19  C   UNL     1       7.335   4.951  16.302  0.00  0.00    +0.000 A 
ATOM     20  C   UNL     1       7.379   4.654  14.931  0.00  0.00    +0.000 A 
BRANCH  15  22
ATOM     21  C   UNL     1       7.291   4.507  12.029  0.00  0.00    +0.000 C 
ATOM     22  N   UNL     1       6.357   3.782  12.883  0.00  0.00    +0.000 N 
ATOM     23  C   UNL     1       5.136   3.297  12.239  0.00  0.00    +0.000 C 
ENDBRANCH  15  22
ENDBRANCH  14  18
ENDBRANCH   1  14
TORSDOF 5
ENDMDL
MODEL 7
REMARK VINA RESULT:      -6.5      4.706      7.276
REMARK  Name = 
REMARK  7 active torsions:
REMARK  status: ('A' for Active; 'I' for Inactive)
REMARK    1  A    between atoms: C_1  and  N_2
REMARK    2  A    between atoms: N_2  and  C_3
REMARK    3  A    between atoms: N_2  and  C_4
REMARK    4  A    between atoms: C_7  and  C_8
REMARK    5  A    between atoms: C_8  and  C_9
REMARK    6  A    between atoms: C_13  and  C_14
REMARK    7  A    between atoms: C_17  and  N_18
REMARK                            x       y       z     vdW  Elec       q    Type
REMARK                         _______ _______ _______ _____ _____    ______ ____
ROOT
ATOM      1  C   UNL     1       0.341   8.999  21.083  0.00  0.00    +0.000 C 
ATOM      2  O   UNL     1      -0.562   8.528  21.780  0.00  0.00    +0.000 OA
ATOM      3  N   UNL     1       0.128  10.071  20.244  0.00  0.00    +0.000 N 
ATOM      4  C   UNL     1      -1.145  10.762  20.207  0.00  0.00    +0.000 C 
ATOM      5  C   UNL     1      -1.350  11.093  18.729  0.00  0.00    +0.000 C 
ATOM      6  C   UNL     1       0.091  11.379  18.235  0.00  0.00    +0.000 C 
ATOM      7  C   UNL     1       0.991  10.519  19.160  0.00  0.00    +0.000 C 
ENDROOT
BRANCH   5   8
ATOM      8  C   UNL     1      -1.981   9.928  17.998  0.00  0.00    +0.000 C 
ATOM      9  C   UNL     1      -3.403  10.045  17.492  0.00  0.00    +0.000 C 
ATOM     10  C   UNL     1      -2.263  10.015  16.514  0.00  0.00    +0.000 C 
ENDBRANCH   5   8
BRANCH   6  11
ATOM     11  N   UNL     1       0.432  12.806  18.324  0.00  0.00    +0.000 NA
ATOM     12  H   UNL     1      -0.055  13.329  17.595  0.00  0.00    +0.000 HD
ATOM     13  H   UNL     1       1.429  12.927  18.145  0.00  0.00    +0.000 HD
ENDBRANCH   6  11
BRANCH   1  14
ATOM     14  C   UNL     1       1.739   8.395  21.137  0.00  0.00    +0.000 C 
BRANCH  14  18
ATOM     15  C   UNL     1       2.091   4.741  18.764  0.00  0.00    +0.000 A 
ATOM     16  C   UNL     1       2.513   5.989  18.276  0.00  0.00    +0.000 A 
ATOM     17  C   UNL     1       2.400   7.163  19.033  0.00  0.00    +0.000 A 
ATOM     18  C   UNL     1       1.872   7.131  20.326  0.00  0.00    +0.000 A 
ATOM     19  C   UNL     1       1.500   5.895  20.854  0.00  0.00    +0.000 A 
ATOM     20  C   UNL     1       1.610   4.727  20.084  0.00  0.00    +0.000 A 
BRANCH  15  22
ATOM     21  C   UNL     1       1.660   2.318  18.554  0.00  0.00    +0.000 C 
ATOM     22  N   UNL     1       2.167   3.568  17.999  0.00  0.00    +0.000 N 
ATOM     23  C   UNL     1       3.280   3.450  17.056  0.00  0.00    +0.000 C 
ENDBRANCH  15  22
ENDBRANCH  14  18
ENDBRANCH   1  14
TORSDOF 5
ENDMDL
MODEL 8
REMARK VINA RESULT:      -6.4      4.724      7.343
REMARK  Name = 
REMARK  7 active torsions:
REMARK  status: ('A' for Active; 'I' for Inactive)
REMARK    1  A    between atoms: C_1  and  N_2
REMARK    2  A    between atoms: N_2  and  C_3
REMARK    3  A    between atoms: N_2  and  C_4
REMARK    4  A    between atoms: C_7  and  C_8
REMARK    5  A    between atoms: C_8  and  C_9
REMARK    6  A    between atoms: C_13  and  C_14
REMARK    7  A    between atoms: C_17  and  N_18
REMARK                            x       y       z     vdW  Elec       q    Type
REMARK                         _______ _______ _______ _____ _____    ______ ____
ROOT
ATOM      1  C   UNL     1       0.338   9.030  21.049  0.00  0.00    +0.000 C 
ATOM      2  O   UNL     1      -0.547   8.530  21.751  0.00  0.00    +0.000 OA
ATOM      3  N   UNL     1       0.091  10.107  20.227  0.00  0.00    +0.000 N 
ATOM      4  C   UNL     1      -1.197  10.770  20.213  0.00  0.00    +0.000 C 
ATOM      5  C   UNL     1      -1.427  11.115  18.741  0.00  0.00    +0.000 C 
ATOM      6  C   UNL     1       0.001  11.438  18.234  0.00  0.00    +0.000 C 
ATOM      7  C   UNL     1       0.930  10.588  19.139  0.00  0.00    +0.000 C 
ENDROOT
BRANCH   5   8
ATOM      8  C   UNL     1      -2.041   9.945  18.003  0.00  0.00    +0.000 C 
ATOM      9  C   UNL     1      -3.439  10.069  17.435  0.00  0.00    +0.000 C 
ATOM     10  C   UNL     1      -2.258  10.010  16.507  0.00  0.00    +0.000 C 
ENDBRANCH   5   8
BRANCH   6  11
ATOM     11  N   UNL     1       0.311  12.872  18.337  0.00  0.00    +0.000 NA
ATOM     12  H   UNL     1       1.261  13.049  18.007  0.00  0.00    +0.000 HD
ATOM     13  H   UNL     1       0.292  13.152  19.318  0.00  0.00    +0.000 HD
ENDBRANCH   6  11
BRANCH   1  14
ATOM     14  C   UNL     1       1.749   8.457  21.080  0.00  0.00    +0.000 C 
BRANCH  14  18
ATOM     15  C   UNL     1       2.203   4.779  18.762  0.00  0.00    +0.000 A 
ATOM     16  C   UNL     1       1.675   4.778  20.063  0.00  0.00    +0.000 A 
ATOM     17  C   UNL     1       1.531   5.955  20.811  0.00  0.00    +0.000 A 
ATOM     18  C   UNL     1       1.894   7.192  20.272  0.00  0.00    +0.000 A 
ATOM     19  C   UNL     1       2.365   7.226  18.961  0.00  0.00    +0.000 A 
ATOM     20  C   UNL     1       2.514   6.040  18.225  0.00  0.00    +0.000 A 
BRANCH  15  22
ATOM     21  C   UNL     1       1.610   2.414  18.362  0.00  0.00    +0.000 C 
ATOM     22  N   UNL     1       2.385   3.602  18.021  0.00  0.00    +0.000 N 
ATOM     23  C   UNL     1       3.710   3.366  17.448  0.00  0.00    +0.000 C 
ENDBRANCH  15  22
ENDBRANCH  14  18
ENDBRANCH   1  14
TORSDOF 5
ENDMDL
MODEL 9
REMARK VINA RESULT:      -6.4      2.191      3.199
REMARK  Name = 
REMARK  7 active torsions:
REMARK  status: ('A' for Active; 'I' for Inactive)
REMARK    1  A    between atoms: C_1  and  N_2
REMARK    2  A    between atoms: N_2  and  C_3
REMARK    3  A    between atoms: N_2  and  C_4
REMARK    4  A    between atoms: C_7  and  C_8
REMARK    5  A    between atoms: C_8  and  C_9
REMARK    6  A    between atoms: C_13  and  C_14
REMARK    7  A    between atoms: C_17  and  N_18
REMARK                            x       y       z     vdW  Elec       q    Type
REMARK                         _______ _______ _______ _____ _____    ______ ____
ROOT
ATOM      1  C   UNL     1       3.782   5.957  18.405  0.00  0.00    +0.000 C 
ATOM      2  O   UNL     1       3.202   7.012  18.681  0.00  0.00    +0.000 OA
ATOM      3  N   UNL     1       3.113   4.755  18.345  0.00  0.00    +0.000 N 
ATOM      4  C   UNL     1       1.676   4.678  18.510  0.00  0.00    +0.000 C 
ATOM      5  C   UNL     1       1.456   3.398  19.316  0.00  0.00    +0.000 C 
ATOM      6  C   UNL     1       2.571   2.460  18.786  0.00  0.00    +0.000 C 
ATOM      7  C   UNL     1       3.704   3.424  18.344  0.00  0.00    +0.000 C 
ENDROOT
BRANCH   5   8
ATOM      8  C   UNL     1       1.595   3.664  20.799  0.00  0.00    +0.000 C 
ATOM      9  C   UNL     1       1.111   2.628  21.792  0.00  0.00    +0.000 C 
ATOM     10  C   UNL     1       2.584   2.878  21.631  0.00  0.00    +0.000 C 
ENDBRANCH   5   8
BRANCH   6  11
ATOM     11  N   UNL     1       2.106   1.625  17.670  0.00  0.00    +0.000 NA
ATOM     12  H   UNL     1       2.881   1.425  17.036  0.00  0.00    +0.000 HD
ATOM     13  H   UNL     1       1.417   2.143  17.124  0.00  0.00    +0.000 HD
ENDBRANCH   6  11
BRANCH   1  14
ATOM     14  C   UNL     1       5.278   5.963  18.118  0.00  0.00    +0.000 C 
BRANCH  14  18
ATOM     15  C   UNL     1       6.314   4.437  14.154  0.00  0.00    +0.000 A 
ATOM     16  C   UNL     1       6.730   3.794  15.332  0.00  0.00    +0.000 A 
ATOM     17  C   UNL     1       6.402   4.282  16.604  0.00  0.00    +0.000 A 
ATOM     18  C   UNL     1       5.622   5.432  16.749  0.00  0.00    +0.000 A 
ATOM     19  C   UNL     1       5.147   6.054  15.595  0.00  0.00    +0.000 A 
ATOM     20  C   UNL     1       5.489   5.562  14.327  0.00  0.00    +0.000 A 
BRANCH  15  22
ATOM     21  C   UNL     1       7.541   4.790  12.040  0.00  0.00    +0.000 C 
ATOM     22  N   UNL     1       6.668   3.976  12.878  0.00  0.00    +0.000 N 
ATOM     23  C   UNL     1       5.700   3.133  12.174  0.00  0.00    +0.000 C 
ENDBRANCH  15  22
ENDBRANCH  14  18
ENDBRANCH   1  14
TORSDOF 5
ENDMDL
