MODEL 1
REMARK VINA RESULT:      -8.1      0.000      0.000
REMARK  Name = 
REMARK  15 active torsions:
REMARK  status: ('A' for Active; 'I' for Inactive)
REMARK    1  A    between atoms: C_1  and  C_2
REMARK    2  A    between atoms: C_2  and  C_3
REMARK    3  A    between atoms: C_3  and  C_4
REMARK    4  A    between atoms: C_4  and  C_5
REMARK    5  A    between atoms: C_5  and  N_6
REMARK    6  A    between atoms: C_5  and  C_19
REMARK    7  A    between atoms: C_7  and  O_9
REMARK    8  A    between atoms: O_9  and  C_10
REMARK    9  A    between atoms: C_10  and  C_11
REMARK   10  A    between atoms: C_11  and  C_12
REMARK   11  A    between atoms: C_12  and  C_13
REMARK   12  A    between atoms: C_19  and  C_21
REMARK   13  A    between atoms: N_23  and  C_24
REMARK   14  A    between atoms: C_24  and  C_25
REMARK   15  A    between atoms: C_24  and  C_26
REMARK                            x       y       z     vdW  Elec       q    Type
REMARK                         _______ _______ _______ _____ _____    ______ ____
ROOT
ATOM      1  C   UNL     1       5.891   6.955  17.315  0.00  0.00    +0.000 C 
ENDROOT
BRANCH   1   2
ATOM      2  N   UNL     1       6.838   8.065  17.257  0.00  0.00    +0.000 N 
ATOM      3  C   UNL     1       7.994   8.135  17.970  0.00  0.00    +0.000 C 
ATOM      4  O   UNL     1       8.385   7.304  18.771  0.00  0.00    +0.000 OA
ATOM      5  H   UNL     1       6.544   8.950  16.860  0.00  0.00    +0.000 HD
BRANCH   3   6
ATOM      6  O   UNL     1       8.567   9.330  17.701  0.00  0.00    +0.000 OA
BRANCH   6   7
ATOM      7  C   UNL     1       9.007  10.111  18.824  0.00  0.00    +0.000 C 
BRANCH   7   8
ATOM      8  C   UNL     1       9.301  11.595  18.476  0.00  0.00    +0.000 C 
ATOM      9  C   UNL     1       9.358  12.463  19.768  0.00  0.00    +0.000 C 
ATOM     10  C   UNL     1      10.559  12.175  20.674  0.00  0.00    +0.000 C 
ATOM     11  C   UNL     1      11.880  12.221  19.915  0.00  0.00    +0.000 C 
ATOM     12  C   UNL     1      11.852  11.344  18.672  0.00  0.00    +0.000 C 
ATOM     13  C   UNL     1      10.673  11.700  17.761  0.00  0.00    +0.000 C 
BRANCH   8  14
ATOM     14  C   UNL     1       8.205  12.155  17.511  0.00  0.00    +0.000 C 
ATOM     15  C   UNL     1       7.755  13.595  17.762  0.00  0.00    +0.000 C 
ENDBRANCH   8  14
ENDBRANCH   7   8
ENDBRANCH   6   7
ENDBRANCH   3   6
ENDBRANCH   1   2
BRANCH   1  16
ATOM     16  C   UNL     1       6.432   5.755  16.500  0.00  0.00    +0.000 C 
ATOM     17  O   UNL     1       7.437   5.818  15.794  0.00  0.00    +0.000 OA
BRANCH  16  18
ATOM     18  C   UNL     1       5.682   4.405  16.587  0.00  0.00    +0.000 C 
ATOM     19  O   UNL     1       5.903   3.536  15.776  0.00  0.00    +0.000 OA
ATOM     20  N   UNL     1       4.757   4.308  17.631  0.00  0.00    +0.000 N 
ATOM     21  H   UNL     1       4.900   4.935  18.409  0.00  0.00    +0.000 HD
BRANCH  20  22
ATOM     22  C   UNL     1       3.924   3.118  17.833  0.00  0.00    +0.000 C 
ATOM     23  C   UNL     1       2.979   2.835  16.644  0.00  0.00    +0.000 C 
BRANCH  22  24
ATOM     24  C   UNL     1       3.099   3.197  19.109  0.00  0.00    +0.000 A 
ATOM     25  C   UNL     1       3.583   2.602  20.285  0.00  0.00    +0.000 A 
ATOM     26  C   UNL     1       2.790   2.539  21.432  0.00  0.00    +0.000 A 
ATOM     27  C   UNL     1       1.503   3.069  21.422  0.00  0.00    +0.000 A 
ATOM     28  C   UNL     1       1.017   3.691  20.274  0.00  0.00    +0.000 A 
ATOM     29  C   UNL     1       1.813   3.765  19.128  0.00  0.00    +0.000 A 
ENDBRANCH  22  24
ENDBRANCH  20  22
ENDBRANCH  16  18
ENDBRANCH   1  16
BRANCH   1  30
ATOM     30  C   UNL     1       4.482   7.450  16.940  0.00  0.00    +0.000 C 
BRANCH  30  31
ATOM     31  C   UNL     1       3.382   6.924  17.859  0.00  0.00    +0.000 C 
BRANCH  31  33
ATOM     32  C   UNL     1       1.813   8.878  17.797  0.00  0.00    +0.000 C 
ATOM     33  C   UNL     1       2.747   8.058  18.670  0.00  0.00    +0.000 C 
ENDBRANCH  31  33
ENDBRANCH  30  31
ENDBRANCH   1  30
TORSDOF 12
ENDMDL
MODEL 2
REMARK VINA RESULT:      -8.1      1.451      2.477
REMARK  Name = 
REMARK  15 active torsions:
REMARK  status: ('A' for Active; 'I' for Inactive)
REMARK    1  A    between atoms: C_1  and  C_2
REMARK    2  A    between atoms: C_2  and  C_3
REMARK    3  A    between atoms: C_3  and  C_4
REMARK    4  A    between atoms: C_4  and  C_5
REMARK    5  A    between atoms: C_5  and  N_6
REMARK    6  A    between atoms: C_5  and  C_19
REMARK    7  A    between atoms: C_7  and  O_9
REMARK    8  A    between atoms: O_9  and  C_10
REMARK    9  A    between atoms: C_10  and  C_11
REMARK   10  A    between atoms: C_11  and  C_12
REMARK   11  A    between atoms: C_12  and  C_13
REMARK   12  A    between atoms: C_19  and  C_21
REMARK   13  A    between atoms: N_23  and  C_24
REMARK   14  A    between atoms: C_24  and  C_25
REMARK   15  A    between atoms: C_24  and  C_26
REMARK                            x       y       z     vdW  Elec       q    Type
REMARK                         _______ _______ _______ _____ _____    ______ ____
ROOT
ATOM      1  C   UNL     1       6.127   6.689  16.640  0.00  0.00    +0.000 C 
ENDROOT
BRANCH   1   2
ATOM      2  N   UNL     1       6.793   7.976  16.821  0.00  0.00    +0.000 N 
ATOM      3  C   UNL     1       7.763   8.223  17.742  0.00  0.00    +0.000 C 
ATOM      4  O   UNL     1       8.190   7.422  18.555  0.00  0.00    +0.000 OA
ATOM      5  H   UNL     1       6.377   8.811  16.425  0.00  0.00    +0.000 HD
BRANCH   3   6
ATOM      6  O   UNL     1       8.088   9.533  17.650  0.00  0.00    +0.000 OA
BRANCH   6   7
ATOM      7  C   UNL     1       8.983  10.055  18.646  0.00  0.00    +0.000 C 
BRANCH   7   8
ATOM      8  C   UNL     1       9.306  11.563  18.466  0.00  0.00    +0.000 C 
ATOM      9  C   UNL     1       9.338  12.286  19.844  0.00  0.00    +0.000 C 
ATOM     10  C   UNL     1      10.510  11.884  20.746  0.00  0.00    +0.000 C 
ATOM     11  C   UNL     1      11.852  11.991  20.031  0.00  0.00    +0.000 C 
ATOM     12  C   UNL     1      11.847  11.252  18.700  0.00  0.00    +0.000 C 
ATOM     13  C   UNL     1      10.699  11.721  17.802  0.00  0.00    +0.000 C 
BRANCH   8  14
ATOM     14  C   UNL     1       8.245  12.240  17.539  0.00  0.00    +0.000 C 
ATOM     15  C   UNL     1       7.965  13.720  17.799  0.00  0.00    +0.000 C 
ENDBRANCH   8  14
ENDBRANCH   7   8
ENDBRANCH   6   7
ENDBRANCH   3   6
ENDBRANCH   1   2
BRANCH   1  16
ATOM     16  C   UNL     1       4.909   6.585  17.590  0.00  0.00    +0.000 C 
ATOM     17  O   UNL     1       4.058   7.466  17.693  0.00  0.00    +0.000 OA
BRANCH  16  18
ATOM     18  C   UNL     1       4.744   5.304  18.441  0.00  0.00    +0.000 C 
ATOM     19  O   UNL     1       5.150   5.277  19.580  0.00  0.00    +0.000 OA
ATOM     20  N   UNL     1       4.129   4.232  17.785  0.00  0.00    +0.000 N 
ATOM     21  H   UNL     1       3.553   4.472  16.991  0.00  0.00    +0.000 HD
BRANCH  20  22
ATOM     22  C   UNL     1       3.935   2.928  18.426  0.00  0.00    +0.000 C 
ATOM     23  C   UNL     1       3.483   1.831  17.436  0.00  0.00    +0.000 C 
BRANCH  22  24
ATOM     24  C   UNL     1       2.944   2.989  19.579  0.00  0.00    +0.000 A 
ATOM     25  C   UNL     1       3.354   2.604  20.865  0.00  0.00    +0.000 A 
ATOM     26  C   UNL     1       2.434   2.519  21.912  0.00  0.00    +0.000 A 
ATOM     27  C   UNL     1       1.092   2.816  21.689  0.00  0.00    +0.000 A 
ATOM     28  C   UNL     1       0.673   3.230  20.427  0.00  0.00    +0.000 A 
ATOM     29  C   UNL     1       1.594   3.326  19.381  0.00  0.00    +0.000 A 
ENDBRANCH  22  24
ENDBRANCH  20  22
ENDBRANCH  16  18
ENDBRANCH   1  16
BRANCH   1  30
ATOM     30  C   UNL     1       7.160   5.550  16.733  0.00  0.00    +0.000 C 
BRANCH  30  31
ATOM     31  C   UNL     1       7.354   4.789  15.424  0.00  0.00    +0.000 C 
BRANCH  31  33
ATOM     32  C   UNL     1       6.035   3.877  13.497  0.00  0.00    +0.000 C 
ATOM     33  C   UNL     1       6.068   4.071  15.003  0.00  0.00    +0.000 C 
ENDBRANCH  31  33
ENDBRANCH  30  31
ENDBRANCH   1  30
TORSDOF 12
ENDMDL
MODEL 3
REMARK VINA RESULT:      -7.9      4.629      7.455
REMARK  Name = 
REMARK  15 active torsions:
REMARK  status: ('A' for Active; 'I' for Inactive)
REMARK    1  A    between atoms: C_1  and  C_2
REMARK    2  A    between atoms: C_2  and  C_3
REMARK    3  A    between atoms: C_3  and  C_4
REMARK    4  A    between atoms: C_4  and  C_5
REMARK    5  A    between atoms: C_5  and  N_6
REMARK    6  A    between atoms: C_5  and  C_19
REMARK    7  A    between atoms: C_7  and  O_9
REMARK    8  A    between atoms: O_9  and  C_10
REMARK    9  A    between atoms: C_10  and  C_11
REMARK   10  A    between atoms: C_11  and  C_12
REMARK   11  A    between atoms: C_12  and  C_13
REMARK   12  A    between atoms: C_19  and  C_21
REMARK   13  A    between atoms: N_23  and  C_24
REMARK   14  A    between atoms: C_24  and  C_25
REMARK   15  A    between atoms: C_24  and  C_26
REMARK                            x       y       z     vdW  Elec       q    Type
REMARK                         _______ _______ _______ _____ _____    ______ ____
ROOT
ATOM      1  C   UNL     1       2.590   5.824  19.266  0.00  0.00    +0.000 C 
ENDROOT
BRANCH   1   2
ATOM      2  N   UNL     1       2.219   7.191  18.909  0.00  0.00    +0.000 N 
ATOM      3  C   UNL     1       2.905   7.975  18.036  0.00  0.00    +0.000 C 
ATOM      4  O   UNL     1       3.930   7.664  17.455  0.00  0.00    +0.000 OA
ATOM      5  H   UNL     1       1.566   7.697  19.494  0.00  0.00    +0.000 HD
BRANCH   3   6
ATOM      6  O   UNL     1       2.299   9.185  18.012  0.00  0.00    +0.000 OA
BRANCH   6   7
ATOM      7  C   UNL     1       0.905   9.223  18.360  0.00  0.00    +0.000 C 
BRANCH   7   8
ATOM      8  C   UNL     1       0.590  10.135  19.576  0.00  0.00    +0.000 C 
ATOM      9  C   UNL     1       1.393  11.467  19.486  0.00  0.00    +0.000 C 
ATOM     10  C   UNL     1       0.953  12.399  18.352  0.00  0.00    +0.000 C 
ATOM     11  C   UNL     1      -0.549  12.655  18.365  0.00  0.00    +0.000 C 
ATOM     12  C   UNL     1      -1.346  11.360  18.410  0.00  0.00    +0.000 C 
ATOM     13  C   UNL     1      -0.922  10.481  19.590  0.00  0.00    +0.000 C 
BRANCH   8  14
ATOM     14  C   UNL     1       0.935   9.400  20.912  0.00  0.00    +0.000 C 
ATOM     15  C   UNL     1      -0.202   8.613  21.564  0.00  0.00    +0.000 C 
ENDBRANCH   8  14
ENDBRANCH   7   8
ENDBRANCH   6   7
ENDBRANCH   3   6
ENDBRANCH   1   2
BRANCH   1  16
ATOM     16  C   UNL     1       2.452   4.899  18.032  0.00  0.00    +0.000 C 
ATOM     17  O   UNL     1       1.417   4.805  17.374  0.00  0.00    +0.000 OA
BRANCH  16  18
ATOM     18  C   UNL     1       3.677   4.062  17.595  0.00  0.00    +0.000 C 
ATOM     19  O   UNL     1       3.679   2.863  17.752  0.00  0.00    +0.000 OA
ATOM     20  N   UNL     1       4.732   4.799  17.047  0.00  0.00    +0.000 N 
ATOM     21  H   UNL     1       4.490   5.704  16.669  0.00  0.00    +0.000 HD
BRANCH  20  22
ATOM     22  C   UNL     1       5.988   4.174  16.623  0.00  0.00    +0.000 C 
ATOM     23  C   UNL     1       7.220   4.727  17.373  0.00  0.00    +0.000 C 
BRANCH  22  24
ATOM     24  C   UNL     1       6.225   4.302  15.126  0.00  0.00    +0.000 A 
ATOM     25  C   UNL     1       5.416   3.583  14.232  0.00  0.00    +0.000 A 
ATOM     26  C   UNL     1       5.696   3.574  12.864  0.00  0.00    +0.000 A 
ATOM     27  C   UNL     1       6.788   4.283  12.370  0.00  0.00    +0.000 A 
ATOM     28  C   UNL     1       7.583   5.027  13.238  0.00  0.00    +0.000 A 
ATOM     29  C   UNL     1       7.299   5.047  14.605  0.00  0.00    +0.000 A 
ENDBRANCH  22  24
ENDBRANCH  20  22
ENDBRANCH  16  18
ENDBRANCH   1  16
BRANCH   1  30
ATOM     30  C   UNL     1       1.827   5.388  20.530  0.00  0.00    +0.000 C 
BRANCH  30  31
ATOM     31  C   UNL     1       1.045   4.088  20.358  0.00  0.00    +0.000 C 
BRANCH  31  33
ATOM     32  C   UNL     1       2.865   2.598  21.223  0.00  0.00    +0.000 C 
ATOM     33  C   UNL     1       1.433   3.061  21.426  0.00  0.00    +0.000 C 
ENDBRANCH  31  33
ENDBRANCH  30  31
ENDBRANCH   1  30
TORSDOF 12
ENDMDL
MODEL 4
REMARK VINA RESULT:      -7.9      2.006      3.012
REMARK  Name = 
REMARK  15 active torsions:
REMARK  status: ('A' for Active; 'I' for Inactive)
REMARK    1  A    between atoms: C_1  and  C_2
REMARK    2  A    between atoms: C_2  and  C_3
REMARK    3  A    between atoms: C_3  and  C_4
REMARK    4  A    between atoms: C_4  and  C_5
REMARK    5  A    between atoms: C_5  and  N_6
REMARK    6  A    between atoms: C_5  and  C_19
REMARK    7  A    between atoms: C_7  and  O_9
REMARK    8  A    between atoms: O_9  and  C_10
REMARK    9  A    between atoms: C_10  and  C_11
REMARK   10  A    between atoms: C_11  and  C_12
REMARK   11  A    between atoms: C_12  and  C_13
REMARK   12  A    between atoms: C_19  and  C_21
REMARK   13  A    between atoms: N_23  and  C_24
REMARK   14  A    between atoms: C_24  and  C_25
REMARK   15  A    between atoms: C_24  and  C_26
REMARK                            x       y       z     vdW  Elec       q    Type
REMARK                         _______ _______ _______ _____ _____    ______ ____
ROOT
ATOM      1  C   UNL     1       7.034   6.198  17.742  0.00  0.00    +0.000 C 
ENDROOT
BRANCH   1   2
ATOM      2  N   UNL     1       7.965   7.210  18.235  0.00  0.00    +0.000 N 
ATOM      3  C   UNL     1       7.871   8.541  17.971  0.00  0.00    +0.000 C 
ATOM      4  O   UNL     1       7.024   9.068  17.271  0.00  0.00    +0.000 OA
ATOM      5  H   UNL     1       8.867   6.923  18.596  0.00  0.00    +0.000 HD
BRANCH   3   6
ATOM      6  O   UNL     1       8.938   9.145  18.542  0.00  0.00    +0.000 OA
BRANCH   6   7
ATOM      7  C   UNL     1       9.273  10.461  18.071  0.00  0.00    +0.000 C 
BRANCH   7   8
ATOM      8  C   UNL     1       9.771  11.416  19.189  0.00  0.00    +0.000 C 
ATOM      9  C   UNL     1      11.326  11.497  19.191  0.00  0.00    +0.000 C 
ATOM     10  C   UNL     1      11.927  12.203  17.971  0.00  0.00    +0.000 C 
ATOM     11  C   UNL     1      11.299  13.571  17.727  0.00  0.00    +0.000 C 
ATOM     12  C   UNL     1       9.780  13.499  17.681  0.00  0.00    +0.000 C 
ATOM     13  C   UNL     1       9.211  12.842  18.942  0.00  0.00    +0.000 C 
BRANCH   8  14
ATOM     14  C   UNL     1       9.266  10.930  20.586  0.00  0.00    +0.000 C 
ATOM     15  C   UNL     1       9.296  11.961  21.714  0.00  0.00    +0.000 C 
ENDBRANCH   8  14
ENDBRANCH   7   8
ENDBRANCH   6   7
ENDBRANCH   3   6
ENDBRANCH   1   2
BRANCH   1  16
ATOM     16  C   UNL     1       6.443   5.399  18.928  0.00  0.00    +0.000 C 
ATOM     17  O   UNL     1       7.048   5.213  19.983  0.00  0.00    +0.000 OA
BRANCH  16  18
ATOM     18  C   UNL     1       5.017   4.817  18.790  0.00  0.00    +0.000 C 
ATOM     19  O   UNL     1       4.057   5.488  19.092  0.00  0.00    +0.000 OA
ATOM     20  N   UNL     1       4.957   3.500  18.324  0.00  0.00    +0.000 N 
ATOM     21  H   UNL     1       5.761   3.178  17.805  0.00  0.00    +0.000 HD
BRANCH  20  22
ATOM     22  C   UNL     1       3.690   2.777  18.178  0.00  0.00    +0.000 C 
ATOM     23  C   UNL     1       2.870   3.238  16.953  0.00  0.00    +0.000 C 
BRANCH  22  24
ATOM     24  C   UNL     1       2.818   2.877  19.420  0.00  0.00    +0.000 A 
ATOM     25  C   UNL     1       3.338   2.490  20.665  0.00  0.00    +0.000 A 
ATOM     26  C   UNL     1       2.522   2.442  21.797  0.00  0.00    +0.000 A 
ATOM     27  C   UNL     1       1.174   2.778  21.701  0.00  0.00    +0.000 A 
ATOM     28  C   UNL     1       0.648   3.195  20.481  0.00  0.00    +0.000 A 
ATOM     29  C   UNL     1       1.465   3.255  19.349  0.00  0.00    +0.000 A 
ENDBRANCH  22  24
ENDBRANCH  20  22
ENDBRANCH  16  18
ENDBRANCH   1  16
BRANCH   1  30
ATOM     30  C   UNL     1       7.706   5.368  16.632  0.00  0.00    +0.000 C 
BRANCH  30  31
ATOM     31  C   UNL     1       6.720   4.593  15.761  0.00  0.00    +0.000 C 
BRANCH  31  33
ATOM     32  C   UNL     1       6.337   3.868  13.393  0.00  0.00    +0.000 C 
ATOM     33  C   UNL     1       6.859   4.980  14.286  0.00  0.00    +0.000 C 
ENDBRANCH  31  33
ENDBRANCH  30  31
ENDBRANCH   1  30
TORSDOF 12
ENDMDL
MODEL 5
REMARK VINA RESULT:      -7.8      1.705      2.905
REMARK  Name = 
REMARK  15 active torsions:
REMARK  status: ('A' for Active; 'I' for Inactive)
REMARK    1  A    between atoms: C_1  and  C_2
REMARK    2  A    between atoms: C_2  and  C_3
REMARK    3  A    between atoms: C_3  and  C_4
REMARK    4  A    between atoms: C_4  and  C_5
REMARK    5  A    between atoms: C_5  and  N_6
REMARK    6  A    between atoms: C_5  and  C_19
REMARK    7  A    between atoms: C_7  and  O_9
REMARK    8  A    between atoms: O_9  and  C_10
REMARK    9  A    between atoms: C_10  and  C_11
REMARK   10  A    between atoms: C_11  and  C_12
REMARK   11  A    between atoms: C_12  and  C_13
REMARK   12  A    between atoms: C_19  and  C_21
REMARK   13  A    between atoms: N_23  and  C_24
REMARK   14  A    between atoms: C_24  and  C_25
REMARK   15  A    between atoms: C_24  and  C_26
REMARK                            x       y       z     vdW  Elec       q    Type
REMARK                         _______ _______ _______ _____ _____    ______ ____
ROOT
ATOM      1  C   UNL     1       6.314   6.428  16.913  0.00  0.00    +0.000 C 
ENDROOT
BRANCH   1   2
ATOM      2  N   UNL     1       6.815   7.781  17.140  0.00  0.00    +0.000 N 
ATOM      3  C   UNL     1       7.866   8.091  17.946  0.00  0.00    +0.000 C 
ATOM      4  O   UNL     1       8.512   7.297  18.608  0.00  0.00    +0.000 OA
ATOM      5  H   UNL     1       6.236   8.574  16.892  0.00  0.00    +0.000 HD
BRANCH   3   6
ATOM      6  O   UNL     1       7.990   9.438  17.951  0.00  0.00    +0.000 OA
BRANCH   6   7
ATOM      7  C   UNL     1       9.053   9.993  18.744  0.00  0.00    +0.000 C 
BRANCH   7   8
ATOM      8  C   UNL     1       9.291  11.506  18.497  0.00  0.00    +0.000 C 
ATOM      9  C   UNL     1       9.335  12.284  19.846  0.00  0.00    +0.000 C 
ATOM     10  C   UNL     1      10.556  11.975  20.718  0.00  0.00    +0.000 C 
ATOM     11  C   UNL     1      11.865  12.121  19.951  0.00  0.00    +0.000 C 
ATOM     12  C   UNL     1      11.852  11.332  18.650  0.00  0.00    +0.000 C 
ATOM     13  C   UNL     1      10.651  11.709  17.778  0.00  0.00    +0.000 C 
BRANCH   8  14
ATOM     14  C   UNL     1       8.165  12.094  17.585  0.00  0.00    +0.000 C 
ATOM     15  C   UNL     1       7.927  13.600  17.689  0.00  0.00    +0.000 C 
ENDBRANCH   8  14
ENDBRANCH   7   8
ENDBRANCH   6   7
ENDBRANCH   3   6
ENDBRANCH   1   2
BRANCH   1  16
ATOM     16  C   UNL     1       5.811   5.819  18.245  0.00  0.00    +0.000 C 
ATOM     17  O   UNL     1       6.560   5.518  19.173  0.00  0.00    +0.000 OA
BRANCH  16  18
ATOM     18  C   UNL     1       4.292   5.591  18.426  0.00  0.00    +0.000 C 
ATOM     19  O   UNL     1       3.706   4.819  17.702  0.00  0.00    +0.000 OA
ATOM     20  N   UNL     1       3.697   6.343  19.443  0.00  0.00    +0.000 N 
ATOM     21  H   UNL     1       4.317   6.677  20.166  0.00  0.00    +0.000 HD
BRANCH  20  22
ATOM     22  C   UNL     1       2.259   6.288  19.721  0.00  0.00    +0.000 C 
ATOM     23  C   UNL     1       1.790   7.390  20.696  0.00  0.00    +0.000 C 
BRANCH  22  24
ATOM     24  C   UNL     1       1.825   4.934  20.264  0.00  0.00    +0.000 A 
ATOM     25  C   UNL     1       2.397   4.447  21.449  0.00  0.00    +0.000 A 
ATOM     26  C   UNL     1       2.121   3.153  21.897  0.00  0.00    +0.000 A 
ATOM     27  C   UNL     1       1.269   2.329  21.167  0.00  0.00    +0.000 A 
ATOM     28  C   UNL     1       0.667   2.806  20.005  0.00  0.00    +0.000 A 
ATOM     29  C   UNL     1       0.934   4.103  19.561  0.00  0.00    +0.000 A 
ENDBRANCH  22  24
ENDBRANCH  20  22
ENDBRANCH  16  18
ENDBRANCH   1  16
BRANCH   1  30
ATOM     30  C   UNL     1       7.364   5.604  16.144  0.00  0.00    +0.000 C 
BRANCH  30  31
ATOM     31  C   UNL     1       6.794   4.357  15.471  0.00  0.00    +0.000 C 
BRANCH  31  33
ATOM     32  C   UNL     1       5.621   3.832  13.319  0.00  0.00    +0.000 C 
ATOM     33  C   UNL     1       6.845   4.477  13.945  0.00  0.00    +0.000 C 
ENDBRANCH  31  33
ENDBRANCH  30  31
ENDBRANCH   1  30
TORSDOF 12
ENDMDL
MODEL 6
REMARK VINA RESULT:      -7.8      3.306      7.472
REMARK  Name = 
REMARK  15 active torsions:
REMARK  status: ('A' for Active; 'I' for Inactive)
REMARK    1  A    between atoms: C_1  and  C_2
REMARK    2  A    between atoms: C_2  and  C_3
REMARK    3  A    between atoms: C_3  and  C_4
REMARK    4  A    between atoms: C_4  and  C_5
REMARK    5  A    between atoms: C_5  and  N_6
REMARK    6  A    between atoms: C_5  and  C_19
REMARK    7  A    between atoms: C_7  and  O_9
REMARK    8  A    between atoms: O_9  and  C_10
REMARK    9  A    between atoms: C_10  and  C_11
REMARK   10  A    between atoms: C_11  and  C_12
REMARK   11  A    between atoms: C_12  and  C_13
REMARK   12  A    between atoms: C_19  and  C_21
REMARK   13  A    between atoms: N_23  and  C_24
REMARK   14  A    between atoms: C_24  and  C_25
REMARK   15  A    between atoms: C_24  and  C_26
REMARK                            x       y       z     vdW  Elec       q    Type
REMARK                         _______ _______ _______ _____ _____    ______ ____
ROOT
ATOM      1  C   UNL     1       2.043   5.929  19.817  0.00  0.00    +0.000 C 
ENDROOT
BRANCH   1   2
ATOM      2  N   UNL     1       3.406   5.562  19.444  0.00  0.00    +0.000 N 
ATOM      3  C   UNL     1       3.727   4.622  18.515  0.00  0.00    +0.000 C 
ATOM      4  O   UNL     1       2.933   3.940  17.891  0.00  0.00    +0.000 OA
ATOM      5  H   UNL     1       4.176   5.825  20.048  0.00  0.00    +0.000 HD
BRANCH   3   6
ATOM      6  O   UNL     1       5.076   4.518  18.490  0.00  0.00    +0.000 OA
BRANCH   6   7
ATOM      7  C   UNL     1       5.828   5.685  18.862  0.00  0.00    +0.000 C 
BRANCH   7   8
ATOM      8  C   UNL     1       6.848   6.139  17.783  0.00  0.00    +0.000 C 
ATOM      9  C   UNL     1       7.398   4.913  16.996  0.00  0.00    +0.000 C 
ATOM     10  C   UNL     1       6.370   4.222  16.095  0.00  0.00    +0.000 C 
ATOM     11  C   UNL     1       5.661   5.204  15.169  0.00  0.00    +0.000 C 
ATOM     12  C   UNL     1       5.082   6.387  15.931  0.00  0.00    +0.000 C 
ATOM     13  C   UNL     1       6.150   7.089  16.774  0.00  0.00    +0.000 C 
BRANCH   8  14
ATOM     14  C   UNL     1       8.031   6.916  18.446  0.00  0.00    +0.000 C 
ATOM     15  C   UNL     1       8.192   8.381  18.038  0.00  0.00    +0.000 C 
ENDBRANCH   8  14
ENDBRANCH   7   8
ENDBRANCH   6   7
ENDBRANCH   3   6
ENDBRANCH   1   2
BRANCH   1  16
ATOM     16  C   UNL     1       1.980   7.433  20.180  0.00  0.00    +0.000 C 
ATOM     17  O   UNL     1       2.091   7.854  21.330  0.00  0.00    +0.000 OA
BRANCH  16  18
ATOM     18  C   UNL     1       1.783   8.460  19.040  0.00  0.00    +0.000 C 
ATOM     19  O   UNL     1       2.453   8.387  18.037  0.00  0.00    +0.000 OA
ATOM     20  N   UNL     1       0.816   9.439  19.287  0.00  0.00    +0.000 N 
ATOM     21  H   UNL     1       0.116   9.207  19.977  0.00  0.00    +0.000 HD
BRANCH  20  22
ATOM     22  C   UNL     1       0.533  10.519  18.336  0.00  0.00    +0.000 C 
ATOM     23  C   UNL     1       1.111  11.881  18.780  0.00  0.00    +0.000 C 
BRANCH  22  24
ATOM     24  C   UNL     1      -0.956  10.681  18.067  0.00  0.00    +0.000 A 
ATOM     25  C   UNL     1      -1.687  11.648  18.776  0.00  0.00    +0.000 A 
ATOM     26  C   UNL     1      -3.075  11.727  18.652  0.00  0.00    +0.000 A 
ATOM     27  C   UNL     1      -3.753  10.842  17.818  0.00  0.00    +0.000 A 
ATOM     28  C   UNL     1      -3.042   9.896  17.083  0.00  0.00    +0.000 A 
ATOM     29  C   UNL     1      -1.652   9.822  17.198  0.00  0.00    +0.000 A 
ENDBRANCH  22  24
ENDBRANCH  20  22
ENDBRANCH  16  18
ENDBRANCH   1  16
BRANCH   1  30
ATOM     30  C   UNL     1       1.512   4.952  20.882  0.00  0.00    +0.000 C 
BRANCH  30  31
ATOM     31  C   UNL     1       0.737   3.772  20.301  0.00  0.00    +0.000 C 
BRANCH  31  33
ATOM     32  C   UNL     1       2.620   2.662  21.528  0.00  0.00    +0.000 C 
ATOM     33  C   UNL     1       1.323   2.437  20.770  0.00  0.00    +0.000 C 
ENDBRANCH  31  33
ENDBRANCH  30  31
ENDBRANCH   1  30
TORSDOF 12
ENDMDL
MODEL 7
REMARK VINA RESULT:      -7.7      4.243      7.487
REMARK  Name = 
REMARK  15 active torsions:
REMARK  status: ('A' for Active; 'I' for Inactive)
REMARK    1  A    between atoms: C_1  and  C_2
REMARK    2  A    between atoms: C_2  and  C_3
REMARK    3  A    between atoms: C_3  and  C_4
REMARK    4  A    between atoms: C_4  and  C_5
REMARK    5  A    between atoms: C_5  and  N_6
REMARK    6  A    between atoms: C_5  and  C_19
REMARK    7  A    between atoms: C_7  and  O_9
REMARK    8  A    between atoms: O_9  and  C_10
REMARK    9  A    between atoms: C_10  and  C_11
REMARK   10  A    between atoms: C_11  and  C_12
REMARK   11  A    between atoms: C_12  and  C_13
REMARK   12  A    between atoms: C_19  and  C_21
REMARK   13  A    between atoms: N_23  and  C_24
REMARK   14  A    between atoms: C_24  and  C_25
REMARK   15  A    between atoms: C_24  and  C_26
REMARK                            x       y       z     vdW  Elec       q    Type
REMARK                         _______ _______ _______ _____ _____    ______ ____
ROOT
ATOM      1  C   UNL     1       2.641   6.067  19.410  0.00  0.00    +0.000 C 
ENDROOT
BRANCH   1   2
ATOM      2  N   UNL     1       2.007   7.280  18.902  0.00  0.00    +0.000 N 
ATOM      3  C   UNL     1       2.550   8.103  17.965  0.00  0.00    +0.000 C 
ATOM      4  O   UNL     1       3.642   7.961  17.442  0.00  0.00    +0.000 OA
ATOM      5  H   UNL     1       1.236   7.691  19.415  0.00  0.00    +0.000 HD
BRANCH   3   6
ATOM      6  O   UNL     1       1.704   9.146  17.799  0.00  0.00    +0.000 OA
BRANCH   6   7
ATOM      7  C   UNL     1       1.362   9.902  18.972  0.00  0.00    +0.000 C 
BRANCH   7   8
ATOM      8  C   UNL     1      -0.021  10.601  18.883  0.00  0.00    +0.000 C 
ATOM      9  C   UNL     1      -0.792  10.466  20.230  0.00  0.00    +0.000 C 
ATOM     10  C   UNL     1      -0.185  11.257  21.392  0.00  0.00    +0.000 C 
ATOM     11  C   UNL     1       0.055  12.719  21.033  0.00  0.00    +0.000 C 
ATOM     12  C   UNL     1       0.845  12.865  19.741  0.00  0.00    +0.000 C 
ATOM     13  C   UNL     1       0.177  12.111  18.587  0.00  0.00    +0.000 C 
BRANCH   8  14
ATOM     14  C   UNL     1      -0.869   9.984  17.724  0.00  0.00    +0.000 C 
ATOM     15  C   UNL     1      -2.388  10.070  17.878  0.00  0.00    +0.000 C 
ENDBRANCH   8  14
ENDBRANCH   7   8
ENDBRANCH   6   7
ENDBRANCH   3   6
ENDBRANCH   1   2
BRANCH   1  16
ATOM     16  C   UNL     1       2.903   5.080  18.246  0.00  0.00    +0.000 C 
ATOM     17  O   UNL     1       2.012   4.646  17.517  0.00  0.00    +0.000 OA
BRANCH  16  18
ATOM     18  C   UNL     1       4.356   4.626  17.976  0.00  0.00    +0.000 C 
ATOM     19  O   UNL     1       4.873   3.794  18.686  0.00  0.00    +0.000 OA
ATOM     20  N   UNL     1       4.983   5.258  16.897  0.00  0.00    +0.000 N 
ATOM     21  H   UNL     1       4.370   5.661  16.204  0.00  0.00    +0.000 HD
BRANCH  20  22
ATOM     22  C   UNL     1       6.375   4.984  16.529  0.00  0.00    +0.000 C 
ATOM     23  C   UNL     1       7.325   6.160  16.845  0.00  0.00    +0.000 C 
BRANCH  22  24
ATOM     24  C   UNL     1       6.525   4.612  15.061  0.00  0.00    +0.000 A 
ATOM     25  C   UNL     1       7.535   5.213  14.294  0.00  0.00    +0.000 A 
ATOM     26  C   UNL     1       7.611   4.996  12.917  0.00  0.00    +0.000 A 
ATOM     27  C   UNL     1       6.680   4.174  12.287  0.00  0.00    +0.000 A 
ATOM     28  C   UNL     1       5.690   3.544  13.037  0.00  0.00    +0.000 A 
ATOM     29  C   UNL     1       5.619   3.751  14.416  0.00  0.00    +0.000 A 
ENDBRANCH  22  24
ENDBRANCH  20  22
ENDBRANCH  16  18
ENDBRANCH   1  16
BRANCH   1  30
ATOM     30  C   UNL     1       1.834   5.515  20.599  0.00  0.00    +0.000 C 
BRANCH  30  31
ATOM     31  C   UNL     1       2.299   4.139  21.072  0.00  0.00    +0.000 C 
BRANCH  31  33
ATOM     32  C   UNL     1       1.662   2.075  19.802  0.00  0.00    +0.000 C 
ATOM     33  C   UNL     1       1.216   3.080  20.850  0.00  0.00    +0.000 C 
ENDBRANCH  31  33
ENDBRANCH  30  31
ENDBRANCH   1  30
TORSDOF 12
ENDMDL
MODEL 8
REMARK VINA RESULT:      -7.7      2.035      3.674
REMARK  Name = 
REMARK  15 active torsions:
REMARK  status: ('A' for Active; 'I' for Inactive)
REMARK    1  A    between atoms: C_1  and  C_2
REMARK    2  A    between atoms: C_2  and  C_3
REMARK    3  A    between atoms: C_3  and  C_4
REMARK    4  A    between atoms: C_4  and  C_5
REMARK    5  A    between atoms: C_5  and  N_6
REMARK    6  A    between atoms: C_5  and  C_19
REMARK    7  A    between atoms: C_7  and  O_9
REMARK    8  A    between atoms: O_9  and  C_10
REMARK    9  A    between atoms: C_10  and  C_11
REMARK   10  A    between atoms: C_11  and  C_12
REMARK   11  A    between atoms: C_12  and  C_13
REMARK   12  A    between atoms: C_19  and  C_21
REMARK   13  A    between atoms: N_23  and  C_24
REMARK   14  A    between atoms: C_24  and  C_25
REMARK   15  A    between atoms: C_24  and  C_26
REMARK                            x       y       z     vdW  Elec       q    Type
REMARK                         _______ _______ _______ _____ _____    ______ ____
ROOT
ATOM      1  C   UNL     1       7.113   5.925  17.566  0.00  0.00    +0.000 C 
ENDROOT
BRANCH   1   2
ATOM      2  N   UNL     1       8.059   7.032  17.681  0.00  0.00    +0.000 N 
ATOM      3  C   UNL     1       7.716   8.348  17.661  0.00  0.00    +0.000 C 
ATOM      4  O   UNL     1       6.588   8.786  17.518  0.00  0.00    +0.000 OA
ATOM      5  H   UNL     1       9.046   6.860  17.533  0.00  0.00    +0.000 HD
BRANCH   3   6
ATOM      6  O   UNL     1       8.860   9.068  17.729  0.00  0.00    +0.000 OA
BRANCH   6   7
ATOM      7  C   UNL     1       9.047   9.888  18.894  0.00  0.00    +0.000 C 
BRANCH   7   8
ATOM      8  C   UNL     1       9.265  11.390  18.571  0.00  0.00    +0.000 C 
ATOM      9  C   UNL     1       9.315  12.233  19.880  0.00  0.00    +0.000 C 
ATOM     10  C   UNL     1      10.550  11.981  20.751  0.00  0.00    +0.000 C 
ATOM     11  C   UNL     1      11.848  12.104  19.962  0.00  0.00    +0.000 C 
ATOM     12  C   UNL     1      11.829  11.253  18.701  0.00  0.00    +0.000 C 
ATOM     13  C   UNL     1      10.613  11.573  17.826  0.00  0.00    +0.000 C 
BRANCH   8  14
ATOM     14  C   UNL     1       8.122  11.920  17.645  0.00  0.00    +0.000 C 
ATOM     15  C   UNL     1       8.034  13.437  17.477  0.00  0.00    +0.000 C 
ENDBRANCH   8  14
ENDBRANCH   7   8
ENDBRANCH   6   7
ENDBRANCH   3   6
ENDBRANCH   1   2
BRANCH   1  16
ATOM     16  C   UNL     1       6.762   5.380  18.972  0.00  0.00    +0.000 C 
ATOM     17  O   UNL     1       7.601   5.200  19.853  0.00  0.00    +0.000 OA
BRANCH  16  18
ATOM     18  C   UNL     1       5.283   5.061  19.292  0.00  0.00    +0.000 C 
ATOM     19  O   UNL     1       4.990   4.011  19.816  0.00  0.00    +0.000 OA
ATOM     20  N   UNL     1       4.368   6.049  18.915  0.00  0.00    +0.000 N 
ATOM     21  H   UNL     1       4.743   6.980  18.805  0.00  0.00    +0.000 HD
BRANCH  20  22
ATOM     22  C   UNL     1       2.922   5.891  19.099  0.00  0.00    +0.000 C 
ATOM     23  C   UNL     1       2.274   4.982  18.031  0.00  0.00    +0.000 C 
BRANCH  22  24
ATOM     24  C   UNL     1       2.191   7.225  19.119  0.00  0.00    +0.000 A 
ATOM     25  C   UNL     1       2.129   7.999  17.950  0.00  0.00    +0.000 A 
ATOM     26  C   UNL     1       1.585   9.285  17.973  0.00  0.00    +0.000 A 
ATOM     27  C   UNL     1       1.095   9.815  19.163  0.00  0.00    +0.000 A 
ATOM     28  C   UNL     1       1.119   9.050  20.326  0.00  0.00    +0.000 A 
ATOM     29  C   UNL     1       1.653   7.759  20.304  0.00  0.00    +0.000 A 
ENDBRANCH  22  24
ENDBRANCH  20  22
ENDBRANCH  16  18
ENDBRANCH   1  16
BRANCH   1  30
ATOM     30  C   UNL     1       7.637   4.894  16.550  0.00  0.00    +0.000 C 
BRANCH  30  31
ATOM     31  C   UNL     1       7.049   5.056  15.151  0.00  0.00    +0.000 C 
BRANCH  31  33
ATOM     32  C   UNL     1       5.059   3.727  15.896  0.00  0.00    +0.000 C 
ATOM     33  C   UNL     1       6.104   3.901  14.808  0.00  0.00    +0.000 C 
ENDBRANCH  31  33
ENDBRANCH  30  31
ENDBRANCH   1  30
TORSDOF 12
ENDMDL
MODEL 9
REMARK VINA RESULT:      -7.7      1.985      3.563
REMARK  Name = 
REMARK  15 active torsions:
REMARK  status: ('A' for Active; 'I' for Inactive)
REMARK    1  A    between atoms: C_1  and  C_2
REMARK    2  A    between atoms: C_2  and  C_3
REMARK    3  A    between atoms: C_3  and  C_4
REMARK    4  A    between atoms: C_4  and  C_5
REMARK    5  A    between atoms: C_5  and  N_6
REMARK    6  A    between atoms: C_5  and  C_19
REMARK    7  A    between atoms: C_7  and  O_9
REMARK    8  A    between atoms: O_9  and  C_10
REMARK    9  A    between atoms: C_10  and  C_11
REMARK   10  A    between atoms: C_11  and  C_12
REMARK   11  A    between atoms: C_12  and  C_13
REMARK   12  A    between atoms: C_19  and  C_21
REMARK   13  A    between atoms: N_23  and  C_24
REMARK   14  A    between atoms: C_24  and  C_25
REMARK   15  A    between atoms: C_24  and  C_26
REMARK                            x       y       z     vdW  Elec       q    Type
REMARK                         _______ _______ _______ _____ _____    ______ ____
ROOT
ATOM      1  C   UNL     1       7.094   6.012  16.824  0.00  0.00    +0.000 C 
ENDROOT
BRANCH   1   2
ATOM      2  N   UNL     1       7.954   7.181  16.988  0.00  0.00    +0.000 N 
ATOM      3  C   UNL     1       7.557   8.362  17.536  0.00  0.00    +0.000 C 
ATOM      4  O   UNL     1       6.435   8.618  17.936  0.00  0.00    +0.000 OA
ATOM      5  H   UNL     1       8.822   7.238  16.470  0.00  0.00    +0.000 HD
BRANCH   3   6
ATOM      6  O   UNL     1       8.603   9.217  17.460  0.00  0.00    +0.000 OA
BRANCH   6   7
ATOM      7  C   UNL     1       8.956   9.925  18.660  0.00  0.00    +0.000 C 
BRANCH   7   8
ATOM      8  C   UNL     1       9.206  11.441  18.439  0.00  0.00    +0.000 C 
ATOM      9  C   UNL     1       9.217  12.200  19.798  0.00  0.00    +0.000 C 
ATOM     10  C   UNL     1      10.414  11.876  20.698  0.00  0.00    +0.000 C 
ATOM     11  C   UNL     1      11.743  12.026  19.968  0.00  0.00    +0.000 C 
ATOM     12  C   UNL     1      11.761  11.254  18.657  0.00  0.00    +0.000 C 
ATOM     13  C   UNL     1      10.585  11.647  17.758  0.00  0.00    +0.000 C 
BRANCH   8  14
ATOM     14  C   UNL     1       8.108  12.044  17.505  0.00  0.00    +0.000 C 
ATOM     15  C   UNL     1       7.912  13.559  17.582  0.00  0.00    +0.000 C 
ENDBRANCH   8  14
ENDBRANCH   7   8
ENDBRANCH   6   7
ENDBRANCH   3   6
ENDBRANCH   1   2
BRANCH   1  16
ATOM     16  C   UNL     1       7.010   5.226  18.155  0.00  0.00    +0.000 C 
ATOM     17  O   UNL     1       7.977   4.670  18.671  0.00  0.00    +0.000 OA
BRANCH  16  18
ATOM     18  C   UNL     1       5.645   5.147  18.880  0.00  0.00    +0.000 C 
ATOM     19  O   UNL     1       5.548   4.538  19.920  0.00  0.00    +0.000 OA
ATOM     20  N   UNL     1       4.592   5.798  18.232  0.00  0.00    +0.000 N 
ATOM     21  H   UNL     1       4.854   6.524  17.581  0.00  0.00    +0.000 HD
BRANCH  20  22
ATOM     22  C   UNL     1       3.221   5.784  18.753  0.00  0.00    +0.000 C 
ATOM     23  C   UNL     1       2.271   4.890  17.927  0.00  0.00    +0.000 C 
BRANCH  22  24
ATOM     24  C   UNL     1       2.623   7.179  18.852  0.00  0.00    +0.000 A 
ATOM     25  C   UNL     1       1.950   7.563  20.022  0.00  0.00    +0.000 A 
ATOM     26  C   UNL     1       1.275   8.783  20.090  0.00  0.00    +0.000 A 
ATOM     27  C   UNL     1       1.261   9.636  18.990  0.00  0.00    +0.000 A 
ATOM     28  C   UNL     1       1.948   9.286  17.831  0.00  0.00    +0.000 A 
ATOM     29  C   UNL     1       2.634   8.071  17.764  0.00  0.00    +0.000 A 
ENDBRANCH  22  24
ENDBRANCH  20  22
ENDBRANCH  16  18
ENDBRANCH   1  16
BRANCH   1  30
ATOM     30  C   UNL     1       7.538   5.208  15.588  0.00  0.00    +0.000 C 
BRANCH  30  31
ATOM     31  C   UNL     1       6.499   5.178  14.469  0.00  0.00    +0.000 C 
BRANCH  31  33
ATOM     32  C   UNL     1       5.075   3.451  15.598  0.00  0.00    +0.000 C 
ATOM     33  C   UNL     1       5.859   3.792  14.342  0.00  0.00    +0.000 C 
ENDBRANCH  31  33
ENDBRANCH  30  31
ENDBRANCH   1  30
TORSDOF 12
ENDMDL
