MODEL 1
REMARK VINA RESULT:      -7.8      0.000      0.000
REMARK  Name = 
REMARK  4 active torsions:
REMARK  status: ('A' for Active; 'I' for Inactive)
REMARK    1  A    between atoms: C_2  and  N_5
REMARK    2  A    between atoms: N_15  and  C_16
REMARK    3  A    between atoms: C_18  and  C_19
REMARK    4  A    between atoms: C_22  and  C_23
REMARK                            x       y       z     vdW  Elec       q    Type
REMARK                         _______ _______ _______ _____ _____    ______ ____
ROOT
ATOM      1  N   UNL     1       0.739   9.794  21.457  0.00  0.00    +0.000 N 
ATOM      2  C   UNL     1       0.099  11.001  21.174  0.00  0.00    +0.000 C 
ATOM      3  O   UNL     1      -0.498  11.689  21.990  0.00  0.00    +0.000 OA
ATOM      4  C   UNL     1       0.311  11.317  19.637  0.00  0.00    +0.000 C 
ATOM      5  C   UNL     1       1.073  10.068  19.209  0.00  0.00    +0.000 A 
ATOM      6  C   UNL     1       1.437   9.638  17.935  0.00  0.00    +0.000 A 
ATOM      7  C   UNL     1       1.989   8.362  17.779  0.00  0.00    +0.000 A 
ATOM      8  C   UNL     1       2.193   7.532  18.888  0.00  0.00    +0.000 A 
ATOM      9  C   UNL     1       1.853   7.967  20.172  0.00  0.00    +0.000 A 
ATOM     10  C   UNL     1       1.277   9.221  20.305  0.00  0.00    +0.000 A 
ATOM     11  N   UNL     1      -1.059  11.433  19.064  0.00  0.00    +0.000 NA
ATOM     12  C   UNL     1      -1.661  10.258  18.446  0.00  0.00    +0.000 C 
ATOM     13  C   UNL     1      -1.140  12.588  18.186  0.00  0.00    +0.000 C 
ATOM     14  C   UNL     1      -0.025  13.551  18.582  0.00  0.00    +0.000 C 
ATOM     15  C   UNL     1       0.977  12.724  19.494  0.00  0.00    +0.000 C 
ATOM     16  C   UNL     1       1.355  13.475  20.811  0.00  0.00    +0.000 C 
ATOM     17  C   UNL     1       2.309  14.505  20.300  0.00  0.00    +0.000 A 
ATOM     18  C   UNL     1       2.316  15.878  20.478  0.00  0.00    +0.000 A 
ATOM     19  C   UNL     1       3.195  16.634  19.701  0.00  0.00    +0.000 A 
ATOM     20  C   UNL     1       4.149  16.015  18.872  0.00  0.00    +0.000 A 
ATOM     21  C   UNL     1       4.122  14.631  18.690  0.00  0.00    +0.000 A 
ATOM     22  C   UNL     1       3.118  13.938  19.333  0.00  0.00    +0.000 A 
ATOM     23  C   UNL     1       2.386  12.767  18.828  0.00  0.00    +0.000 C 
ATOM     24  O   UNL     1       2.793  12.121  17.884  0.00  0.00    +0.000 OA
ENDROOT
BRANCH  14  25
ATOM     25  C   UNL     1      -0.617  14.852  19.122  0.00  0.00    +0.000 A 
ATOM     26  C   UNL     1      -1.357  14.895  20.315  0.00  0.00    +0.000 A 
ATOM     27  C   UNL     1      -1.685  16.115  20.910  0.00  0.00    +0.000 A 
ATOM     28  C   UNL     1      -1.339  17.320  20.293  0.00  0.00    +0.000 A 
ATOM     29  C   UNL     1      -1.546  18.631  20.993  0.00  0.00    +0.000 C 
ATOM     30  C   UNL     1      -0.724  17.284  19.038  0.00  0.00    +0.000 A 
ATOM     31  C   UNL     1      -0.365  16.063  18.458  0.00  0.00    +0.000 A 
ENDBRANCH  14  25
BRANCH   1  33
ATOM     32  H   UNL     1       1.510   8.389  22.754  0.00  0.00    +0.000 HD
ATOM     33  C   UNL     1       0.831   9.247  22.783  0.00  0.00    +0.000 C 
ATOM     34  H   UNL     1      -0.147   8.939  23.160  0.00  0.00    +0.000 HD
ATOM     35  H   UNL     1       1.252   9.993  23.465  0.00  0.00    +0.000 HD
ENDBRANCH   1  33
TORSDOF 2
ENDMDL
MODEL 2
REMARK VINA RESULT:      -7.3      6.921      9.318
REMARK  Name = 
REMARK  4 active torsions:
REMARK  status: ('A' for Active; 'I' for Inactive)
REMARK    1  A    between atoms: C_2  and  N_5
REMARK    2  A    between atoms: N_15  and  C_16
REMARK    3  A    between atoms: C_18  and  C_19
REMARK    4  A    between atoms: C_22  and  C_23
REMARK                            x       y       z     vdW  Elec       q    Type
REMARK                         _______ _______ _______ _____ _____    ______ ____
ROOT
ATOM      1  N   UNL     1       8.509  14.642  25.260  0.00  0.00    +0.000 N 
ATOM      2  C   UNL     1       8.472  15.260  24.009  0.00  0.00    +0.000 C 
ATOM      3  O   UNL     1       8.949  16.356  23.751  0.00  0.00    +0.000 OA
ATOM      4  C   UNL     1       7.734  14.283  23.005  0.00  0.00    +0.000 C 
ATOM      5  C   UNL     1       7.362  13.152  23.956  0.00  0.00    +0.000 A 
ATOM      6  C   UNL     1       6.556  12.035  23.742  0.00  0.00    +0.000 A 
ATOM      7  C   UNL     1       6.222  11.219  24.828  0.00  0.00    +0.000 A 
ATOM      8  C   UNL     1       6.703  11.505  26.112  0.00  0.00    +0.000 A 
ATOM      9  C   UNL     1       7.531  12.609  26.328  0.00  0.00    +0.000 A 
ATOM     10  C   UNL     1       7.827  13.426  25.248  0.00  0.00    +0.000 A 
ATOM     11  N   UNL     1       6.575  15.057  22.479  0.00  0.00    +0.000 NA
ATOM     12  C   UNL     1       5.279  14.906  23.130  0.00  0.00    +0.000 C 
ATOM     13  C   UNL     1       6.464  14.882  21.041  0.00  0.00    +0.000 C 
ATOM     14  C   UNL     1       7.833  14.455  20.520  0.00  0.00    +0.000 C 
ATOM     15  C   UNL     1       8.672  14.001  21.788  0.00  0.00    +0.000 C 
ATOM     16  C   UNL     1      10.101  14.633  21.823  0.00  0.00    +0.000 C 
ATOM     17  C   UNL     1      10.807  13.826  20.782  0.00  0.00    +0.000 A 
ATOM     18  C   UNL     1      11.540  14.238  19.683  0.00  0.00    +0.000 A 
ATOM     19  C   UNL     1      11.903  13.275  18.740  0.00  0.00    +0.000 A 
ATOM     20  C   UNL     1      11.666  11.908  18.970  0.00  0.00    +0.000 A 
ATOM     21  C   UNL     1      10.912  11.506  20.075  0.00  0.00    +0.000 A 
ATOM     22  C   UNL     1      10.413  12.505  20.884  0.00  0.00    +0.000 A 
ATOM     23  C   UNL     1       9.114  12.521  21.573  0.00  0.00    +0.000 C 
ATOM     24  O   UNL     1       8.456  11.511  21.712  0.00  0.00    +0.000 OA
ENDROOT
BRANCH  14  25
ATOM     25  C   UNL     1       8.406  15.529  19.596  0.00  0.00    +0.000 A 
ATOM     26  C   UNL     1       8.732  16.813  20.060  0.00  0.00    +0.000 A 
ATOM     27  C   UNL     1       9.467  17.696  19.266  0.00  0.00    +0.000 A 
ATOM     28  C   UNL     1       9.835  17.341  17.966  0.00  0.00    +0.000 A 
ATOM     29  C   UNL     1      10.753  18.212  17.160  0.00  0.00    +0.000 C 
ATOM     30  C   UNL     1       9.395  16.118  17.450  0.00  0.00    +0.000 A 
ATOM     31  C   UNL     1       8.688  15.220  18.256  0.00  0.00    +0.000 A 
ENDBRANCH  14  25
BRANCH   1  33
ATOM     32  H   UNL     1       9.622  14.386  26.976  0.00  0.00    +0.000 HD
ATOM     33  C   UNL     1       9.191  15.206  26.393  0.00  0.00    +0.000 C 
ATOM     34  H   UNL     1       8.515  15.795  27.017  0.00  0.00    +0.000 HD
ATOM     35  H   UNL     1      10.008  15.850  26.053  0.00  0.00    +0.000 HD
ENDBRANCH   1  33
TORSDOF 2
ENDMDL
MODEL 3
REMARK VINA RESULT:      -6.9      2.461      6.481
REMARK  Name = 
REMARK  4 active torsions:
REMARK  status: ('A' for Active; 'I' for Inactive)
REMARK    1  A    between atoms: C_2  and  N_5
REMARK    2  A    between atoms: N_15  and  C_16
REMARK    3  A    between atoms: C_18  and  C_19
REMARK    4  A    between atoms: C_22  and  C_23
REMARK                            x       y       z     vdW  Elec       q    Type
REMARK                         _______ _______ _______ _____ _____    ______ ____
ROOT
ATOM      1  N   UNL     1       0.053  15.979  21.233  0.00  0.00    +0.000 N 
ATOM      2  C   UNL     1      -0.540  15.103  20.322  0.00  0.00    +0.000 C 
ATOM      3  O   UNL     1      -0.404  15.152  19.108  0.00  0.00    +0.000 OA
ATOM      4  C   UNL     1      -1.380  14.042  21.144  0.00  0.00    +0.000 C 
ATOM      5  C   UNL     1      -1.169  14.569  22.558  0.00  0.00    +0.000 A 
ATOM      6  C   UNL     1      -1.768  14.179  23.754  0.00  0.00    +0.000 A 
ATOM      7  C   UNL     1      -1.535  14.932  24.910  0.00  0.00    +0.000 A 
ATOM      8  C   UNL     1      -0.698  16.054  24.874  0.00  0.00    +0.000 A 
ATOM      9  C   UNL     1      -0.076  16.437  23.683  0.00  0.00    +0.000 A 
ATOM     10  C   UNL     1      -0.342  15.698  22.540  0.00  0.00    +0.000 A 
ATOM     11  N   UNL     1      -2.776  14.166  20.638  0.00  0.00    +0.000 NA
ATOM     12  C   UNL     1      -3.706  15.031  21.353  0.00  0.00    +0.000 C 
ATOM     13  C   UNL     1      -3.349  12.849  20.417  0.00  0.00    +0.000 C 
ATOM     14  C   UNL     1      -2.196  11.865  20.242  0.00  0.00    +0.000 C 
ATOM     15  C   UNL     1      -0.894  12.605  20.767  0.00  0.00    +0.000 C 
ATOM     16  C   UNL     1       0.306  12.493  19.772  0.00  0.00    +0.000 C 
ATOM     17  C   UNL     1       0.741  11.081  19.992  0.00  0.00    +0.000 A 
ATOM     18  C   UNL     1       0.947  10.060  19.081  0.00  0.00    +0.000 A 
ATOM     19  C   UNL     1       1.134   8.769  19.575  0.00  0.00    +0.000 A 
ATOM     20  C   UNL     1       1.260   8.530  20.956  0.00  0.00    +0.000 A 
ATOM     21  C   UNL     1       1.036   9.566  21.866  0.00  0.00    +0.000 A 
ATOM     22  C   UNL     1       0.671  10.787  21.342  0.00  0.00    +0.000 A 
ATOM     23  C   UNL     1      -0.280  11.750  21.917  0.00  0.00    +0.000 C 
ATOM     24  O   UNL     1      -0.640  11.675  23.074  0.00  0.00    +0.000 OA
ENDROOT
BRANCH  14  25
ATOM     25  C   UNL     1      -2.203  11.288  18.827  0.00  0.00    +0.000 A 
ATOM     26  C   UNL     1      -2.572   9.959  18.568  0.00  0.00    +0.000 A 
ATOM     27  C   UNL     1      -2.799   9.521  17.261  0.00  0.00    +0.000 A 
ATOM     28  C   UNL     1      -2.597  10.384  16.180  0.00  0.00    +0.000 A 
ATOM     29  C   UNL     1      -2.983   9.978  14.788  0.00  0.00    +0.000 C 
ATOM     30  C   UNL     1      -2.097  11.667  16.424  0.00  0.00    +0.000 A 
ATOM     31  C   UNL     1      -1.903  12.116  17.735  0.00  0.00    +0.000 A 
ENDBRANCH  14  25
BRANCH   1  33
ATOM     32  H   UNL     1       1.127  17.675  21.700  0.00  0.00    +0.000 HD
ATOM     33  C   UNL     1       0.967  17.016  20.840  0.00  0.00    +0.000 C 
ATOM     34  H   UNL     1       0.585  17.591  19.995  0.00  0.00    +0.000 HD
ATOM     35  H   UNL     1       1.931  16.578  20.562  0.00  0.00    +0.000 HD
ENDBRANCH   1  33
TORSDOF 2
ENDMDL
MODEL 4
REMARK VINA RESULT:      -6.8      3.048      6.003
REMARK  Name = 
REMARK  4 active torsions:
REMARK  status: ('A' for Active; 'I' for Inactive)
REMARK    1  A    between atoms: C_2  and  N_5
REMARK    2  A    between atoms: N_15  and  C_16
REMARK    3  A    between atoms: C_18  and  C_19
REMARK    4  A    between atoms: C_22  and  C_23
REMARK                            x       y       z     vdW  Elec       q    Type
REMARK                         _______ _______ _______ _____ _____    ______ ____
ROOT
ATOM      1  N   UNL     1      -3.975  12.879  23.275  0.00  0.00    +0.000 N 
ATOM      2  C   UNL     1      -2.720  13.321  22.856  0.00  0.00    +0.000 C 
ATOM      3  O   UNL     1      -1.721  13.376  23.559  0.00  0.00    +0.000 OA
ATOM      4  C   UNL     1      -2.825  13.704  21.323  0.00  0.00    +0.000 C 
ATOM      5  C   UNL     1      -4.311  13.455  21.086  0.00  0.00    +0.000 A 
ATOM      6  C   UNL     1      -5.097  13.746  19.974  0.00  0.00    +0.000 A 
ATOM      7  C   UNL     1      -6.483  13.576  20.057  0.00  0.00    +0.000 A 
ATOM      8  C   UNL     1      -7.076  13.104  21.235  0.00  0.00    +0.000 A 
ATOM      9  C   UNL     1      -6.290  12.788  22.346  0.00  0.00    +0.000 A 
ATOM     10  C   UNL     1      -4.921  12.992  22.258  0.00  0.00    +0.000 A 
ATOM     11  N   UNL     1      -2.417  15.134  21.242  0.00  0.00    +0.000 NA
ATOM     12  C   UNL     1      -3.451  16.161  21.277  0.00  0.00    +0.000 C 
ATOM     13  C   UNL     1      -1.512  15.336  20.123  0.00  0.00    +0.000 C 
ATOM     14  C   UNL     1      -0.881  13.988  19.788  0.00  0.00    +0.000 C 
ATOM     15  C   UNL     1      -1.761  12.889  20.520  0.00  0.00    +0.000 C 
ATOM     16  C   UNL     1      -0.898  11.857  21.317  0.00  0.00    +0.000 C 
ATOM     17  C   UNL     1      -0.351  11.014  20.211  0.00  0.00    +0.000 A 
ATOM     18  C   UNL     1       0.955  10.657  19.928  0.00  0.00    +0.000 A 
ATOM     19  C   UNL     1       1.214  10.045  18.700  0.00  0.00    +0.000 A 
ATOM     20  C   UNL     1       0.167   9.665  17.842  0.00  0.00    +0.000 A 
ATOM     21  C   UNL     1      -1.146  10.043  18.133  0.00  0.00    +0.000 A 
ATOM     22  C   UNL     1      -1.337  10.808  19.263  0.00  0.00    +0.000 A 
ATOM     23  C   UNL     1      -2.303  11.903  19.440  0.00  0.00    +0.000 C 
ATOM     24  O   UNL     1      -3.231  12.062  18.674  0.00  0.00    +0.000 OA
ENDROOT
BRANCH  14  25
ATOM     25  C   UNL     1       0.624  14.029  20.049  0.00  0.00    +0.000 A 
ATOM     26  C   UNL     1       1.563  13.835  19.024  0.00  0.00    +0.000 A 
ATOM     27  C   UNL     1       2.917  14.108  19.232  0.00  0.00    +0.000 A 
ATOM     28  C   UNL     1       3.372  14.517  20.489  0.00  0.00    +0.000 A 
ATOM     29  C   UNL     1       4.791  14.961  20.686  0.00  0.00    +0.000 C 
ATOM     30  C   UNL     1       2.462  14.580  21.549  0.00  0.00    +0.000 A 
ATOM     31  C   UNL     1       1.101  14.339  21.332  0.00  0.00    +0.000 A 
ENDBRANCH  14  25
BRANCH   1  33
ATOM     32  H   UNL     1      -3.289  11.936  24.975  0.00  0.00    +0.000 HD
ATOM     33  C   UNL     1      -4.223  12.360  24.593  0.00  0.00    +0.000 C 
ATOM     34  H   UNL     1      -5.005  11.598  24.585  0.00  0.00    +0.000 HD
ATOM     35  H   UNL     1      -4.528  13.171  25.261  0.00  0.00    +0.000 HD
ENDBRANCH   1  33
TORSDOF 2
ENDMDL
MODEL 5
REMARK VINA RESULT:      -6.7      3.282      5.991
REMARK  Name = 
REMARK  4 active torsions:
REMARK  status: ('A' for Active; 'I' for Inactive)
REMARK    1  A    between atoms: C_2  and  N_5
REMARK    2  A    between atoms: N_15  and  C_16
REMARK    3  A    between atoms: C_18  and  C_19
REMARK    4  A    between atoms: C_22  and  C_23
REMARK                            x       y       z     vdW  Elec       q    Type
REMARK                         _______ _______ _______ _____ _____    ______ ____
ROOT
ATOM      1  N   UNL     1      -4.254  12.969  23.497  0.00  0.00    +0.000 N 
ATOM      2  C   UNL     1      -3.053  13.543  23.080  0.00  0.00    +0.000 C 
ATOM      3  O   UNL     1      -2.077  13.730  23.793  0.00  0.00    +0.000 OA
ATOM      4  C   UNL     1      -3.180  13.872  21.537  0.00  0.00    +0.000 C 
ATOM      5  C   UNL     1      -4.623  13.448  21.290  0.00  0.00    +0.000 A 
ATOM      6  C   UNL     1      -5.423  13.618  20.162  0.00  0.00    +0.000 A 
ATOM      7  C   UNL     1      -6.781  13.292  20.234  0.00  0.00    +0.000 A 
ATOM      8  C   UNL     1      -7.332  12.784  21.418  0.00  0.00    +0.000 A 
ATOM      9  C   UNL     1      -6.530  12.588  22.545  0.00  0.00    +0.000 A 
ATOM     10  C   UNL     1      -5.193  12.947  22.467  0.00  0.00    +0.000 A 
ATOM     11  N   UNL     1      -2.938  15.338  21.424  0.00  0.00    +0.000 NA
ATOM     12  C   UNL     1      -4.084  16.239  21.420  0.00  0.00    +0.000 C 
ATOM     13  C   UNL     1      -2.047  15.616  20.310  0.00  0.00    +0.000 C 
ATOM     14  C   UNL     1      -1.261  14.342  20.017  0.00  0.00    +0.000 C 
ATOM     15  C   UNL     1      -2.018  13.166  20.767  0.00  0.00    +0.000 C 
ATOM     16  C   UNL     1      -1.053  12.262  21.600  0.00  0.00    +0.000 C 
ATOM     17  C   UNL     1      -0.397  11.460  20.523  0.00  0.00    +0.000 A 
ATOM     18  C   UNL     1       0.946  11.250  20.263  0.00  0.00    +0.000 A 
ATOM     19  C   UNL     1       1.290  10.642  19.055  0.00  0.00    +0.000 A 
ATOM     20  C   UNL     1       0.306  10.122  18.195  0.00  0.00    +0.000 A 
ATOM     21  C   UNL     1      -1.046  10.353  18.462  0.00  0.00    +0.000 A 
ATOM     22  C   UNL     1      -1.339  11.119  19.570  0.00  0.00    +0.000 A 
ATOM     23  C   UNL     1      -2.427  12.099  19.707  0.00  0.00    +0.000 C 
ATOM     24  O   UNL     1      -3.357  12.130  18.927  0.00  0.00    +0.000 OA
ENDROOT
BRANCH  14  25
ATOM     25  C   UNL     1       0.226  14.563  20.294  0.00  0.00    +0.000 A 
ATOM     26  C   UNL     1       0.711  14.828  21.584  0.00  0.00    +0.000 A 
ATOM     27  C   UNL     1       2.081  14.792  21.855  0.00  0.00    +0.000 A 
ATOM     28  C   UNL     1       3.000  14.557  20.829  0.00  0.00    +0.000 A 
ATOM     29  C   UNL     1       4.457  14.362  21.130  0.00  0.00    +0.000 C 
ATOM     30  C   UNL     1       2.530  14.429  19.518  0.00  0.00    +0.000 A 
ATOM     31  C   UNL     1       1.157  14.431  19.252  0.00  0.00    +0.000 A 
ENDBRANCH  14  25
BRANCH   1  33
ATOM     32  H   UNL     1      -4.198  11.394  24.826  0.00  0.00    +0.000 HD
ATOM     33  C   UNL     1      -4.459  12.457  24.825  0.00  0.00    +0.000 C 
ATOM     34  H   UNL     1      -5.492  12.590  25.153  0.00  0.00    +0.000 HD
ATOM     35  H   UNL     1      -3.798  12.972  25.529  0.00  0.00    +0.000 HD
ENDBRANCH   1  33
TORSDOF 2
ENDMDL
MODEL 6
REMARK VINA RESULT:      -6.6      3.068      6.716
REMARK  Name = 
REMARK  4 active torsions:
REMARK  status: ('A' for Active; 'I' for Inactive)
REMARK    1  A    between atoms: C_2  and  N_5
REMARK    2  A    between atoms: N_15  and  C_16
REMARK    3  A    between atoms: C_18  and  C_19
REMARK    4  A    between atoms: C_22  and  C_23
REMARK                            x       y       z     vdW  Elec       q    Type
REMARK                         _______ _______ _______ _____ _____    ______ ____
ROOT
ATOM      1  N   UNL     1      -3.483  16.826  22.542  0.00  0.00    +0.000 N 
ATOM      2  C   UNL     1      -3.483  15.608  21.859  0.00  0.00    +0.000 C 
ATOM      3  O   UNL     1      -4.138  15.363  20.857  0.00  0.00    +0.000 OA
ATOM      4  C   UNL     1      -2.474  14.636  22.598  0.00  0.00    +0.000 C 
ATOM      5  C   UNL     1      -2.050  15.524  23.762  0.00  0.00    +0.000 A 
ATOM      6  C   UNL     1      -1.284  15.217  24.885  0.00  0.00    +0.000 A 
ATOM      7  C   UNL     1      -1.169  16.163  25.909  0.00  0.00    +0.000 A 
ATOM      8  C   UNL     1      -1.799  17.410  25.805  0.00  0.00    +0.000 A 
ATOM      9  C   UNL     1      -2.548  17.732  24.671  0.00  0.00    +0.000 A 
ATOM     10  C   UNL     1      -2.679  16.772  23.679  0.00  0.00    +0.000 A 
ATOM     11  N   UNL     1      -3.284  13.448  22.989  0.00  0.00    +0.000 NA
ATOM     12  C   UNL     1      -3.862  13.404  24.326  0.00  0.00    +0.000 C 
ATOM     13  C   UNL     1      -2.559  12.225  22.688  0.00  0.00    +0.000 C 
ATOM     14  C   UNL     1      -1.526  12.551  21.614  0.00  0.00    +0.000 C 
ATOM     15  C   UNL     1      -1.408  14.133  21.572  0.00  0.00    +0.000 C 
ATOM     16  C   UNL     1      -1.485  14.706  20.120  0.00  0.00    +0.000 C 
ATOM     17  C   UNL     1      -0.129  14.362  19.595  0.00  0.00    +0.000 A 
ATOM     18  C   UNL     1       0.235  13.695  18.439  0.00  0.00    +0.000 A 
ATOM     19  C   UNL     1       1.568  13.305  18.300  0.00  0.00    +0.000 A 
ATOM     20  C   UNL     1       2.543  13.707  19.230  0.00  0.00    +0.000 A 
ATOM     21  C   UNL     1       2.162  14.368  20.400  0.00  0.00    +0.000 A 
ATOM     22  C   UNL     1       0.811  14.570  20.588  0.00  0.00    +0.000 A 
ATOM     23  C   UNL     1       0.075  14.516  21.860  0.00  0.00    +0.000 C 
ATOM     24  O   UNL     1       0.650  14.553  22.929  0.00  0.00    +0.000 OA
ENDROOT
BRANCH  14  25
ATOM     25  C   UNL     1      -1.848  11.797  20.324  0.00  0.00    +0.000 A 
ATOM     26  C   UNL     1      -2.997  12.075  19.567  0.00  0.00    +0.000 A 
ATOM     27  C   UNL     1      -3.153  11.548  18.282  0.00  0.00    +0.000 A 
ATOM     28  C   UNL     1      -2.195  10.679  17.753  0.00  0.00    +0.000 A 
ATOM     29  C   UNL     1      -2.270  10.230  16.323  0.00  0.00    +0.000 C 
ATOM     30  C   UNL     1      -1.118  10.291  18.556  0.00  0.00    +0.000 A 
ATOM     31  C   UNL     1      -0.945  10.844  19.828  0.00  0.00    +0.000 A 
ENDBRANCH  14  25
BRANCH   1  33
ATOM     32  H   UNL     1      -5.192  17.979  22.588  0.00  0.00    +0.000 HD
ATOM     33  C   UNL     1      -4.217  17.977  22.090  0.00  0.00    +0.000 C 
ATOM     34  H   UNL     1      -4.350  17.969  21.007  0.00  0.00    +0.000 HD
ATOM     35  H   UNL     1      -3.686  18.891  22.374  0.00  0.00    +0.000 HD
ENDBRANCH   1  33
TORSDOF 2
ENDMDL
MODEL 7
REMARK VINA RESULT:      -6.6      2.938      6.773
REMARK  Name = 
REMARK  4 active torsions:
REMARK  status: ('A' for Active; 'I' for Inactive)
REMARK    1  A    between atoms: C_2  and  N_5
REMARK    2  A    between atoms: N_15  and  C_16
REMARK    3  A    between atoms: C_18  and  C_19
REMARK    4  A    between atoms: C_22  and  C_23
REMARK                            x       y       z     vdW  Elec       q    Type
REMARK                         _______ _______ _______ _____ _____    ______ ____
ROOT
ATOM      1  N   UNL     1      -4.385  15.294  21.660  0.00  0.00    +0.000 N 
ATOM      2  C   UNL     1      -3.711  14.121  21.318  0.00  0.00    +0.000 C 
ATOM      3  O   UNL     1      -3.872  13.493  20.282  0.00  0.00    +0.000 OA
ATOM      4  C   UNL     1      -2.701  13.780  22.490  0.00  0.00    +0.000 C 
ATOM      5  C   UNL     1      -3.034  14.903  23.465  0.00  0.00    +0.000 A 
ATOM      6  C   UNL     1      -2.608  15.101  24.777  0.00  0.00    +0.000 A 
ATOM      7  C   UNL     1      -3.187  16.124  25.534  0.00  0.00    +0.000 A 
ATOM      8  C   UNL     1      -4.171  16.953  24.981  0.00  0.00    +0.000 A 
ATOM      9  C   UNL     1      -4.586  16.775  23.659  0.00  0.00    +0.000 A 
ATOM     10  C   UNL     1      -4.024  15.736  22.931  0.00  0.00    +0.000 A 
ATOM     11  N   UNL     1      -3.084  12.419  22.959  0.00  0.00    +0.000 NA
ATOM     12  C   UNL     1      -3.994  12.298  24.091  0.00  0.00    +0.000 C 
ATOM     13  C   UNL     1      -1.898  11.601  23.148  0.00  0.00    +0.000 C 
ATOM     14  C   UNL     1      -0.780  12.202  22.301  0.00  0.00    +0.000 C 
ATOM     15  C   UNL     1      -1.259  13.661  21.900  0.00  0.00    +0.000 C 
ATOM     16  C   UNL     1      -1.081  13.958  20.376  0.00  0.00    +0.000 C 
ATOM     17  C   UNL     1       0.395  14.169  20.287  0.00  0.00    +0.000 A 
ATOM     18  C   UNL     1       1.329  13.584  19.449  0.00  0.00    +0.000 A 
ATOM     19  C   UNL     1       2.680  13.793  19.729  0.00  0.00    +0.000 A 
ATOM     20  C   UNL     1       3.084  14.690  20.734  0.00  0.00    +0.000 A 
ATOM     21  C   UNL     1       2.133  15.263  21.582  0.00  0.00    +0.000 A 
ATOM     22  C   UNL     1       0.821  14.885  21.390  0.00  0.00    +0.000 A 
ATOM     23  C   UNL     1      -0.202  14.680  22.426  0.00  0.00    +0.000 C 
ATOM     24  O   UNL     1      -0.054  15.095  23.557  0.00  0.00    +0.000 OA
ENDROOT
BRANCH  14  25
ATOM     25  C   UNL     1      -0.369  11.227  21.199  0.00  0.00    +0.000 A 
ATOM     26  C   UNL     1      -1.181  10.983  20.080  0.00  0.00    +0.000 A 
ATOM     27  C   UNL     1      -0.690  10.279  18.979  0.00  0.00    +0.000 A 
ATOM     28  C   UNL     1       0.601   9.745  18.998  0.00  0.00    +0.000 A 
ATOM     29  C   UNL     1       1.196   9.123  17.769  0.00  0.00    +0.000 C 
ATOM     30  C   UNL     1       1.365   9.867  20.163  0.00  0.00    +0.000 A 
ATOM     31  C   UNL     1       0.886  10.601  21.253  0.00  0.00    +0.000 A 
ENDBRANCH  14  25
BRANCH   1  33
ATOM     32  H   UNL     1      -6.279  15.438  20.857  0.00  0.00    +0.000 HD
ATOM     33  C   UNL     1      -5.313  15.949  20.779  0.00  0.00    +0.000 C 
ATOM     34  H   UNL     1      -4.965  15.935  19.745  0.00  0.00    +0.000 HD
ATOM     35  H   UNL     1      -5.451  16.989  21.090  0.00  0.00    +0.000 HD
ENDBRANCH   1  33
TORSDOF 2
ENDMDL
MODEL 8
REMARK VINA RESULT:      -6.5      7.317      9.205
REMARK  Name = 
REMARK  4 active torsions:
REMARK  status: ('A' for Active; 'I' for Inactive)
REMARK    1  A    between atoms: C_2  and  N_5
REMARK    2  A    between atoms: N_15  and  C_16
REMARK    3  A    between atoms: C_18  and  C_19
REMARK    4  A    between atoms: C_22  and  C_23
REMARK                            x       y       z     vdW  Elec       q    Type
REMARK                         _______ _______ _______ _____ _____    ______ ____
ROOT
ATOM      1  N   UNL     1       7.959  14.203  18.665  0.00  0.00    +0.000 N 
ATOM      2  C   UNL     1       7.959  15.010  19.804  0.00  0.00    +0.000 C 
ATOM      3  O   UNL     1       7.260  16.000  19.965  0.00  0.00    +0.000 OA
ATOM      4  C   UNL     1       8.993  14.396  20.835  0.00  0.00    +0.000 C 
ATOM      5  C   UNL     1       9.537  13.235  20.010  0.00  0.00    +0.000 A 
ATOM      6  C   UNL     1      10.600  12.375  20.275  0.00  0.00    +0.000 A 
ATOM      7  C   UNL     1      11.020  11.486  19.280  0.00  0.00    +0.000 A 
ATOM      8  C   UNL     1      10.373  11.445  18.038  0.00  0.00    +0.000 A 
ATOM      9  C   UNL     1       9.291  12.289  17.775  0.00  0.00    +0.000 A 
ATOM     10  C   UNL     1       8.907  13.187  18.760  0.00  0.00    +0.000 A 
ATOM     11  N   UNL     1       9.977  15.482  21.101  0.00  0.00    +0.000 NA
ATOM     12  C   UNL     1      11.209  15.516  20.322  0.00  0.00    +0.000 C 
ATOM     13  C   UNL     1      10.253  15.572  22.525  0.00  0.00    +0.000 C 
ATOM     14  C   UNL     1       9.076  14.944  23.265  0.00  0.00    +0.000 C 
ATOM     15  C   UNL     1       8.259  14.116  22.185  0.00  0.00    +0.000 C 
ATOM     16  C   UNL     1       6.724  14.403  22.240  0.00  0.00    +0.000 C 
ATOM     17  C   UNL     1       6.324  13.642  23.462  0.00  0.00    +0.000 A 
ATOM     18  C   UNL     1       5.614  14.055  24.576  0.00  0.00    +0.000 A 
ATOM     19  C   UNL     1       5.575  13.202  25.680  0.00  0.00    +0.000 A 
ATOM     20  C   UNL     1       6.108  11.902  25.614  0.00  0.00    +0.000 A 
ATOM     21  C   UNL     1       6.834  11.502  24.490  0.00  0.00    +0.000 A 
ATOM     22  C   UNL     1       7.009  12.441  23.496  0.00  0.00    +0.000 A 
ATOM     23  C   UNL     1       8.201  12.631  22.656  0.00  0.00    +0.000 C 
ATOM     24  O   UNL     1       9.065  11.782  22.577  0.00  0.00    +0.000 OA
ENDROOT
BRANCH  14  25
ATOM     25  C   UNL     1       8.349  16.002  24.095  0.00  0.00    +0.000 A 
ATOM     26  C   UNL     1       7.642  17.058  23.500  0.00  0.00    +0.000 A 
ATOM     27  C   UNL     1       6.795  17.870  24.259  0.00  0.00    +0.000 A 
ATOM     28  C   UNL     1       6.688  17.687  25.640  0.00  0.00    +0.000 A 
ATOM     29  C   UNL     1       5.671  18.445  26.441  0.00  0.00    +0.000 C 
ATOM     30  C   UNL     1       7.494  16.725  26.258  0.00  0.00    +0.000 A 
ATOM     31  C   UNL     1       8.316  15.890  25.494  0.00  0.00    +0.000 A 
ENDBRANCH  14  25
BRANCH   1  33
ATOM     32  H   UNL     1       6.056  14.127  17.874  0.00  0.00    +0.000 HD
ATOM     33  C   UNL     1       7.065  14.411  17.558  0.00  0.00    +0.000 C 
ATOM     34  H   UNL     1       7.362  13.825  16.686  0.00  0.00    +0.000 HD
ATOM     35  H   UNL     1       7.052  15.470  17.284  0.00  0.00    +0.000 HD
ENDBRANCH   1  33
TORSDOF 2
ENDMDL
MODEL 9
REMARK VINA RESULT:      -6.4      1.878      6.866
REMARK  Name = 
REMARK  4 active torsions:
REMARK  status: ('A' for Active; 'I' for Inactive)
REMARK    1  A    between atoms: C_2  and  N_5
REMARK    2  A    between atoms: N_15  and  C_16
REMARK    3  A    between atoms: C_18  and  C_19
REMARK    4  A    between atoms: C_22  and  C_23
REMARK                            x       y       z     vdW  Elec       q    Type
REMARK                         _______ _______ _______ _____ _____    ______ ____
ROOT
ATOM      1  N   UNL     1      -1.108  14.078  22.681  0.00  0.00    +0.000 N 
ATOM      2  C   UNL     1      -0.419  12.960  22.208  0.00  0.00    +0.000 C 
ATOM      3  O   UNL     1      -0.386  11.869  22.758  0.00  0.00    +0.000 OA
ATOM      4  C   UNL     1       0.275  13.358  20.841  0.00  0.00    +0.000 C 
ATOM      5  C   UNL     1      -0.114  14.829  20.761  0.00  0.00    +0.000 A 
ATOM      6  C   UNL     1       0.306  15.816  19.871  0.00  0.00    +0.000 A 
ATOM      7  C   UNL     1      -0.064  17.145  20.104  0.00  0.00    +0.000 A 
ATOM      8  C   UNL     1      -0.860  17.482  21.206  0.00  0.00    +0.000 A 
ATOM      9  C   UNL     1      -1.304  16.495  22.089  0.00  0.00    +0.000 A 
ATOM     10  C   UNL     1      -0.902  15.187  21.862  0.00  0.00    +0.000 A 
ATOM     11  N   UNL     1       1.729  13.112  21.048  0.00  0.00    +0.000 NA
ATOM     12  C   UNL     1       2.574  14.222  21.471  0.00  0.00    +0.000 C 
ATOM     13  C   UNL     1       2.293  12.431  19.895  0.00  0.00    +0.000 C 
ATOM     14  C   UNL     1       1.150  11.735  19.163  0.00  0.00    +0.000 C 
ATOM     15  C   UNL     1      -0.192  12.367  19.727  0.00  0.00    +0.000 C 
ATOM     16  C   UNL     1      -1.247  11.285  20.125  0.00  0.00    +0.000 C 
ATOM     17  C   UNL     1      -1.745  10.849  18.785  0.00  0.00    +0.000 A 
ATOM     18  C   UNL     1      -1.850   9.580  18.245  0.00  0.00    +0.000 A 
ATOM     19  C   UNL     1      -2.135   9.470  16.883  0.00  0.00    +0.000 A 
ATOM     20  C   UNL     1      -2.455  10.603  16.114  0.00  0.00    +0.000 A 
ATOM     21  C   UNL     1      -2.331  11.880  16.667  0.00  0.00    +0.000 A 
ATOM     22  C   UNL     1      -1.867  11.954  17.963  0.00  0.00    +0.000 A 
ATOM     23  C   UNL     1      -0.979  12.981  18.528  0.00  0.00    +0.000 C 
ATOM     24  O   UNL     1      -0.782  14.035  17.960  0.00  0.00    +0.000 OA
ENDROOT
BRANCH  14  25
ATOM     25  C   UNL     1       1.336  10.219  19.214  0.00  0.00    +0.000 A 
ATOM     26  C   UNL     1       1.706   9.476  18.082  0.00  0.00    +0.000 A 
ATOM     27  C   UNL     1       2.098   8.140  18.200  0.00  0.00    +0.000 A 
ATOM     28  C   UNL     1       2.064   7.498  19.441  0.00  0.00    +0.000 A 
ATOM     29  C   UNL     1       2.626   6.118  19.609  0.00  0.00    +0.000 C 
ATOM     30  C   UNL     1       1.565   8.193  20.547  0.00  0.00    +0.000 A 
ATOM     31  C   UNL     1       1.205   9.540  20.436  0.00  0.00    +0.000 A 
ENDBRANCH  14  25
BRANCH   1  33
ATOM     32  H   UNL     1      -2.875  14.559  23.628  0.00  0.00    +0.000 HD
ATOM     33  C   UNL     1      -1.933  14.049  23.857  0.00  0.00    +0.000 C 
ATOM     34  H   UNL     1      -1.443  14.533  24.705  0.00  0.00    +0.000 HD
ATOM     35  H   UNL     1      -2.162  13.014  24.127  0.00  0.00    +0.000 HD
ENDBRANCH   1  33
TORSDOF 2
ENDMDL
