MODEL 1
REMARK VINA RESULT:      -7.8      0.000      0.000
REMARK  Name = 
REMARK  13 active torsions:
REMARK  status: ('A' for Active; 'I' for Inactive)
REMARK    1  A    between atoms: C_1  and  O_2
REMARK    2  A    between atoms: O_2  and  C_3
REMARK    3  A    between atoms: C_6  and  C_7
REMARK    4  A    between atoms: C_7  and  C_8
REMARK    5  A    between atoms: C_7  and  C_12
REMARK    6  A    between atoms: C_8  and  C_9
REMARK    7  A    between atoms: C_9  and  O_11
REMARK    8  A    between atoms: C_12  and  C_13
REMARK    9  A    between atoms: C_17  and  C_19
REMARK   10  A    between atoms: C_19  and  C_20
REMARK   11  A    between atoms: C_20  and  C_21
REMARK   12  A    between atoms: C_33  and  O_34
REMARK   13  A    between atoms: O_34  and  C_35
REMARK                            x       y       z     vdW  Elec       q    Type
REMARK                         _______ _______ _______ _____ _____    ______ ____
ROOT
ATOM      1  C   UNL     1       2.319   5.962  18.458  0.00  0.00    +0.000 C 
ATOM      2  C   UNL     1       1.856   7.028  17.455  0.00  0.00    +0.000 C 
ATOM      3  C   UNL     1       2.144   8.453  17.932  0.00  0.00    +0.000 C 
ATOM      4  N   UNL     1       1.674   8.657  19.302  0.00  0.00    +0.000 N 
ATOM      5  C   UNL     1       0.807   9.703  19.592  0.00  0.00    +0.000 C 
ATOM      6  O   UNL     1       0.406  10.488  18.734  0.00  0.00    +0.000 OA
ATOM      7  C   UNL     1       2.147   7.690  20.290  0.00  0.00    +0.000 C 
ATOM      8  C   UNL     1       1.747   6.286  19.853  0.00  0.00    +0.000 C 
ENDROOT
BRANCH   1   9
ATOM      9  C   UNL     1       3.850   5.832  18.572  0.00  0.00    +0.000 C 
BRANCH   9  10
ATOM     10  C   UNL     1       4.505   4.491  18.156  0.00  0.00    +0.000 C 
BRANCH  10  14
ATOM     11  C   UNL     1       7.127   5.084  14.892  0.00  0.00    +0.000 A 
ATOM     12  N   UNL     1       6.155   4.191  14.752  0.00  0.00    +0.000 NA
ATOM     13  C   UNL     1       5.372   4.010  15.822  0.00  0.00    +0.000 A 
ATOM     14  C   UNL     1       5.511   4.682  17.027  0.00  0.00    +0.000 A 
ATOM     15  C   UNL     1       6.601   5.544  17.062  0.00  0.00    +0.000 A 
ATOM     16  N   UNL     1       7.407   5.773  16.005  0.00  0.00    +0.000 NA
BRANCH  11  18
ATOM     17  C   UNL     1       7.321   4.579  12.641  0.00  0.00    +0.000 C 
ATOM     18  O   UNL     1       7.804   5.352  13.724  0.00  0.00    +0.000 OA
ENDBRANCH  11  18
BRANCH  15  19
ATOM     19  O   UNL     1       6.876   6.213  18.241  0.00  0.00    +0.000 OA
ATOM     20  C   UNL     1       7.746   7.338  18.071  0.00  0.00    +0.000 C 
ENDBRANCH  15  19
ENDBRANCH  10  14
BRANCH  10  21
ATOM     21  C   UNL     1       5.110   3.721  19.344  0.00  0.00    +0.000 C 
BRANCH  21  22
ATOM     22  C   UNL     1       4.389   2.451  19.746  0.00  0.00    +0.000 C 
ATOM     23  O   UNL     1       4.032   2.163  20.884  0.00  0.00    +0.000 OA
BRANCH  22  24
ATOM     24  O   UNL     1       4.093   1.660  18.690  0.00  0.00    +0.000 OA
ATOM     25  H   UNL     1       4.380   0.733  18.788  0.00  0.00    +0.000 HD
ENDBRANCH  22  24
ENDBRANCH  21  22
ENDBRANCH  10  21
ENDBRANCH   9  10
ENDBRANCH   1   9
BRANCH   5  26
ATOM     26  C   UNL     1       0.384   9.817  21.041  0.00  0.00    +0.000 C 
BRANCH  26  27
ATOM     27  C   UNL     1       0.326  11.259  21.513  0.00  0.00    +0.000 C 
BRANCH  27  28
ATOM     28  C   UNL     1      -1.080  11.739  21.787  0.00  0.00    +0.000 A 
ATOM     29  C   UNL     1      -1.563  11.653  23.089  0.00  0.00    +0.000 A 
ATOM     30  C   UNL     1      -2.849  12.097  23.352  0.00  0.00    +0.000 A 
ATOM     31  C   UNL     1      -3.618  12.629  22.316  0.00  0.00    +0.000 A 
ATOM     32  C   UNL     1      -3.069  12.671  21.034  0.00  0.00    +0.000 A 
ATOM     33  N   UNL     1      -1.822  12.234  20.765  0.00  0.00    +0.000 NA
ATOM     34  N   UNL     1      -3.776  13.221  19.970  0.00  0.00    +0.000 N 
ATOM     35  C   UNL     1      -5.219  13.225  20.084  0.00  0.00    +0.000 C 
ATOM     36  C   UNL     1      -5.606  13.875  21.407  0.00  0.00    +0.000 C 
ATOM     37  C   UNL     1      -5.036  13.063  22.567  0.00  0.00    +0.000 C 
ATOM     38  H   UNL     1      -3.349  12.959  19.090  0.00  0.00    +0.000 HD
ENDBRANCH  27  28
ENDBRANCH  26  27
ENDBRANCH   5  26
TORSDOF 11
ENDMDL
MODEL 2
REMARK VINA RESULT:      -7.8      2.051      3.452
REMARK  Name = 
REMARK  13 active torsions:
REMARK  status: ('A' for Active; 'I' for Inactive)
REMARK    1  A    between atoms: C_1  and  O_2
REMARK    2  A    between atoms: O_2  and  C_3
REMARK    3  A    between atoms: C_6  and  C_7
REMARK    4  A    between atoms: C_7  and  C_8
REMARK    5  A    between atoms: C_7  and  C_12
REMARK    6  A    between atoms: C_8  and  C_9
REMARK    7  A    between atoms: C_9  and  O_11
REMARK    8  A    between atoms: C_12  and  C_13
REMARK    9  A    between atoms: C_17  and  C_19
REMARK   10  A    between atoms: C_19  and  C_20
REMARK   11  A    between atoms: C_20  and  C_21
REMARK   12  A    between atoms: C_33  and  O_34
REMARK   13  A    between atoms: O_34  and  C_35
REMARK                            x       y       z     vdW  Elec       q    Type
REMARK                         _______ _______ _______ _____ _____    ______ ____
ROOT
ATOM      1  C   UNL     1       2.042   7.793  19.874  0.00  0.00    +0.000 C 
ATOM      2  C   UNL     1       1.490   8.048  21.284  0.00  0.00    +0.000 C 
ATOM      3  C   UNL     1       0.059   8.592  21.268  0.00  0.00    +0.000 C 
ATOM      4  N   UNL     1      -0.066   9.723  20.349  0.00  0.00    +0.000 N 
ATOM      5  C   UNL     1      -0.574  10.934  20.801  0.00  0.00    +0.000 C 
ATOM      6  O   UNL     1      -0.935  11.109  21.963  0.00  0.00    +0.000 OA
ATOM      7  C   UNL     1       0.399   9.490  18.983  0.00  0.00    +0.000 C 
ATOM      8  C   UNL     1       1.861   9.061  19.015  0.00  0.00    +0.000 C 
ENDROOT
BRANCH   1   9
ATOM      9  C   UNL     1       1.381   6.607  19.147  0.00  0.00    +0.000 C 
BRANCH   9  10
ATOM     10  C   UNL     1       2.094   5.232  19.190  0.00  0.00    +0.000 C 
BRANCH  10  14
ATOM     11  C   UNL     1       5.262   5.000  16.399  0.00  0.00    +0.000 A 
ATOM     12  N   UNL     1       5.047   6.165  16.996  0.00  0.00    +0.000 NA
ATOM     13  C   UNL     1       4.011   6.202  17.844  0.00  0.00    +0.000 A 
ATOM     14  C   UNL     1       3.182   5.128  18.127  0.00  0.00    +0.000 A 
ATOM     15  C   UNL     1       3.479   3.986  17.392  0.00  0.00    +0.000 A 
ATOM     16  N   UNL     1       4.521   3.895  16.541  0.00  0.00    +0.000 NA
BRANCH  11  18
ATOM     17  C   UNL     1       6.303   4.134  14.521  0.00  0.00    +0.000 C 
ATOM     18  O   UNL     1       6.424   4.963  15.662  0.00  0.00    +0.000 OA
ENDBRANCH  11  18
BRANCH  15  19
ATOM     19  O   UNL     1       2.668   2.875  17.544  0.00  0.00    +0.000 OA
ATOM     20  C   UNL     1       3.331   1.763  18.158  0.00  0.00    +0.000 C 
ENDBRANCH  15  19
ENDBRANCH  10  14
BRANCH  10  21
ATOM     21  C   UNL     1       2.619   4.868  20.591  0.00  0.00    +0.000 C 
BRANCH  21  22
ATOM     22  C   UNL     1       2.002   3.643  21.231  0.00  0.00    +0.000 C 
ATOM     23  O   UNL     1       2.524   2.952  22.100  0.00  0.00    +0.000 OA
BRANCH  22  24
ATOM     24  O   UNL     1       0.742   3.405  20.800  0.00  0.00    +0.000 OA
ATOM     25  H   UNL     1       0.600   3.583  19.851  0.00  0.00    +0.000 HD
ENDBRANCH  22  24
ENDBRANCH  21  22
ENDBRANCH  10  21
ENDBRANCH   9  10
ENDBRANCH   1   9
BRANCH   5  26
ATOM     26  C   UNL     1      -0.656  12.034  19.764  0.00  0.00    +0.000 C 
BRANCH  26  27
ATOM     27  C   UNL     1      -1.714  13.069  20.104  0.00  0.00    +0.000 C 
BRANCH  27  28
ATOM     28  C   UNL     1      -3.125  12.563  19.912  0.00  0.00    +0.000 A 
ATOM     29  C   UNL     1      -3.454  11.979  18.694  0.00  0.00    +0.000 A 
ATOM     30  C   UNL     1      -4.744  11.504  18.511  0.00  0.00    +0.000 A 
ATOM     31  C   UNL     1      -5.669  11.611  19.551  0.00  0.00    +0.000 A 
ATOM     32  C   UNL     1      -5.267  12.222  20.739  0.00  0.00    +0.000 A 
ATOM     33  N   UNL     1      -4.018  12.693  20.925  0.00  0.00    +0.000 NA
ATOM     34  N   UNL     1      -6.136  12.325  21.820  0.00  0.00    +0.000 N 
ATOM     35  C   UNL     1      -7.552  12.310  21.518  0.00  0.00    +0.000 C 
ATOM     36  C   UNL     1      -7.860  11.081  20.670  0.00  0.00    +0.000 C 
ATOM     37  C   UNL     1      -7.089  11.156  19.354  0.00  0.00    +0.000 C 
ATOM     38  H   UNL     1      -5.781  12.991  22.495  0.00  0.00    +0.000 HD
ENDBRANCH  27  28
ENDBRANCH  26  27
ENDBRANCH   5  26
TORSDOF 11
ENDMDL
MODEL 3
REMARK VINA RESULT:      -7.7      2.213      3.501
REMARK  Name = 
REMARK  13 active torsions:
REMARK  status: ('A' for Active; 'I' for Inactive)
REMARK    1  A    between atoms: C_1  and  O_2
REMARK    2  A    between atoms: O_2  and  C_3
REMARK    3  A    between atoms: C_6  and  C_7
REMARK    4  A    between atoms: C_7  and  C_8
REMARK    5  A    between atoms: C_7  and  C_12
REMARK    6  A    between atoms: C_8  and  C_9
REMARK    7  A    between atoms: C_9  and  O_11
REMARK    8  A    between atoms: C_12  and  C_13
REMARK    9  A    between atoms: C_17  and  C_19
REMARK   10  A    between atoms: C_19  and  C_20
REMARK   11  A    between atoms: C_20  and  C_21
REMARK   12  A    between atoms: C_33  and  O_34
REMARK   13  A    between atoms: O_34  and  C_35
REMARK                            x       y       z     vdW  Elec       q    Type
REMARK                         _______ _______ _______ _____ _____    ______ ____
ROOT
ATOM      1  C   UNL     1       2.743   7.416  18.717  0.00  0.00    +0.000 C 
ATOM      2  C   UNL     1       2.345   7.703  20.172  0.00  0.00    +0.000 C 
ATOM      3  C   UNL     1       0.936   8.285  20.296  0.00  0.00    +0.000 C 
ATOM      4  N   UNL     1       0.746   9.409  19.378  0.00  0.00    +0.000 N 
ATOM      5  C   UNL     1       0.320  10.638  19.861  0.00  0.00    +0.000 C 
ATOM      6  O   UNL     1       0.085  10.837  21.052  0.00  0.00    +0.000 OA
ATOM      7  C   UNL     1       1.062   9.147  17.975  0.00  0.00    +0.000 C 
ATOM      8  C   UNL     1       2.507   8.678  17.863  0.00  0.00    +0.000 C 
ENDROOT
BRANCH   1   9
ATOM      9  C   UNL     1       1.980   6.240  18.079  0.00  0.00    +0.000 C 
BRANCH   9  10
ATOM     10  C   UNL     1       2.673   4.856  18.031  0.00  0.00    +0.000 C 
BRANCH  10  14
ATOM     11  C   UNL     1       6.863   5.006  18.586  0.00  0.00    +0.000 A 
ATOM     12  N   UNL     1       6.093   5.050  19.665  0.00  0.00    +0.000 NA
ATOM     13  C   UNL     1       4.773   5.037  19.441  0.00  0.00    +0.000 A 
ATOM     14  C   UNL     1       4.184   4.977  18.187  0.00  0.00    +0.000 A 
ATOM     15  C   UNL     1       5.100   4.995  17.141  0.00  0.00    +0.000 A 
ATOM     16  N   UNL     1       6.437   4.990  17.317  0.00  0.00    +0.000 NA
BRANCH  11  18
ATOM     17  C   UNL     1       8.529   5.342  20.158  0.00  0.00    +0.000 C 
ATOM     18  O   UNL     1       8.202   4.862  18.867  0.00  0.00    +0.000 OA
ENDBRANCH  11  18
BRANCH  15  19
ATOM     19  O   UNL     1       4.618   5.010  15.844  0.00  0.00    +0.000 OA
ATOM     20  C   UNL     1       5.534   4.464  14.887  0.00  0.00    +0.000 C 
ENDBRANCH  15  19
ENDBRANCH  10  14
BRANCH  10  21
ATOM     21  C   UNL     1       2.070   3.844  19.025  0.00  0.00    +0.000 C 
BRANCH  21  22
ATOM     22  C   UNL     1       1.446   2.608  18.413  0.00  0.00    +0.000 C 
ATOM     23  O   UNL     1       0.258   2.308  18.467  0.00  0.00    +0.000 OA
BRANCH  22  24
ATOM     24  O   UNL     1       2.332   1.867  17.709  0.00  0.00    +0.000 OA
ATOM     25  H   UNL     1       2.361   0.925  17.963  0.00  0.00    +0.000 HD
ENDBRANCH  22  24
ENDBRANCH  21  22
ENDBRANCH  10  21
ENDBRANCH   9  10
ENDBRANCH   1   9
BRANCH   5  26
ATOM     26  C   UNL     1       0.160  11.728  18.823  0.00  0.00    +0.000 C 
BRANCH  26  27
ATOM     27  C   UNL     1      -0.883  12.758  19.222  0.00  0.00    +0.000 C 
BRANCH  27  28
ATOM     28  C   UNL     1      -2.299  12.302  18.960  0.00  0.00    +0.000 A 
ATOM     29  C   UNL     1      -2.551  11.567  17.807  0.00  0.00    +0.000 A 
ATOM     30  C   UNL     1      -3.846  11.138  17.561  0.00  0.00    +0.000 A 
ATOM     31  C   UNL     1      -4.855  11.439  18.478  0.00  0.00    +0.000 A 
ATOM     32  C   UNL     1      -4.526  12.191  19.606  0.00  0.00    +0.000 A 
ATOM     33  N   UNL     1      -3.272  12.620  19.851  0.00  0.00    +0.000 NA
ATOM     34  N   UNL     1      -5.484  12.492  20.569  0.00  0.00    +0.000 N 
ATOM     35  C   UNL     1      -6.863  12.505  20.131  0.00  0.00    +0.000 C 
ATOM     36  C   UNL     1      -7.170  11.186  19.432  0.00  0.00    +0.000 C 
ATOM     37  C   UNL     1      -6.277  11.033  18.203  0.00  0.00    +0.000 C 
ATOM     38  H   UNL     1      -5.150  13.228  21.180  0.00  0.00    +0.000 HD
ENDBRANCH  27  28
ENDBRANCH  26  27
ENDBRANCH   5  26
TORSDOF 11
ENDMDL
MODEL 4
REMARK VINA RESULT:      -7.6      1.499      1.730
REMARK  Name = 
REMARK  13 active torsions:
REMARK  status: ('A' for Active; 'I' for Inactive)
REMARK    1  A    between atoms: C_1  and  O_2
REMARK    2  A    between atoms: O_2  and  C_3
REMARK    3  A    between atoms: C_6  and  C_7
REMARK    4  A    between atoms: C_7  and  C_8
REMARK    5  A    between atoms: C_7  and  C_12
REMARK    6  A    between atoms: C_8  and  C_9
REMARK    7  A    between atoms: C_9  and  O_11
REMARK    8  A    between atoms: C_12  and  C_13
REMARK    9  A    between atoms: C_17  and  C_19
REMARK   10  A    between atoms: C_19  and  C_20
REMARK   11  A    between atoms: C_20  and  C_21
REMARK   12  A    between atoms: C_33  and  O_34
REMARK   13  A    between atoms: O_34  and  C_35
REMARK                            x       y       z     vdW  Elec       q    Type
REMARK                         _______ _______ _______ _____ _____    ______ ____
ROOT
ATOM      1  C   UNL     1       2.456   6.328  18.018  0.00  0.00    +0.000 C 
ATOM      2  C   UNL     1       2.145   7.721  17.454  0.00  0.00    +0.000 C 
ATOM      3  C   UNL     1       2.292   8.828  18.501  0.00  0.00    +0.000 C 
ATOM      4  N   UNL     1       1.573   8.492  19.730  0.00  0.00    +0.000 N 
ATOM      5  C   UNL     1       0.632   9.371  20.249  0.00  0.00    +0.000 C 
ATOM      6  O   UNL     1       0.366  10.447  19.716  0.00  0.00    +0.000 OA
ATOM      7  C   UNL     1       1.892   7.193  20.321  0.00  0.00    +0.000 C 
ATOM      8  C   UNL     1       1.628   6.096  19.298  0.00  0.00    +0.000 C 
ENDROOT
BRANCH   1   9
ATOM      9  C   UNL     1       3.944   6.101  18.345  0.00  0.00    +0.000 C 
BRANCH   9  10
ATOM     10  C   UNL     1       4.565   4.721  18.015  0.00  0.00    +0.000 C 
BRANCH  10  14
ATOM     11  C   UNL     1       7.019   5.008  14.584  0.00  0.00    +0.000 A 
ATOM     12  N   UNL     1       5.988   4.175  14.540  0.00  0.00    +0.000 NA
ATOM     13  C   UNL     1       5.261   4.089  15.660  0.00  0.00    +0.000 A 
ATOM     14  C   UNL     1       5.512   4.800  16.824  0.00  0.00    +0.000 A 
ATOM     15  C   UNL     1       6.653   5.591  16.757  0.00  0.00    +0.000 A 
ATOM     16  N   UNL     1       7.407   5.724  15.647  0.00  0.00    +0.000 NA
BRANCH  11  18
ATOM     17  C   UNL     1       7.136   4.304  12.382  0.00  0.00    +0.000 C 
ATOM     18  O   UNL     1       7.641   5.184  13.369  0.00  0.00    +0.000 OA
ENDBRANCH  11  18
BRANCH  15  19
ATOM     19  O   UNL     1       7.038   6.289  17.888  0.00  0.00    +0.000 OA
ATOM     20  C   UNL     1       7.623   7.565  17.601  0.00  0.00    +0.000 C 
ENDBRANCH  15  19
ENDBRANCH  10  14
BRANCH  10  21
ATOM     21  C   UNL     1       5.226   4.050  19.234  0.00  0.00    +0.000 C 
BRANCH  21  22
ATOM     22  C   UNL     1       4.497   2.852  19.806  0.00  0.00    +0.000 C 
ATOM     23  O   UNL     1       4.992   1.751  20.020  0.00  0.00    +0.000 OA
BRANCH  22  24
ATOM     24  O   UNL     1       3.216   3.130  20.144  0.00  0.00    +0.000 OA
ATOM     25  H   UNL     1       2.569   2.457  19.859  0.00  0.00    +0.000 HD
ENDBRANCH  22  24
ENDBRANCH  21  22
ENDBRANCH  10  21
ENDBRANCH   9  10
ENDBRANCH   1   9
BRANCH   5  26
ATOM     26  C   UNL     1      -0.051   8.919  21.522  0.00  0.00    +0.000 C 
BRANCH  26  27
ATOM     27  C   UNL     1       0.293   9.804  22.707  0.00  0.00    +0.000 C 
BRANCH  27  28
ATOM     28  C   UNL     1      -0.560  11.049  22.788  0.00  0.00    +0.000 A 
ATOM     29  C   UNL     1      -1.880  10.916  23.204  0.00  0.00    +0.000 A 
ATOM     30  C   UNL     1      -2.669  12.053  23.289  0.00  0.00    +0.000 A 
ATOM     31  C   UNL     1      -2.119  13.295  22.969  0.00  0.00    +0.000 A 
ATOM     32  C   UNL     1      -0.790  13.346  22.546  0.00  0.00    +0.000 A 
ATOM     33  N   UNL     1      -0.017  12.246  22.453  0.00  0.00    +0.000 NA
ATOM     34  N   UNL     1      -0.181  14.560  22.247  0.00  0.00    +0.000 N 
ATOM     35  C   UNL     1      -1.054  15.644  21.851  0.00  0.00    +0.000 C 
ATOM     36  C   UNL     1      -2.141  15.810  22.906  0.00  0.00    +0.000 C 
ATOM     37  C   UNL     1      -2.972  14.534  22.997  0.00  0.00    +0.000 C 
ATOM     38  H   UNL     1       0.680  14.405  21.736  0.00  0.00    +0.000 HD
ENDBRANCH  27  28
ENDBRANCH  26  27
ENDBRANCH   5  26
TORSDOF 11
ENDMDL
MODEL 5
REMARK VINA RESULT:      -7.6      2.315      3.762
REMARK  Name = 
REMARK  13 active torsions:
REMARK  status: ('A' for Active; 'I' for Inactive)
REMARK    1  A    between atoms: C_1  and  O_2
REMARK    2  A    between atoms: O_2  and  C_3
REMARK    3  A    between atoms: C_6  and  C_7
REMARK    4  A    between atoms: C_7  and  C_8
REMARK    5  A    between atoms: C_7  and  C_12
REMARK    6  A    between atoms: C_8  and  C_9
REMARK    7  A    between atoms: C_9  and  O_11
REMARK    8  A    between atoms: C_12  and  C_13
REMARK    9  A    between atoms: C_17  and  C_19
REMARK   10  A    between atoms: C_19  and  C_20
REMARK   11  A    between atoms: C_20  and  C_21
REMARK   12  A    between atoms: C_33  and  O_34
REMARK   13  A    between atoms: O_34  and  C_35
REMARK                            x       y       z     vdW  Elec       q    Type
REMARK                         _______ _______ _______ _____ _____    ______ ____
ROOT
ATOM      1  C   UNL     1       2.015   7.530  20.270  0.00  0.00    +0.000 C 
ATOM      2  C   UNL     1       1.490   8.131  21.582  0.00  0.00    +0.000 C 
ATOM      3  C   UNL     1       0.122   8.797  21.421  0.00  0.00    +0.000 C 
ATOM      4  N   UNL     1       0.111   9.714  20.281  0.00  0.00    +0.000 N 
ATOM      5  C   UNL     1      -0.273  11.037  20.456  0.00  0.00    +0.000 C 
ATOM      6  O   UNL     1      -0.615  11.489  21.548  0.00  0.00    +0.000 OA
ATOM      7  C   UNL     1       0.552   9.153  19.005  0.00  0.00    +0.000 C 
ATOM      8  C   UNL     1       1.962   8.599  19.159  0.00  0.00    +0.000 C 
ENDROOT
BRANCH   1   9
ATOM      9  C   UNL     1       1.239   6.287  19.795  0.00  0.00    +0.000 C 
BRANCH   9  10
ATOM     10  C   UNL     1       1.931   4.906  19.902  0.00  0.00    +0.000 C 
BRANCH  10  14
ATOM     11  C   UNL     1       5.360   4.531  17.456  0.00  0.00    +0.000 A 
ATOM     12  N   UNL     1       5.430   5.346  18.500  0.00  0.00    +0.000 NA
ATOM     13  C   UNL     1       4.310   5.463  19.225  0.00  0.00    +0.000 A 
ATOM     14  C   UNL     1       3.123   4.798  18.959  0.00  0.00    +0.000 A 
ATOM     15  C   UNL     1       3.166   4.022  17.806  0.00  0.00    +0.000 A 
ATOM     16  N   UNL     1       4.274   3.860  17.054  0.00  0.00    +0.000 NA
BRANCH  11  18
ATOM     17  C   UNL     1       7.661   4.664  17.671  0.00  0.00    +0.000 C 
ATOM     18  O   UNL     1       6.571   4.320  16.837  0.00  0.00    +0.000 OA
ENDBRANCH  11  18
BRANCH  15  19
ATOM     19  O   UNL     1       2.013   3.370  17.407  0.00  0.00    +0.000 OA
ATOM     20  C   UNL     1       1.798   2.124  18.080  0.00  0.00    +0.000 C 
ENDBRANCH  15  19
ENDBRANCH  10  14
BRANCH  10  21
ATOM     21  C   UNL     1       2.304   4.529  21.349  0.00  0.00    +0.000 C 
BRANCH  21  22
ATOM     22  C   UNL     1       2.405   3.046  21.641  0.00  0.00    +0.000 C 
ATOM     23  O   UNL     1       3.417   2.364  21.526  0.00  0.00    +0.000 OA
BRANCH  22  24
ATOM     24  O   UNL     1       1.254   2.529  22.130  0.00  0.00    +0.000 OA
ATOM     25  H   UNL     1       0.495   2.587  21.519  0.00  0.00    +0.000 HD
ENDBRANCH  22  24
ENDBRANCH  21  22
ENDBRANCH  10  21
ENDBRANCH   9  10
ENDBRANCH   1   9
BRANCH   5  26
ATOM     26  C   UNL     1      -0.244  11.895  19.210  0.00  0.00    +0.000 C 
BRANCH  26  27
ATOM     27  C   UNL     1      -1.339  12.947  19.207  0.00  0.00    +0.000 C 
BRANCH  27  28
ATOM     28  C   UNL     1      -2.726  12.360  19.081  0.00  0.00    +0.000 A 
ATOM     29  C   UNL     1      -3.032  11.635  17.934  0.00  0.00    +0.000 A 
ATOM     30  C   UNL     1      -4.300  11.087  17.813  0.00  0.00    +0.000 A 
ATOM     31  C   UNL     1      -5.226  11.262  18.842  0.00  0.00    +0.000 A 
ATOM     32  C   UNL     1      -4.849  12.013  19.956  0.00  0.00    +0.000 A 
ATOM     33  N   UNL     1      -3.622  12.557  20.081  0.00  0.00    +0.000 NA
ATOM     34  N   UNL     1      -5.718  12.192  21.026  0.00  0.00    +0.000 N 
ATOM     35  C   UNL     1      -7.132  12.081  20.738  0.00  0.00    +0.000 C 
ATOM     36  C   UNL     1      -7.387  10.757  20.028  0.00  0.00    +0.000 C 
ATOM     37  C   UNL     1      -6.624  10.726  18.706  0.00  0.00    +0.000 C 
ATOM     38  H   UNL     1      -5.392  12.942  21.624  0.00  0.00    +0.000 HD
ENDBRANCH  27  28
ENDBRANCH  26  27
ENDBRANCH   5  26
TORSDOF 11
ENDMDL
MODEL 6
REMARK VINA RESULT:      -7.6      3.494      5.294
REMARK  Name = 
REMARK  13 active torsions:
REMARK  status: ('A' for Active; 'I' for Inactive)
REMARK    1  A    between atoms: C_1  and  O_2
REMARK    2  A    between atoms: O_2  and  C_3
REMARK    3  A    between atoms: C_6  and  C_7
REMARK    4  A    between atoms: C_7  and  C_8
REMARK    5  A    between atoms: C_7  and  C_12
REMARK    6  A    between atoms: C_8  and  C_9
REMARK    7  A    between atoms: C_9  and  O_11
REMARK    8  A    between atoms: C_12  and  C_13
REMARK    9  A    between atoms: C_17  and  C_19
REMARK   10  A    between atoms: C_19  and  C_20
REMARK   11  A    between atoms: C_20  and  C_21
REMARK   12  A    between atoms: C_33  and  O_34
REMARK   13  A    between atoms: O_34  and  C_35
REMARK                            x       y       z     vdW  Elec       q    Type
REMARK                         _______ _______ _______ _____ _____    ______ ____
ROOT
ATOM      1  C   UNL     1       2.184   7.909  19.420  0.00  0.00    +0.000 C 
ATOM      2  C   UNL     1       1.467   8.315  20.716  0.00  0.00    +0.000 C 
ATOM      3  C   UNL     1       0.112   8.977  20.459  0.00  0.00    +0.000 C 
ATOM      4  N   UNL     1       0.225  10.043  19.463  0.00  0.00    +0.000 N 
ATOM      5  C   UNL     1      -0.222  11.323  19.760  0.00  0.00    +0.000 C 
ATOM      6  O   UNL     1      -0.724  11.615  20.845  0.00  0.00    +0.000 OA
ATOM      7  C   UNL     1       0.852   9.669  18.196  0.00  0.00    +0.000 C 
ATOM      8  C   UNL     1       2.246   9.119  18.467  0.00  0.00    +0.000 C 
ENDROOT
BRANCH   1   9
ATOM      9  C   UNL     1       1.520   6.732  18.679  0.00  0.00    +0.000 C 
BRANCH   9  10
ATOM     10  C   UNL     1       2.085   5.309  18.909  0.00  0.00    +0.000 C 
BRANCH  10  14
ATOM     11  C   UNL     1       5.353   4.500  16.349  0.00  0.00    +0.000 A 
ATOM     12  N   UNL     1       5.116   5.766  16.671  0.00  0.00    +0.000 NA
ATOM     13  C   UNL     1       4.050   5.978  17.453  0.00  0.00    +0.000 A 
ATOM     14  C   UNL     1       3.211   4.985  17.934  0.00  0.00    +0.000 A 
ATOM     15  C   UNL     1       3.534   3.713  17.476  0.00  0.00    +0.000 A 
ATOM     16  N   UNL     1       4.607   3.447  16.703  0.00  0.00    +0.000 NA
BRANCH  11  18
ATOM     17  C   UNL     1       6.337   4.014  14.311  0.00  0.00    +0.000 C 
ATOM     18  O   UNL     1       6.540   4.313  15.680  0.00  0.00    +0.000 OA
ENDBRANCH  11  18
BRANCH  15  19
ATOM     19  O   UNL     1       2.719   2.655  17.838  0.00  0.00    +0.000 OA
ATOM     20  C   UNL     1       3.430   1.562  18.432  0.00  0.00    +0.000 C 
ENDBRANCH  15  19
ENDBRANCH  10  14
BRANCH  10  21
ATOM     21  C   UNL     1       2.497   5.052  20.371  0.00  0.00    +0.000 C 
BRANCH  21  22
ATOM     22  C   UNL     1       1.854   3.854  21.039  0.00  0.00    +0.000 C 
ATOM     23  O   UNL     1       2.146   3.412  22.145  0.00  0.00    +0.000 OA
BRANCH  22  24
ATOM     24  O   UNL     1       0.837   3.334  20.314  0.00  0.00    +0.000 OA
ATOM     25  H   UNL     1       0.740   3.717  19.422  0.00  0.00    +0.000 HD
ENDBRANCH  22  24
ENDBRANCH  21  22
ENDBRANCH  10  21
ENDBRANCH   9  10
ENDBRANCH   1   9
BRANCH   5  26
ATOM     26  C   UNL     1      -0.053  12.346  18.657  0.00  0.00    +0.000 C 
BRANCH  26  27
ATOM     27  C   UNL     1       0.058  13.762  19.195  0.00  0.00    +0.000 C 
BRANCH  27  28
ATOM     28  C   UNL     1       1.481  14.175  19.492  0.00  0.00    +0.000 A 
ATOM     29  C   UNL     1       1.783  14.621  20.774  0.00  0.00    +0.000 A 
ATOM     30  C   UNL     1       3.087  14.995  21.058  0.00  0.00    +0.000 A 
ATOM     31  C   UNL     1       4.061  14.903  20.062  0.00  0.00    +0.000 A 
ATOM     32  C   UNL     1       3.678  14.459  18.796  0.00  0.00    +0.000 A 
ATOM     33  N   UNL     1       2.411  14.100  18.507  0.00  0.00    +0.000 NA
ATOM     34  N   UNL     1       4.612  14.316  17.775  0.00  0.00    +0.000 N 
ATOM     35  C   UNL     1       5.805  15.129  17.870  0.00  0.00    +0.000 C 
ATOM     36  C   UNL     1       6.438  14.915  19.239  0.00  0.00    +0.000 C 
ATOM     37  C   UNL     1       5.468  15.359  20.331  0.00  0.00    +0.000 C 
ATOM     38  H   UNL     1       4.145  14.223  16.881  0.00  0.00    +0.000 HD
ENDBRANCH  27  28
ENDBRANCH  26  27
ENDBRANCH   5  26
TORSDOF 11
ENDMDL
MODEL 7
REMARK VINA RESULT:      -7.5      3.160      4.048
REMARK  Name = 
REMARK  13 active torsions:
REMARK  status: ('A' for Active; 'I' for Inactive)
REMARK    1  A    between atoms: C_1  and  O_2
REMARK    2  A    between atoms: O_2  and  C_3
REMARK    3  A    between atoms: C_6  and  C_7
REMARK    4  A    between atoms: C_7  and  C_8
REMARK    5  A    between atoms: C_7  and  C_12
REMARK    6  A    between atoms: C_8  and  C_9
REMARK    7  A    between atoms: C_9  and  O_11
REMARK    8  A    between atoms: C_12  and  C_13
REMARK    9  A    between atoms: C_17  and  C_19
REMARK   10  A    between atoms: C_19  and  C_20
REMARK   11  A    between atoms: C_20  and  C_21
REMARK   12  A    between atoms: C_33  and  O_34
REMARK   13  A    between atoms: O_34  and  C_35
REMARK                            x       y       z     vdW  Elec       q    Type
REMARK                         _______ _______ _______ _____ _____    ______ ____
ROOT
ATOM      1  C   UNL     1       3.781   6.279  18.141  0.00  0.00    +0.000 C 
ATOM      2  C   UNL     1       3.668   6.346  19.671  0.00  0.00    +0.000 C 
ATOM      3  C   UNL     1       2.244   6.647  20.145  0.00  0.00    +0.000 C 
ATOM      4  N   UNL     1       1.684   7.799  19.440  0.00  0.00    +0.000 N 
ATOM      5  C   UNL     1       1.183   8.878  20.157  0.00  0.00    +0.000 C 
ATOM      6  O   UNL     1       1.183   8.914  21.386  0.00  0.00    +0.000 OA
ATOM      7  C   UNL     1       1.727   7.737  17.980  0.00  0.00    +0.000 C 
ATOM      8  C   UNL     1       3.169   7.553  17.525  0.00  0.00    +0.000 C 
ENDROOT
BRANCH   1   9
ATOM      9  C   UNL     1       3.094   5.050  17.515  0.00  0.00    +0.000 C 
BRANCH   9  10
ATOM     10  C   UNL     1       3.963   3.808  17.198  0.00  0.00    +0.000 C 
BRANCH  10  14
ATOM     11  C   UNL     1       7.284   5.000  14.868  0.00  0.00    +0.000 A 
ATOM     12  N   UNL     1       6.182   4.626  14.230  0.00  0.00    +0.000 NA
ATOM     13  C   UNL     1       5.169   4.222  15.006  0.00  0.00    +0.000 A 
ATOM     14  C   UNL     1       5.202   4.177  16.392  0.00  0.00    +0.000 A 
ATOM     15  C   UNL     1       6.432   4.538  16.931  0.00  0.00    +0.000 A 
ATOM     16  N   UNL     1       7.475   4.969  16.192  0.00  0.00    +0.000 NA
BRANCH  11  18
ATOM     17  C   UNL     1       7.927   5.375  12.676  0.00  0.00    +0.000 C 
ATOM     18  O   UNL     1       8.238   5.554  14.045  0.00  0.00    +0.000 OA
ENDBRANCH  11  18
BRANCH  15  19
ATOM     19  O   UNL     1       6.598   4.461  18.302  0.00  0.00    +0.000 OA
ATOM     20  C   UNL     1       7.388   5.527  18.843  0.00  0.00    +0.000 C 
ENDBRANCH  15  19
ENDBRANCH  10  14
BRANCH  10  21
ATOM     21  C   UNL     1       4.314   2.982  18.450  0.00  0.00    +0.000 C 
BRANCH  21  22
ATOM     22  C   UNL     1       3.451   1.763  18.702  0.00  0.00    +0.000 C 
ATOM     23  O   UNL     1       2.290   1.780  19.097  0.00  0.00    +0.000 OA
BRANCH  22  24
ATOM     24  O   UNL     1       4.069   0.606  18.371  0.00  0.00    +0.000 OA
ATOM     25  H   UNL     1       3.584   0.060  17.725  0.00  0.00    +0.000 HD
ENDBRANCH  22  24
ENDBRANCH  21  22
ENDBRANCH  10  21
ENDBRANCH   9  10
ENDBRANCH   1   9
BRANCH   5  26
ATOM     26  C   UNL     1       0.632  10.015  19.324  0.00  0.00    +0.000 C 
BRANCH  26  27
ATOM     27  C   UNL     1       1.708  10.704  18.503  0.00  0.00    +0.000 C 
BRANCH  27  28
ATOM     28  C   UNL     1       1.820  12.183  18.792  0.00  0.00    +0.000 A 
ATOM     29  C   UNL     1       1.125  12.696  19.881  0.00  0.00    +0.000 A 
ATOM     30  C   UNL     1       1.228  14.050  20.159  0.00  0.00    +0.000 A 
ATOM     31  C   UNL     1       2.031  14.858  19.352  0.00  0.00    +0.000 A 
ATOM     32  C   UNL     1       2.688  14.272  18.269  0.00  0.00    +0.000 A 
ATOM     33  N   UNL     1       2.589  12.958  17.985  0.00  0.00    +0.000 NA
ATOM     34  N   UNL     1       3.528  15.021  17.452  0.00  0.00    +0.000 N 
ATOM     35  C   UNL     1       3.277  16.446  17.396  0.00  0.00    +0.000 C 
ATOM     36  C   UNL     1       3.246  16.995  18.817  0.00  0.00    +0.000 C 
ATOM     37  C   UNL     1       2.112  16.339  19.599  0.00  0.00    +0.000 C 
ATOM     38  H   UNL     1       3.726  14.519  16.595  0.00  0.00    +0.000 HD
ENDBRANCH  27  28
ENDBRANCH  26  27
ENDBRANCH   5  26
TORSDOF 11
ENDMDL
MODEL 8
REMARK VINA RESULT:      -7.5      1.335      1.712
REMARK  Name = 
REMARK  13 active torsions:
REMARK  status: ('A' for Active; 'I' for Inactive)
REMARK    1  A    between atoms: C_1  and  O_2
REMARK    2  A    between atoms: O_2  and  C_3
REMARK    3  A    between atoms: C_6  and  C_7
REMARK    4  A    between atoms: C_7  and  C_8
REMARK    5  A    between atoms: C_7  and  C_12
REMARK    6  A    between atoms: C_8  and  C_9
REMARK    7  A    between atoms: C_9  and  O_11
REMARK    8  A    between atoms: C_12  and  C_13
REMARK    9  A    between atoms: C_17  and  C_19
REMARK   10  A    between atoms: C_19  and  C_20
REMARK   11  A    between atoms: C_20  and  C_21
REMARK   12  A    between atoms: C_33  and  O_34
REMARK   13  A    between atoms: O_34  and  C_35
REMARK                            x       y       z     vdW  Elec       q    Type
REMARK                         _______ _______ _______ _____ _____    ______ ____
ROOT
ATOM      1  C   UNL     1       2.002   5.586  19.086  0.00  0.00    +0.000 C 
ATOM      2  C   UNL     1       1.832   6.520  17.879  0.00  0.00    +0.000 C 
ATOM      3  C   UNL     1       2.317   7.944  18.160  0.00  0.00    +0.000 C 
ATOM      4  N   UNL     1       1.758   8.455  19.412  0.00  0.00    +0.000 N 
ATOM      5  C   UNL     1       1.063   9.657  19.424  0.00  0.00    +0.000 C 
ATOM      6  O   UNL     1       0.891  10.333  18.411  0.00  0.00    +0.000 OA
ATOM      7  C   UNL     1       1.956   7.613  20.590  0.00  0.00    +0.000 C 
ATOM      8  C   UNL     1       1.362   6.234  20.330  0.00  0.00    +0.000 C 
ENDROOT
BRANCH   1   9
ATOM      9  C   UNL     1       3.468   5.241  19.410  0.00  0.00    +0.000 C 
BRANCH   9  10
ATOM     10  C   UNL     1       4.071   3.954  18.793  0.00  0.00    +0.000 C 
BRANCH  10  14
ATOM     11  C   UNL     1       6.890   4.964  15.808  0.00  0.00    +0.000 A 
ATOM     12  N   UNL     1       5.801   4.305  15.434  0.00  0.00    +0.000 NA
ATOM     13  C   UNL     1       4.954   3.974  16.417  0.00  0.00    +0.000 A 
ATOM     14  C   UNL     1       5.142   4.274  17.757  0.00  0.00    +0.000 A 
ATOM     15  C   UNL     1       6.348   4.913  18.021  0.00  0.00    +0.000 A 
ATOM     16  N   UNL     1       7.223   5.283  17.064  0.00  0.00    +0.000 NA
BRANCH  11  18
ATOM     17  C   UNL     1       7.291   4.799  13.534  0.00  0.00    +0.000 C 
ATOM     18  O   UNL     1       7.649   5.420  14.754  0.00  0.00    +0.000 OA
ENDBRANCH  11  18
BRANCH  15  19
ATOM     19  O   UNL     1       6.670   5.196  19.336  0.00  0.00    +0.000 OA
ATOM     20  C   UNL     1       8.017   5.651  19.510  0.00  0.00    +0.000 C 
ENDBRANCH  15  19
ENDBRANCH  10  14
BRANCH  10  21
ATOM     21  C   UNL     1       4.574   2.956  19.853  0.00  0.00    +0.000 C 
BRANCH  21  22
ATOM     22  C   UNL     1       4.495   1.492  19.473  0.00  0.00    +0.000 C 
ATOM     23  O   UNL     1       3.772   1.019  18.603  0.00  0.00    +0.000 OA
BRANCH  22  24
ATOM     24  O   UNL     1       5.379   0.726  20.153  0.00  0.00    +0.000 OA
ATOM     25  H   UNL     1       5.066  -0.179  20.342  0.00  0.00    +0.000 HD
ENDBRANCH  22  24
ENDBRANCH  21  22
ENDBRANCH  10  21
ENDBRANCH   9  10
ENDBRANCH   1   9
BRANCH   5  26
ATOM     26  C   UNL     1       0.527  10.087  20.773  0.00  0.00    +0.000 C 
BRANCH  26  27
ATOM     27  C   UNL     1       0.724  11.572  21.025  0.00  0.00    +0.000 C 
BRANCH  27  28
ATOM     28  C   UNL     1      -0.542  12.274  21.457  0.00  0.00    +0.000 A 
ATOM     29  C   UNL     1      -0.864  13.483  20.850  0.00  0.00    +0.000 A 
ATOM     30  C   UNL     1      -2.027  14.132  21.234  0.00  0.00    +0.000 A 
ATOM     31  C   UNL     1      -2.848  13.554  22.203  0.00  0.00    +0.000 A 
ATOM     32  C   UNL     1      -2.452  12.344  22.776  0.00  0.00    +0.000 A 
ATOM     33  N   UNL     1      -1.319  11.709  22.415  0.00  0.00    +0.000 NA
ATOM     34  N   UNL     1      -3.247  11.706  23.721  0.00  0.00    +0.000 N 
ATOM     35  C   UNL     1      -4.153  12.543  24.478  0.00  0.00    +0.000 C 
ATOM     36  C   UNL     1      -4.993  13.363  23.506  0.00  0.00    +0.000 C 
ATOM     37  C   UNL     1      -4.085  14.267  22.677  0.00  0.00    +0.000 C 
ATOM     38  H   UNL     1      -2.717  10.989  24.201  0.00  0.00    +0.000 HD
ENDBRANCH  27  28
ENDBRANCH  26  27
ENDBRANCH   5  26
TORSDOF 11
ENDMDL
MODEL 9
REMARK VINA RESULT:      -7.5      3.787     11.963
REMARK  Name = 
REMARK  13 active torsions:
REMARK  status: ('A' for Active; 'I' for Inactive)
REMARK    1  A    between atoms: C_1  and  O_2
REMARK    2  A    between atoms: O_2  and  C_3
REMARK    3  A    between atoms: C_6  and  C_7
REMARK    4  A    between atoms: C_7  and  C_8
REMARK    5  A    between atoms: C_7  and  C_12
REMARK    6  A    between atoms: C_8  and  C_9
REMARK    7  A    between atoms: C_9  and  O_11
REMARK    8  A    between atoms: C_12  and  C_13
REMARK    9  A    between atoms: C_17  and  C_19
REMARK   10  A    between atoms: C_19  and  C_20
REMARK   11  A    between atoms: C_20  and  C_21
REMARK   12  A    between atoms: C_33  and  O_34
REMARK   13  A    between atoms: O_34  and  C_35
REMARK                            x       y       z     vdW  Elec       q    Type
REMARK                         _______ _______ _______ _____ _____    ______ ____
ROOT
ATOM      1  C   UNL     1      -0.823  12.058  20.802  0.00  0.00    +0.000 C 
ATOM      2  C   UNL     1       0.342  12.795  20.126  0.00  0.00    +0.000 C 
ATOM      3  C   UNL     1       0.598  12.310  18.698  0.00  0.00    +0.000 C 
ATOM      4  N   UNL     1       0.685  10.851  18.643  0.00  0.00    +0.000 N 
ATOM      5  C   UNL     1       1.801  10.240  18.086  0.00  0.00    +0.000 C 
ATOM      6  O   UNL     1       2.744  10.879  17.623  0.00  0.00    +0.000 OA
ATOM      7  C   UNL     1      -0.439  10.122  19.228  0.00  0.00    +0.000 C 
ATOM      8  C   UNL     1      -0.604  10.536  20.685  0.00  0.00    +0.000 C 
ENDROOT
BRANCH   1   9
ATOM      9  C   UNL     1      -2.206  12.402  20.219  0.00  0.00    +0.000 C 
BRANCH   9  10
ATOM     10  C   UNL     1      -3.387  12.599  21.202  0.00  0.00    +0.000 C 
BRANCH  10  14
ATOM     11  C   UNL     1      -2.490  15.357  24.279  0.00  0.00    +0.000 A 
ATOM     12  N   UNL     1      -2.148  15.680  23.039  0.00  0.00    +0.000 NA
ATOM     13  C   UNL     1      -2.417  14.762  22.102  0.00  0.00    +0.000 A 
ATOM     14  C   UNL     1      -3.018  13.536  22.345  0.00  0.00    +0.000 A 
ATOM     15  C   UNL     1      -3.272  13.298  23.692  0.00  0.00    +0.000 A 
ATOM     16  N   UNL     1      -3.034  14.197  24.668  0.00  0.00    +0.000 NA
BRANCH  11  18
ATOM     17  C   UNL     1      -1.229  16.187  26.034  0.00  0.00    +0.000 C 
ATOM     18  O   UNL     1      -2.340  16.386  25.180  0.00  0.00    +0.000 OA
ENDBRANCH  11  18
BRANCH  15  19
ATOM     19  O   UNL     1      -3.805  12.074  24.055  0.00  0.00    +0.000 OA
ATOM     20  C   UNL     1      -5.043  12.179  24.770  0.00  0.00    +0.000 C 
ENDBRANCH  15  19
ENDBRANCH  10  14
BRANCH  10  21
ATOM     21  C   UNL     1      -4.690  13.029  20.501  0.00  0.00    +0.000 C 
BRANCH  21  22
ATOM     22  C   UNL     1      -5.974  12.714  21.240  0.00  0.00    +0.000 C 
ATOM     23  O   UNL     1      -6.442  11.593  21.409  0.00  0.00    +0.000 OA
BRANCH  22  24
ATOM     24  O   UNL     1      -6.549  13.811  21.783  0.00  0.00    +0.000 OA
ATOM     25  H   UNL     1      -6.114  14.134  22.595  0.00  0.00    +0.000 HD
ENDBRANCH  22  24
ENDBRANCH  21  22
ENDBRANCH  10  21
ENDBRANCH   9  10
ENDBRANCH   1   9
BRANCH   5  26
ATOM     26  C   UNL     1       1.784   8.727  18.084  0.00  0.00    +0.000 C 
BRANCH  26  27
ATOM     27  C   UNL     1       3.150   8.134  17.786  0.00  0.00    +0.000 C 
BRANCH  27  28
ATOM     28  C   UNL     1       3.162   6.624  17.814  0.00  0.00    +0.000 A 
ATOM     29  C   UNL     1       4.193   5.961  17.157  0.00  0.00    +0.000 A 
ATOM     30  C   UNL     1       4.218   4.576  17.183  0.00  0.00    +0.000 A 
ATOM     31  C   UNL     1       3.222   3.884  17.875  0.00  0.00    +0.000 A 
ATOM     32  C   UNL     1       2.213   4.619  18.499  0.00  0.00    +0.000 A 
ATOM     33  N   UNL     1       2.175   5.966  18.473  0.00  0.00    +0.000 NA
ATOM     34  N   UNL     1       1.215   3.984  19.231  0.00  0.00    +0.000 N 
ATOM     35  C   UNL     1       0.926   2.611  18.879  0.00  0.00    +0.000 C 
ATOM     36  C   UNL     1       2.226   1.814  18.902  0.00  0.00    +0.000 C 
ATOM     37  C   UNL     1       3.196   2.381  17.868  0.00  0.00    +0.000 C 
ATOM     38  H   UNL     1       0.448   4.622  19.407  0.00  0.00    +0.000 HD
ENDBRANCH  27  28
ENDBRANCH  26  27
ENDBRANCH   5  26
TORSDOF 11
ENDMDL
