MODEL 1
REMARK VINA RESULT:      -8.9      0.000      0.000
REMARK  Name = 
REMARK  5 active torsions:
REMARK  status: ('A' for Active; 'I' for Inactive)
REMARK    1  A    between atoms: C_2  and  C_3
REMARK    2  A    between atoms: C_7  and  C_8
REMARK    3  A    between atoms: N_10  and  C_11
REMARK    4  A    between atoms: C_17  and  N_18
REMARK    5  A    between atoms: C_26  and  C_28
REMARK                            x       y       z     vdW  Elec       q    Type
REMARK                         _______ _______ _______ _____ _____    ______ ____
ROOT
ATOM      1  C   UNL     1       1.790  10.643  18.138  0.00  0.00    +0.000 A 
ATOM      2  C   UNL     1       0.454  10.691  18.580  0.00  0.00    +0.000 A 
ATOM      3  C   UNL     1      -0.167  11.899  18.909  0.00  0.00    +0.000 A 
ATOM      4  C   UNL     1       0.573  13.061  18.813  0.00  0.00    +0.000 A 
ATOM      5  C   UNL     1       1.910  13.032  18.404  0.00  0.00    +0.000 A 
ATOM      6  C   UNL     1       2.525  11.830  18.057  0.00  0.00    +0.000 A 
ATOM      7  C   UNL     1       2.478  14.432  18.363  0.00  0.00    +0.000 C 
ATOM      8  C   UNL     1       1.444  15.201  19.221  0.00  0.00    +0.000 C 
ATOM      9  C   UNL     1       0.108  14.461  19.058  0.00  0.00    +0.000 C 
ENDROOT
BRANCH   7  10
ATOM     10  N   UNL     1       3.879  14.550  18.758  0.00  0.00    +0.000 NA
ATOM     11  C   UNL     1       4.766  15.076  17.697  0.00  0.00    +0.000 C 
ATOM     12  C   UNL     1       6.220  15.335  18.201  0.00  0.00    +0.000 C 
ATOM     13  C   UNL     1       6.395  16.732  18.884  0.00  0.00    +0.000 C 
ATOM     14  C   UNL     1       6.304  16.455  20.402  0.00  0.00    +0.000 C 
ATOM     15  C   UNL     1       5.707  15.050  20.412  0.00  0.00    +0.000 C 
ATOM     16  C   UNL     1       4.176  15.217  20.030  0.00  0.00    +0.000 C 
ATOM     17  N   UNL     1       6.501  14.437  19.307  0.00  0.00    +0.000 N 
ATOM     18  C   UNL     1       7.852  14.109  19.514  0.00  0.00    +0.000 C 
ATOM     19  O   UNL     1       8.415  14.344  20.587  0.00  0.00    +0.000 OA
BRANCH  18  20
ATOM     20  C   UNL     1       8.645  13.563  18.332  0.00  0.00    +0.000 C 
ATOM     21  C   UNL     1       9.950  14.279  17.951  0.00  0.00    +0.000 C 
ATOM     22  C   UNL     1      10.661  13.234  17.096  0.00  0.00    +0.000 C 
ATOM     23  C   UNL     1      10.375  11.914  17.796  0.00  0.00    +0.000 C 
ATOM     24  C   UNL     1       9.085  12.127  18.586  0.00  0.00    +0.000 C 
ENDBRANCH  18  20
ENDBRANCH   7  10
BRANCH   1  27
ATOM     25  C   UNL     1       2.391   8.280  18.542  0.00  0.00    +0.000 C 
ATOM     26  O   UNL     1       1.809   8.173  19.619  0.00  0.00    +0.000 OA
ATOM     27  N   UNL     1       2.420   9.427  17.762  0.00  0.00    +0.000 N 
ATOM     28  H   UNL     1       2.709   9.357  16.796  0.00  0.00    +0.000 HD
BRANCH  25  33
ATOM     29  C   UNL     1       4.853   5.804  16.976  0.00  0.00    +0.000 A 
ATOM     30  C   UNL     1       4.153   4.605  17.156  0.00  0.00    +0.000 A 
ATOM     31  C   UNL     1       2.901   4.619  17.761  0.00  0.00    +0.000 A 
ATOM     32  C   UNL     1       2.352   5.831  18.186  0.00  0.00    +0.000 A 
ATOM     33  C   UNL     1       3.040   7.045  18.009  0.00  0.00    +0.000 A 
ATOM     34  C   UNL     1       4.302   7.025  17.402  0.00  0.00    +0.000 A 
BRANCH  29  36
ATOM     35  N   UNL     1       7.181   5.773  15.843  0.00  0.00    +0.000 NA
ATOM     36  C   UNL     1       6.149   5.784  16.349  0.00  0.00    +0.000 C 
ENDBRANCH  29  36
ENDBRANCH  25  33
ENDBRANCH   1  27
TORSDOF 5
ENDMDL
MODEL 2
REMARK VINA RESULT:      -8.8      1.191      1.643
REMARK  Name = 
REMARK  5 active torsions:
REMARK  status: ('A' for Active; 'I' for Inactive)
REMARK    1  A    between atoms: C_2  and  C_3
REMARK    2  A    between atoms: C_7  and  C_8
REMARK    3  A    between atoms: N_10  and  C_11
REMARK    4  A    between atoms: C_17  and  N_18
REMARK    5  A    between atoms: C_26  and  C_28
REMARK                            x       y       z     vdW  Elec       q    Type
REMARK                         _______ _______ _______ _____ _____    ______ ____
ROOT
ATOM      1  C   UNL     1       1.752  10.866  18.205  0.00  0.00    +0.000 A 
ATOM      2  C   UNL     1       0.418  10.992  18.639  0.00  0.00    +0.000 A 
ATOM      3  C   UNL     1      -0.143  12.237  18.932  0.00  0.00    +0.000 A 
ATOM      4  C   UNL     1       0.652  13.359  18.808  0.00  0.00    +0.000 A 
ATOM      5  C   UNL     1       1.988  13.253  18.406  0.00  0.00    +0.000 A 
ATOM      6  C   UNL     1       2.544  12.014  18.095  0.00  0.00    +0.000 A 
ATOM      7  C   UNL     1       2.624  14.623  18.330  0.00  0.00    +0.000 C 
ATOM      8  C   UNL     1       1.626  15.464  19.162  0.00  0.00    +0.000 C 
ATOM      9  C   UNL     1       0.255  14.786  19.013  0.00  0.00    +0.000 C 
ENDROOT
BRANCH   7  10
ATOM     10  N   UNL     1       4.028  14.682  18.728  0.00  0.00    +0.000 NA
ATOM     11  C   UNL     1       4.938  15.173  17.669  0.00  0.00    +0.000 C 
ATOM     12  C   UNL     1       6.400  15.371  18.177  0.00  0.00    +0.000 C 
ATOM     13  C   UNL     1       6.630  16.759  18.861  0.00  0.00    +0.000 C 
ATOM     14  C   UNL     1       6.524  16.485  20.380  0.00  0.00    +0.000 C 
ATOM     15  C   UNL     1       5.871  15.107  20.387  0.00  0.00    +0.000 C 
ATOM     16  C   UNL     1       4.349  15.336  20.002  0.00  0.00    +0.000 C 
ATOM     17  N   UNL     1       6.642  14.462  19.283  0.00  0.00    +0.000 N 
ATOM     18  C   UNL     1       7.977  14.078  19.493  0.00  0.00    +0.000 C 
ATOM     19  O   UNL     1       8.547  14.289  20.567  0.00  0.00    +0.000 OA
BRANCH  18  20
ATOM     20  C   UNL     1       8.750  13.502  18.312  0.00  0.00    +0.000 C 
ATOM     21  C   UNL     1      10.044  14.212  17.886  0.00  0.00    +0.000 C 
ATOM     22  C   UNL     1      10.744  13.145  17.048  0.00  0.00    +0.000 C 
ATOM     23  C   UNL     1      10.477  11.844  17.792  0.00  0.00    +0.000 C 
ATOM     24  C   UNL     1       9.202  12.075  18.600  0.00  0.00    +0.000 C 
ENDBRANCH  18  20
ENDBRANCH   7  10
BRANCH   1  27
ATOM     25  C   UNL     1       2.225   8.486  18.670  0.00  0.00    +0.000 C 
ATOM     26  O   UNL     1       1.624   8.434  19.741  0.00  0.00    +0.000 OA
ATOM     27  N   UNL     1       2.323   9.611  17.865  0.00  0.00    +0.000 N 
ATOM     28  H   UNL     1       2.620   9.505  16.905  0.00  0.00    +0.000 HD
BRANCH  25  33
ATOM     29  C   UNL     1       2.806   4.816  17.755  0.00  0.00    +0.000 A 
ATOM     30  C   UNL     1       4.032   4.915  17.085  0.00  0.00    +0.000 A 
ATOM     31  C   UNL     1       4.651   6.153  16.956  0.00  0.00    +0.000 A 
ATOM     32  C   UNL     1       4.045   7.289  17.494  0.00  0.00    +0.000 A 
ATOM     33  C   UNL     1       2.816   7.207  18.174  0.00  0.00    +0.000 A 
ATOM     34  C   UNL     1       2.194   5.959  18.299  0.00  0.00    +0.000 A 
BRANCH  29  36
ATOM     35  N   UNL     1       1.652   2.510  17.988  0.00  0.00    +0.000 NA
ATOM     36  C   UNL     1       2.168   3.532  17.886  0.00  0.00    +0.000 C 
ENDBRANCH  29  36
ENDBRANCH  25  33
ENDBRANCH   1  27
TORSDOF 5
ENDMDL
MODEL 3
REMARK VINA RESULT:      -8.5      4.666      9.436
REMARK  Name = 
REMARK  5 active torsions:
REMARK  status: ('A' for Active; 'I' for Inactive)
REMARK    1  A    between atoms: C_2  and  C_3
REMARK    2  A    between atoms: C_7  and  C_8
REMARK    3  A    between atoms: N_10  and  C_11
REMARK    4  A    between atoms: C_17  and  N_18
REMARK    5  A    between atoms: C_26  and  C_28
REMARK                            x       y       z     vdW  Elec       q    Type
REMARK                         _______ _______ _______ _____ _____    ______ ____
ROOT
ATOM      1  C   UNL     1       1.834   5.818  20.242  0.00  0.00    +0.000 A 
ATOM      2  C   UNL     1       0.870   4.849  20.578  0.00  0.00    +0.000 A 
ATOM      3  C   UNL     1       1.137   3.482  20.475  0.00  0.00    +0.000 A 
ATOM      4  C   UNL     1       2.376   3.091  20.009  0.00  0.00    +0.000 A 
ATOM      5  C   UNL     1       3.339   4.037  19.643  0.00  0.00    +0.000 A 
ATOM      6  C   UNL     1       3.081   5.402  19.763  0.00  0.00    +0.000 A 
ATOM      7  C   UNL     1       4.608   3.350  19.191  0.00  0.00    +0.000 C 
ATOM      8  C   UNL     1       4.093   1.915  18.924  0.00  0.00    +0.000 C 
ATOM      9  C   UNL     1       2.901   1.697  19.869  0.00  0.00    +0.000 C 
ENDROOT
BRANCH   7  10
ATOM     10  N   UNL     1       5.320   4.008  18.100  0.00  0.00    +0.000 NA
ATOM     11  C   UNL     1       4.439   4.636  17.092  0.00  0.00    +0.000 C 
ATOM     12  C   UNL     1       5.231   5.461  16.029  0.00  0.00    +0.000 C 
ATOM     13  C   UNL     1       5.550   6.920  16.496  0.00  0.00    +0.000 C 
ATOM     14  C   UNL     1       7.005   6.871  17.014  0.00  0.00    +0.000 C 
ATOM     15  C   UNL     1       7.218   5.366  17.160  0.00  0.00    +0.000 C 
ATOM     16  C   UNL     1       6.408   4.928  18.451  0.00  0.00    +0.000 C 
ATOM     17  N   UNL     1       6.565   4.902  15.900  0.00  0.00    +0.000 N 
ATOM     18  C   UNL     1       7.206   5.102  14.665  0.00  0.00    +0.000 C 
ATOM     19  O   UNL     1       8.292   5.683  14.588  0.00  0.00    +0.000 OA
BRANCH  18  20
ATOM     20  C   UNL     1       6.464   4.688  13.399  0.00  0.00    +0.000 C 
ATOM     21  C   UNL     1       7.279   4.544  12.104  0.00  0.00    +0.000 C 
ATOM     22  C   UNL     1       6.355   3.705  11.226  0.00  0.00    +0.000 C 
ATOM     23  C   UNL     1       5.746   2.688  12.179  0.00  0.00    +0.000 C 
ATOM     24  C   UNL     1       5.817   3.318  13.569  0.00  0.00    +0.000 C 
ENDBRANCH  18  20
ENDBRANCH   7  10
BRANCH   1  27
ATOM     25  C   UNL     1       1.647   8.103  19.319  0.00  0.00    +0.000 C 
ATOM     26  O   UNL     1       1.887   7.799  18.152  0.00  0.00    +0.000 OA
ATOM     27  N   UNL     1       1.591   7.210  20.380  0.00  0.00    +0.000 N 
ATOM     28  H   UNL     1       1.155   7.501  21.244  0.00  0.00    +0.000 HD
BRANCH  25  33
ATOM     29  C   UNL     1       0.430  11.361  20.914  0.00  0.00    +0.000 A 
ATOM     30  C   UNL     1       0.848  12.286  19.949  0.00  0.00    +0.000 A 
ATOM     31  C   UNL     1       1.496  11.841  18.801  0.00  0.00    +0.000 A 
ATOM     32  C   UNL     1       1.727  10.477  18.621  0.00  0.00    +0.000 A 
ATOM     33  C   UNL     1       1.310   9.534  19.579  0.00  0.00    +0.000 A 
ATOM     34  C   UNL     1       0.661   9.986  20.734  0.00  0.00    +0.000 A 
BRANCH  29  36
ATOM     35  N   UNL     1      -0.769  12.202  23.049  0.00  0.00    +0.000 NA
ATOM     36  C   UNL     1      -0.240  11.826  22.101  0.00  0.00    +0.000 C 
ENDBRANCH  29  36
ENDBRANCH  25  33
ENDBRANCH   1  27
TORSDOF 5
ENDMDL
MODEL 4
REMARK VINA RESULT:      -8.5      4.483      9.433
REMARK  Name = 
REMARK  5 active torsions:
REMARK  status: ('A' for Active; 'I' for Inactive)
REMARK    1  A    between atoms: C_2  and  C_3
REMARK    2  A    between atoms: C_7  and  C_8
REMARK    3  A    between atoms: N_10  and  C_11
REMARK    4  A    between atoms: C_17  and  N_18
REMARK    5  A    between atoms: C_26  and  C_28
REMARK                            x       y       z     vdW  Elec       q    Type
REMARK                         _______ _______ _______ _____ _____    ______ ____
ROOT
ATOM      1  C   UNL     1       2.005   6.486  20.171  0.00  0.00    +0.000 A 
ATOM      2  C   UNL     1       1.102   5.596  20.783  0.00  0.00    +0.000 A 
ATOM      3  C   UNL     1       1.409   4.245  20.957  0.00  0.00    +0.000 A 
ATOM      4  C   UNL     1       2.625   3.784  20.492  0.00  0.00    +0.000 A 
ATOM      5  C   UNL     1       3.525   4.646  19.856  0.00  0.00    +0.000 A 
ATOM      6  C   UNL     1       3.228   5.999  19.698  0.00  0.00    +0.000 A 
ATOM      7  C   UNL     1       4.781   3.900  19.466  0.00  0.00    +0.000 C 
ATOM      8  C   UNL     1       4.299   2.432  19.557  0.00  0.00    +0.000 C 
ATOM      9  C   UNL     1       3.186   2.404  20.616  0.00  0.00    +0.000 C 
ENDROOT
BRANCH   7  10
ATOM     10  N   UNL     1       5.390   4.318  18.207  0.00  0.00    +0.000 NA
ATOM     11  C   UNL     1       4.438   4.424  17.079  0.00  0.00    +0.000 C 
ATOM     12  C   UNL     1       5.092   5.021  15.794  0.00  0.00    +0.000 C 
ATOM     13  C   UNL     1       5.108   6.585  15.781  0.00  0.00    +0.000 C 
ATOM     14  C   UNL     1       6.528   6.980  16.250  0.00  0.00    +0.000 C 
ATOM     15  C   UNL     1       7.020   5.663  16.843  0.00  0.00    +0.000 C 
ATOM     16  C   UNL     1       6.268   5.493  18.229  0.00  0.00    +0.000 C 
ATOM     17  N   UNL     1       6.512   4.719  15.805  0.00  0.00    +0.000 N 
ATOM     18  C   UNL     1       7.144   4.651  14.551  0.00  0.00    +0.000 C 
ATOM     19  O   UNL     1       8.100   5.380  14.270  0.00  0.00    +0.000 OA
BRANCH  18  20
ATOM     20  C   UNL     1       6.539   3.734  13.495  0.00  0.00    +0.000 C 
ATOM     21  C   UNL     1       5.038   3.877  13.195  0.00  0.00    +0.000 C 
ATOM     22  C   UNL     1       4.906   3.186  11.841  0.00  0.00    +0.000 C 
ATOM     23  C   UNL     1       6.154   3.604  11.079  0.00  0.00    +0.000 C 
ATOM     24  C   UNL     1       7.197   3.954  12.138  0.00  0.00    +0.000 C 
ENDBRANCH  18  20
ENDBRANCH   7  10
BRANCH   1  27
ATOM     25  C   UNL     1       1.696   8.516  18.796  0.00  0.00    +0.000 C 
ATOM     26  O   UNL     1       1.885   7.974  17.709  0.00  0.00    +0.000 OA
ATOM     27  N   UNL     1       1.723   7.870  20.023  0.00  0.00    +0.000 N 
ATOM     28  H   UNL     1       1.323   8.330  20.830  0.00  0.00    +0.000 HD
BRANCH  25  33
ATOM     29  C   UNL     1      -0.126  11.854  19.222  0.00  0.00    +0.000 A 
ATOM     30  C   UNL     1       0.841  12.734  18.721  0.00  0.00    +0.000 A 
ATOM     31  C   UNL     1       2.049  12.235  18.243  0.00  0.00    +0.000 A 
ATOM     32  C   UNL     1       2.288  10.860  18.268  0.00  0.00    +0.000 A 
ATOM     33  C   UNL     1       1.325   9.962  18.765  0.00  0.00    +0.000 A 
ATOM     34  C   UNL     1       0.113  10.469  19.247  0.00  0.00    +0.000 A 
BRANCH  29  36
ATOM     35  N   UNL     1      -2.372  12.791  20.102  0.00  0.00    +0.000 NA
ATOM     36  C   UNL     1      -1.374  12.375  19.715  0.00  0.00    +0.000 C 
ENDBRANCH  29  36
ENDBRANCH  25  33
ENDBRANCH   1  27
TORSDOF 5
ENDMDL
MODEL 5
REMARK VINA RESULT:      -8.4      3.806      9.226
REMARK  Name = 
REMARK  5 active torsions:
REMARK  status: ('A' for Active; 'I' for Inactive)
REMARK    1  A    between atoms: C_2  and  C_3
REMARK    2  A    between atoms: C_7  and  C_8
REMARK    3  A    between atoms: N_10  and  C_11
REMARK    4  A    between atoms: C_17  and  N_18
REMARK    5  A    between atoms: C_26  and  C_28
REMARK                            x       y       z     vdW  Elec       q    Type
REMARK                         _______ _______ _______ _____ _____    ______ ____
ROOT
ATOM      1  C   UNL     1       1.981   6.491  20.192  0.00  0.00    +0.000 A 
ATOM      2  C   UNL     1       1.091   5.593  20.812  0.00  0.00    +0.000 A 
ATOM      3  C   UNL     1       1.417   4.247  20.995  0.00  0.00    +0.000 A 
ATOM      4  C   UNL     1       2.638   3.801  20.528  0.00  0.00    +0.000 A 
ATOM      5  C   UNL     1       3.524   4.670  19.884  0.00  0.00    +0.000 A 
ATOM      6  C   UNL     1       3.209   6.018  19.718  0.00  0.00    +0.000 A 
ATOM      7  C   UNL     1       4.789   3.939  19.495  0.00  0.00    +0.000 C 
ATOM      8  C   UNL     1       4.327   2.465  19.597  0.00  0.00    +0.000 C 
ATOM      9  C   UNL     1       3.219   2.429  20.660  0.00  0.00    +0.000 C 
ENDROOT
BRANCH   7  10
ATOM     10  N   UNL     1       5.389   4.357  18.231  0.00  0.00    +0.000 NA
ATOM     11  C   UNL     1       4.431   4.449  17.107  0.00  0.00    +0.000 C 
ATOM     12  C   UNL     1       5.074   5.045  15.816  0.00  0.00    +0.000 C 
ATOM     13  C   UNL     1       5.074   6.610  15.797  0.00  0.00    +0.000 C 
ATOM     14  C   UNL     1       6.492   7.021  16.257  0.00  0.00    +0.000 C 
ATOM     15  C   UNL     1       7.000   5.712  16.855  0.00  0.00    +0.000 C 
ATOM     16  C   UNL     1       6.255   5.541  18.245  0.00  0.00    +0.000 C 
ATOM     17  N   UNL     1       6.497   4.758  15.823  0.00  0.00    +0.000 N 
ATOM     18  C   UNL     1       7.124   4.690  14.567  0.00  0.00    +0.000 C 
ATOM     19  O   UNL     1       8.071   5.426  14.278  0.00  0.00    +0.000 OA
BRANCH  18  20
ATOM     20  C   UNL     1       6.523   3.762  13.517  0.00  0.00    +0.000 C 
ATOM     21  C   UNL     1       5.026   3.908  13.203  0.00  0.00    +0.000 C 
ATOM     22  C   UNL     1       4.901   3.200  11.857  0.00  0.00    +0.000 C 
ATOM     23  C   UNL     1       6.158   3.602  11.100  0.00  0.00    +0.000 C 
ATOM     24  C   UNL     1       7.193   3.962  12.163  0.00  0.00    +0.000 C 
ENDBRANCH  18  20
ENDBRANCH   7  10
BRANCH   1  27
ATOM     25  C   UNL     1       1.660   8.512  18.806  0.00  0.00    +0.000 C 
ATOM     26  O   UNL     1       1.875   7.970  17.724  0.00  0.00    +0.000 OA
ATOM     27  N   UNL     1       1.679   7.871  20.036  0.00  0.00    +0.000 N 
ATOM     28  H   UNL     1       1.260   8.326  20.835  0.00  0.00    +0.000 HD
BRANCH  25  33
ATOM     29  C   UNL     1       1.698  12.325  18.480  0.00  0.00    +0.000 A 
ATOM     30  C   UNL     1       0.332  12.603  18.616  0.00  0.00    +0.000 A 
ATOM     31  C   UNL     1      -0.567  11.563  18.825  0.00  0.00    +0.000 A 
ATOM     32  C   UNL     1      -0.102  10.249  18.896  0.00  0.00    +0.000 A 
ATOM     33  C   UNL     1       1.268   9.953  18.765  0.00  0.00    +0.000 A 
ATOM     34  C   UNL     1       2.169  11.002  18.551  0.00  0.00    +0.000 A 
BRANCH  29  36
ATOM     35  N   UNL     1       3.366  14.264  18.082  0.00  0.00    +0.000 NA
ATOM     36  C   UNL     1       2.626  13.404  18.263  0.00  0.00    +0.000 C 
ENDBRANCH  29  36
ENDBRANCH  25  33
ENDBRANCH   1  27
TORSDOF 5
ENDMDL
MODEL 6
REMARK VINA RESULT:      -8.4      1.638      2.203
REMARK  Name = 
REMARK  5 active torsions:
REMARK  status: ('A' for Active; 'I' for Inactive)
REMARK    1  A    between atoms: C_2  and  C_3
REMARK    2  A    between atoms: C_7  and  C_8
REMARK    3  A    between atoms: N_10  and  C_11
REMARK    4  A    between atoms: C_17  and  N_18
REMARK    5  A    between atoms: C_26  and  C_28
REMARK                            x       y       z     vdW  Elec       q    Type
REMARK                         _______ _______ _______ _____ _____    ______ ____
ROOT
ATOM      1  C   UNL     1       1.204  11.183  18.753  0.00  0.00    +0.000 A 
ATOM      2  C   UNL     1      -0.130  11.500  19.069  0.00  0.00    +0.000 A 
ATOM      3  C   UNL     1      -0.585  12.821  19.088  0.00  0.00    +0.000 A 
ATOM      4  C   UNL     1       0.318  13.828  18.810  0.00  0.00    +0.000 A 
ATOM      5  C   UNL     1       1.655  13.536  18.521  0.00  0.00    +0.000 A 
ATOM      6  C   UNL     1       2.106  12.217  18.483  0.00  0.00    +0.000 A 
ATOM      7  C   UNL     1       2.421  14.807  18.232  0.00  0.00    +0.000 C 
ATOM      8  C   UNL     1       1.468  15.873  18.827  0.00  0.00    +0.000 C 
ATOM      9  C   UNL     1       0.048  15.296  18.719  0.00  0.00    +0.000 C 
ENDROOT
BRANCH   7  10
ATOM     10  N   UNL     1       3.803  14.824  18.702  0.00  0.00    +0.000 NA
ATOM     11  C   UNL     1       4.755  15.458  17.763  0.00  0.00    +0.000 C 
ATOM     12  C   UNL     1       6.189  15.598  18.362  0.00  0.00    +0.000 C 
ATOM     13  C   UNL     1       6.367  16.884  19.235  0.00  0.00    +0.000 C 
ATOM     14  C   UNL     1       6.195  16.409  20.697  0.00  0.00    +0.000 C 
ATOM     15  C   UNL     1       5.561  15.037  20.489  0.00  0.00    +0.000 C 
ATOM     16  C   UNL     1       4.056  15.304  20.065  0.00  0.00    +0.000 C 
ATOM     17  N   UNL     1       6.391  14.552  19.348  0.00  0.00    +0.000 N 
ATOM     18  C   UNL     1       7.721  14.154  19.569  0.00  0.00    +0.000 C 
ATOM     19  O   UNL     1       8.237  14.224  20.688  0.00  0.00    +0.000 OA
BRANCH  18  20
ATOM     20  C   UNL     1       8.556  13.745  18.360  0.00  0.00    +0.000 C 
ATOM     21  C   UNL     1       9.892  14.469  18.134  0.00  0.00    +0.000 C 
ATOM     22  C   UNL     1      10.620  13.526  17.180  0.00  0.00    +0.000 C 
ATOM     23  C   UNL     1      10.274  12.134  17.687  0.00  0.00    +0.000 C 
ATOM     24  C   UNL     1       8.954  12.277  18.442  0.00  0.00    +0.000 C 
ENDBRANCH  18  20
ENDBRANCH   7  10
BRANCH   1  27
ATOM     25  C   UNL     1       1.591   8.957  19.756  0.00  0.00    +0.000 C 
ATOM     26  O   UNL     1       1.099   9.214  20.852  0.00  0.00    +0.000 OA
ATOM     27  N   UNL     1       1.670   9.843  18.690  0.00  0.00    +0.000 N 
ATOM     28  H   UNL     1       1.864   9.483  17.766  0.00  0.00    +0.000 HD
BRANCH  25  33
ATOM     29  C   UNL     1       2.346   5.231  20.187  0.00  0.00    +0.000 A 
ATOM     30  C   UNL     1       2.909   4.942  18.938  0.00  0.00    +0.000 A 
ATOM     31  C   UNL     1       3.048   5.952  17.992  0.00  0.00    +0.000 A 
ATOM     32  C   UNL     1       2.623   7.246  18.295  0.00  0.00    +0.000 A 
ATOM     33  C   UNL     1       2.060   7.555  19.547  0.00  0.00    +0.000 A 
ATOM     34  C   UNL     1       1.919   6.535  20.495  0.00  0.00    +0.000 A 
BRANCH  29  36
ATOM     35  N   UNL     1       2.083   3.349  21.946  0.00  0.00    +0.000 NA
ATOM     36  C   UNL     1       2.203   4.182  21.164  0.00  0.00    +0.000 C 
ENDBRANCH  29  36
ENDBRANCH  25  33
ENDBRANCH   1  27
TORSDOF 5
ENDMDL
MODEL 7
REMARK VINA RESULT:      -8.4      4.123      9.290
REMARK  Name = 
REMARK  5 active torsions:
REMARK  status: ('A' for Active; 'I' for Inactive)
REMARK    1  A    between atoms: C_2  and  C_3
REMARK    2  A    between atoms: C_7  and  C_8
REMARK    3  A    between atoms: N_10  and  C_11
REMARK    4  A    between atoms: C_17  and  N_18
REMARK    5  A    between atoms: C_26  and  C_28
REMARK                            x       y       z     vdW  Elec       q    Type
REMARK                         _______ _______ _______ _____ _____    ______ ____
ROOT
ATOM      1  C   UNL     1       1.808   5.758  20.319  0.00  0.00    +0.000 A 
ATOM      2  C   UNL     1       0.798   4.817  20.596  0.00  0.00    +0.000 A 
ATOM      3  C   UNL     1       0.999   3.448  20.404  0.00  0.00    +0.000 A 
ATOM      4  C   UNL     1       2.218   3.029  19.909  0.00  0.00    +0.000 A 
ATOM      5  C   UNL     1       3.225   3.950  19.601  0.00  0.00    +0.000 A 
ATOM      6  C   UNL     1       3.033   5.315  19.810  0.00  0.00    +0.000 A 
ATOM      7  C   UNL     1       4.459   3.233  19.101  0.00  0.00    +0.000 C 
ATOM      8  C   UNL     1       3.875   1.845  18.744  0.00  0.00    +0.000 C 
ATOM      9  C   UNL     1       2.675   1.624  19.677  0.00  0.00    +0.000 C 
ENDROOT
BRANCH   7  10
ATOM     10  N   UNL     1       5.202   3.926  18.051  0.00  0.00    +0.000 NA
ATOM     11  C   UNL     1       4.349   4.558  17.021  0.00  0.00    +0.000 C 
ATOM     12  C   UNL     1       5.166   5.417  16.007  0.00  0.00    +0.000 C 
ATOM     13  C   UNL     1       5.439   6.873  16.514  0.00  0.00    +0.000 C 
ATOM     14  C   UNL     1       6.874   6.839  17.089  0.00  0.00    +0.000 C 
ATOM     15  C   UNL     1       7.108   5.337  17.214  0.00  0.00    +0.000 C 
ATOM     16  C   UNL     1       6.257   4.858  18.464  0.00  0.00    +0.000 C 
ATOM     17  N   UNL     1       6.515   4.886  15.920  0.00  0.00    +0.000 N 
ATOM     18  C   UNL     1       7.200   5.121  14.716  0.00  0.00    +0.000 C 
ATOM     19  O   UNL     1       8.277   5.724  14.694  0.00  0.00    +0.000 OA
BRANCH  18  20
ATOM     20  C   UNL     1       6.517   4.719  13.414  0.00  0.00    +0.000 C 
ATOM     21  C   UNL     1       7.386   4.606  12.152  0.00  0.00    +0.000 C 
ATOM     22  C   UNL     1       6.510   3.771  11.223  0.00  0.00    +0.000 C 
ATOM     23  C   UNL     1       5.875   2.731  12.134  0.00  0.00    +0.000 C 
ATOM     24  C   UNL     1       5.881   3.340  13.535  0.00  0.00    +0.000 C 
ENDBRANCH  18  20
ENDBRANCH   7  10
BRANCH   1  27
ATOM     25  C   UNL     1       1.639   8.095  19.533  0.00  0.00    +0.000 C 
ATOM     26  O   UNL     1       1.773   7.846  18.337  0.00  0.00    +0.000 OA
ATOM     27  N   UNL     1       1.631   7.149  20.548  0.00  0.00    +0.000 N 
ATOM     28  H   UNL     1       1.277   7.408  21.458  0.00  0.00    +0.000 HD
BRANCH  25  33
ATOM     29  C   UNL     1       1.428  11.916  19.496  0.00  0.00    +0.000 A 
ATOM     30  C   UNL     1       0.717  12.140  20.681  0.00  0.00    +0.000 A 
ATOM     31  C   UNL     1       0.335  11.062  21.473  0.00  0.00    +0.000 A 
ATOM     32  C   UNL     1       0.663   9.764  21.078  0.00  0.00    +0.000 A 
ATOM     33  C   UNL     1       1.380   9.521  19.893  0.00  0.00    +0.000 A 
ATOM     34  C   UNL     1       1.760  10.609  19.098  0.00  0.00    +0.000 A 
BRANCH  29  36
ATOM     35  N   UNL     1       2.133  13.923  18.021  0.00  0.00    +0.000 NA
ATOM     36  C   UNL     1       1.821  13.035  18.679  0.00  0.00    +0.000 C 
ENDBRANCH  29  36
ENDBRANCH  25  33
ENDBRANCH   1  27
TORSDOF 5
ENDMDL
MODEL 8
REMARK VINA RESULT:      -8.2      4.801      9.584
REMARK  Name = 
REMARK  5 active torsions:
REMARK  status: ('A' for Active; 'I' for Inactive)
REMARK    1  A    between atoms: C_2  and  C_3
REMARK    2  A    between atoms: C_7  and  C_8
REMARK    3  A    between atoms: N_10  and  C_11
REMARK    4  A    between atoms: C_17  and  N_18
REMARK    5  A    between atoms: C_26  and  C_28
REMARK                            x       y       z     vdW  Elec       q    Type
REMARK                         _______ _______ _______ _____ _____    ______ ____
ROOT
ATOM      1  C   UNL     1       1.886   6.376  20.090  0.00  0.00    +0.000 A 
ATOM      2  C   UNL     1       1.045   5.458  20.746  0.00  0.00    +0.000 A 
ATOM      3  C   UNL     1       1.445   4.141  20.988  0.00  0.00    +0.000 A 
ATOM      4  C   UNL     1       2.690   3.744  20.544  0.00  0.00    +0.000 A 
ATOM      5  C   UNL     1       3.530   4.633  19.865  0.00  0.00    +0.000 A 
ATOM      6  C   UNL     1       3.140   5.953  19.640  0.00  0.00    +0.000 A 
ATOM      7  C   UNL     1       4.835   3.958  19.511  0.00  0.00    +0.000 C 
ATOM      8  C   UNL     1       4.456   2.466  19.675  0.00  0.00    +0.000 C 
ATOM      9  C   UNL     1       3.346   2.413  20.736  0.00  0.00    +0.000 C 
ENDROOT
BRANCH   7  10
ATOM     10  N   UNL     1       5.416   4.353  18.231  0.00  0.00    +0.000 NA
ATOM     11  C   UNL     1       4.440   4.439  17.123  0.00  0.00    +0.000 C 
ATOM     12  C   UNL     1       5.066   5.013  15.813  0.00  0.00    +0.000 C 
ATOM     13  C   UNL     1       5.080   6.577  15.773  0.00  0.00    +0.000 C 
ATOM     14  C   UNL     1       6.509   6.981  16.203  0.00  0.00    +0.000 C 
ATOM     15  C   UNL     1       7.016   5.675  16.809  0.00  0.00    +0.000 C 
ATOM     16  C   UNL     1       6.294   5.529  18.214  0.00  0.00    +0.000 C 
ATOM     17  N   UNL     1       6.486   4.712  15.799  0.00  0.00    +0.000 N 
ATOM     18  C   UNL     1       7.090   4.622  14.533  0.00  0.00    +0.000 C 
ATOM     19  O   UNL     1       8.039   5.347  14.218  0.00  0.00    +0.000 OA
BRANCH  18  20
ATOM     20  C   UNL     1       6.463   3.686  13.506  0.00  0.00    +0.000 C 
ATOM     21  C   UNL     1       5.011   3.957  13.082  0.00  0.00    +0.000 C 
ATOM     22  C   UNL     1       4.897   3.172  11.778  0.00  0.00    +0.000 C 
ATOM     23  C   UNL     1       6.233   3.393  11.085  0.00  0.00    +0.000 C 
ATOM     24  C   UNL     1       7.233   3.723  12.192  0.00  0.00    +0.000 C 
ENDBRANCH  18  20
ENDBRANCH   7  10
BRANCH   1  27
ATOM     25  C   UNL     1       1.145   8.592  20.897  0.00  0.00    +0.000 C 
ATOM     26  O   UNL     1       1.127   8.302  22.092  0.00  0.00    +0.000 OA
ATOM     27  N   UNL     1       1.509   7.729  19.874  0.00  0.00    +0.000 N 
ATOM     28  H   UNL     1       1.728   8.110  18.963  0.00  0.00    +0.000 HD
BRANCH  25  33
ATOM     29  C   UNL     1       0.169  12.288  21.063  0.00  0.00    +0.000 A 
ATOM     30  C   UNL     1       0.378  12.664  19.731  0.00  0.00    +0.000 A 
ATOM     31  C   UNL     1       0.812  11.720  18.806  0.00  0.00    +0.000 A 
ATOM     32  C   UNL     1       1.037  10.404  19.215  0.00  0.00    +0.000 A 
ATOM     33  C   UNL     1       0.828  10.009  20.549  0.00  0.00    +0.000 A 
ATOM     34  C   UNL     1       0.394  10.963  21.477  0.00  0.00    +0.000 A 
BRANCH  29  36
ATOM     35  N   UNL     1      -0.642  14.055  22.772  0.00  0.00    +0.000 NA
ATOM     36  C   UNL     1      -0.280  13.269  22.017  0.00  0.00    +0.000 C 
ENDBRANCH  29  36
ENDBRANCH  25  33
ENDBRANCH   1  27
TORSDOF 5
ENDMDL
MODEL 9
REMARK VINA RESULT:      -8.2      2.652      6.560
REMARK  Name = 
REMARK  5 active torsions:
REMARK  status: ('A' for Active; 'I' for Inactive)
REMARK    1  A    between atoms: C_2  and  C_3
REMARK    2  A    between atoms: C_7  and  C_8
REMARK    3  A    between atoms: N_10  and  C_11
REMARK    4  A    between atoms: C_17  and  N_18
REMARK    5  A    between atoms: C_26  and  C_28
REMARK                            x       y       z     vdW  Elec       q    Type
REMARK                         _______ _______ _______ _____ _____    ______ ____
ROOT
ATOM      1  C   UNL     1       9.812  10.977  19.565  0.00  0.00    +0.000 A 
ATOM      2  C   UNL     1      11.186  11.234  19.399  0.00  0.00    +0.000 A 
ATOM      3  C   UNL     1      11.730  12.497  19.645  0.00  0.00    +0.000 A 
ATOM      4  C   UNL     1      10.879  13.511  20.039  0.00  0.00    +0.000 A 
ATOM      5  C   UNL     1       9.507  13.283  20.182  0.00  0.00    +0.000 A 
ATOM      6  C   UNL     1       8.964  12.019  19.955  0.00  0.00    +0.000 A 
ATOM      7  C   UNL     1       8.809  14.543  20.641  0.00  0.00    +0.000 C 
ATOM      8  C   UNL     1       9.877  15.614  20.310  0.00  0.00    +0.000 C 
ATOM      9  C   UNL     1      11.241  14.914  20.407  0.00  0.00    +0.000 C 
ENDROOT
BRANCH   7  10
ATOM     10  N   UNL     1       7.472  14.753  20.093  0.00  0.00    +0.000 NA
ATOM     11  C   UNL     1       6.394  14.748  21.105  0.00  0.00    +0.000 C 
ATOM     12  C   UNL     1       5.004  15.130  20.506  0.00  0.00    +0.000 C 
ATOM     13  C   UNL     1       4.771  16.675  20.430  0.00  0.00    +0.000 C 
ATOM     14  C   UNL     1       5.103  17.063  18.970  0.00  0.00    +0.000 C 
ATOM     15  C   UNL     1       5.848  15.819  18.495  0.00  0.00    +0.000 C 
ATOM     16  C   UNL     1       7.283  15.878  19.170  0.00  0.00    +0.000 C 
ATOM     17  N   UNL     1       4.982  14.766  19.101  0.00  0.00    +0.000 N 
ATOM     18  C   UNL     1       3.718  14.495  18.549  0.00  0.00    +0.000 C 
ATOM     19  O   UNL     1       3.286  15.132  17.584  0.00  0.00    +0.000 OA
BRANCH  18  20
ATOM     20  C   UNL     1       2.835  13.471  19.252  0.00  0.00    +0.000 C 
ATOM     21  C   UNL     1       1.513  13.962  19.864  0.00  0.00    +0.000 C 
ATOM     22  C   UNL     1       0.729  12.665  20.039  0.00  0.00    +0.000 C 
ATOM     23  C   UNL     1       1.050  11.856  18.791  0.00  0.00    +0.000 C 
ATOM     24  C   UNL     1       2.397  12.374  18.289  0.00  0.00    +0.000 C 
ENDBRANCH  18  20
ENDBRANCH   7  10
BRANCH   1  27
ATOM     25  C   UNL     1       8.448   9.372  18.271  0.00  0.00    +0.000 C 
ATOM     26  O   UNL     1       8.149  10.147  17.365  0.00  0.00    +0.000 OA
ATOM     27  N   UNL     1       9.252   9.688  19.357  0.00  0.00    +0.000 N 
ATOM     28  H   UNL     1       9.640   8.940  19.916  0.00  0.00    +0.000 HD
BRANCH  25  33
ATOM     29  C   UNL     1       6.832   6.149  16.988  0.00  0.00    +0.000 A 
ATOM     30  C   UNL     1       7.244   5.250  17.979  0.00  0.00    +0.000 A 
ATOM     31  C   UNL     1       8.017   5.700  19.044  0.00  0.00    +0.000 A 
ATOM     32  C   UNL     1       8.378   7.046  19.116  0.00  0.00    +0.000 A 
ATOM     33  C   UNL     1       7.969   7.964  18.131  0.00  0.00    +0.000 A 
ATOM     34  C   UNL     1       7.194   7.506  17.059  0.00  0.00    +0.000 A 
BRANCH  29  36
ATOM     35  N   UNL     1       5.400   5.307  15.003  0.00  0.00    +0.000 NA
ATOM     36  C   UNL     1       6.033   5.678  15.887  0.00  0.00    +0.000 C 
ENDBRANCH  29  36
ENDBRANCH  25  33
ENDBRANCH   1  27
TORSDOF 5
ENDMDL
