MODEL 1
REMARK VINA RESULT:      -8.4      0.000      0.000
REMARK  Name = 
REMARK  6 active torsions:
REMARK  status: ('A' for Active; 'I' for Inactive)
REMARK    1  A    between atoms: O_1  and  C_2
REMARK    2  A    between atoms: C_6  and  C_7
REMARK    3  A    between atoms: C_9  and  N_10
REMARK    4  A    between atoms: N_18  and  C_19
REMARK    5  A    between atoms: C_19  and  C_20
REMARK    6  A    between atoms: C_20  and  C_21
REMARK                            x       y       z     vdW  Elec       q    Type
REMARK                         _______ _______ _______ _____ _____    ______ ____
ROOT
ATOM      1  C   UNL     1       2.529   7.362  18.492  0.00  0.00    +0.000 A 
ATOM      2  C   UNL     1       2.265   6.083  18.942  0.00  0.00    +0.000 A 
ATOM      3  C   UNL     1       3.032   5.044  18.462  0.00  0.00    +0.000 A 
ATOM      4  N   UNL     1       3.949   5.289  17.514  0.00  0.00    +0.000 NA
ATOM      5  C   UNL     1       4.140   6.551  17.097  0.00  0.00    +0.000 A 
ATOM      6  N   UNL     1       4.976   6.812  16.024  0.00  0.00    +0.000 N 
ATOM      7  N   UNL     1       3.502   7.606  17.598  0.00  0.00    +0.000 NA
ATOM      8  H   UNL     1       5.734   7.403  16.337  0.00  0.00    +0.000 HD
ENDROOT
BRANCH   1  13
ATOM      9  C   UNL     1       0.494   9.749  20.623  0.00  0.00    +0.000 A 
ATOM     10  C   UNL     1       0.068  10.689  19.694  0.00  0.00    +0.000 A 
ATOM     11  C   UNL     1       0.472  10.558  18.365  0.00  0.00    +0.000 A 
ATOM     12  C   UNL     1       1.286   9.486  17.980  0.00  0.00    +0.000 A 
ATOM     13  C   UNL     1       1.715   8.521  18.910  0.00  0.00    +0.000 A 
ATOM     14  C   UNL     1       1.308   8.686  20.246  0.00  0.00    +0.000 A 
BRANCH   9  15
ATOM     15  O   UNL     1       0.132   9.823  21.933  0.00  0.00    +0.000 OA
ATOM     16  H   UNL     1       0.312   8.966  22.351  0.00  0.00    +0.000 HD
ENDBRANCH   9  15
ENDBRANCH   1  13
BRANCH   3  17
ATOM     17  N   UNL     1       2.818   3.743  18.878  0.00  0.00    +0.000 N 
ATOM     18  C   UNL     1       1.610   2.982  18.523  0.00  0.00    +0.000 C 
ATOM     19  C   UNL     1       0.760   2.689  19.770  0.00  0.00    +0.000 C 
ATOM     20  O   UNL     1       1.530   2.062  20.805  0.00  0.00    +0.000 OA
ATOM     21  C   UNL     1       2.610   2.925  21.203  0.00  0.00    +0.000 C 
ATOM     22  C   UNL     1       3.558   3.209  20.030  0.00  0.00    +0.000 C 
ENDBRANCH   3  17
BRANCH   6  23
ATOM     23  C   UNL     1       5.333   5.686  15.172  0.00  0.00    +0.000 C 
BRANCH  23  24
ATOM     24  C   UNL     1       6.767   5.232  15.479  0.00  0.00    +0.000 C 
BRANCH  24  25
ATOM     25  C   UNL     1       7.279   5.790  16.776  0.00  0.00    +0.000 A 
ATOM     26  C   UNL     1       7.457   4.960  17.880  0.00  0.00    +0.000 A 
ATOM     27  C   UNL     1       7.979   5.501  19.051  0.00  0.00    +0.000 A 
ATOM     28  C   UNL     1       8.313   6.850  19.086  0.00  0.00    +0.000 A 
ATOM     29  C   UNL     1       8.107   7.603  17.944  0.00  0.00    +0.000 A 
ATOM     30  N   UNL     1       7.597   7.107  16.797  0.00  0.00    +0.000 NA
ENDBRANCH  24  25
ENDBRANCH  23  24
ENDBRANCH   6  23
TORSDOF 6
ENDMDL
MODEL 2
REMARK VINA RESULT:      -8.4      0.731      1.105
REMARK  Name = 
REMARK  6 active torsions:
REMARK  status: ('A' for Active; 'I' for Inactive)
REMARK    1  A    between atoms: O_1  and  C_2
REMARK    2  A    between atoms: C_6  and  C_7
REMARK    3  A    between atoms: C_9  and  N_10
REMARK    4  A    between atoms: N_18  and  C_19
REMARK    5  A    between atoms: C_19  and  C_20
REMARK    6  A    between atoms: C_20  and  C_21
REMARK                            x       y       z     vdW  Elec       q    Type
REMARK                         _______ _______ _______ _____ _____    ______ ____
ROOT
ATOM      1  C   UNL     1       2.365   7.652  18.885  0.00  0.00    +0.000 A 
ATOM      2  C   UNL     1       2.153   6.419  19.472  0.00  0.00    +0.000 A 
ATOM      3  C   UNL     1       2.910   5.349  19.048  0.00  0.00    +0.000 A 
ATOM      4  N   UNL     1       3.764   5.513  18.026  0.00  0.00    +0.000 NA
ATOM      5  C   UNL     1       3.905   6.731  17.479  0.00  0.00    +0.000 A 
ATOM      6  N   UNL     1       4.670   6.897  16.336  0.00  0.00    +0.000 N 
ATOM      7  N   UNL     1       3.278   7.821  17.914  0.00  0.00    +0.000 NA
ATOM      8  H   UNL     1       5.434   7.526  16.544  0.00  0.00    +0.000 HD
ENDROOT
BRANCH   1  13
ATOM      9  C   UNL     1       0.500  10.262  20.907  0.00  0.00    +0.000 A 
ATOM     10  C   UNL     1      -0.082  11.044  19.919  0.00  0.00    +0.000 A 
ATOM     11  C   UNL     1       0.159  10.734  18.581  0.00  0.00    +0.000 A 
ATOM     12  C   UNL     1       0.968   9.642  18.247  0.00  0.00    +0.000 A 
ATOM     13  C   UNL     1       1.556   8.835  19.239  0.00  0.00    +0.000 A 
ATOM     14  C   UNL     1       1.311   9.180  20.581  0.00  0.00    +0.000 A 
BRANCH   9  15
ATOM     15  O   UNL     1       0.301  10.515  22.230  0.00  0.00    +0.000 OA
ATOM     16  H   UNL     1       0.171  11.470  22.344  0.00  0.00    +0.000 HD
ENDBRANCH   9  15
ENDBRANCH   1  13
BRANCH   3  17
ATOM     17  N   UNL     1       2.747   4.092  19.599  0.00  0.00    +0.000 N 
ATOM     18  C   UNL     1       3.729   3.011  19.424  0.00  0.00    +0.000 C 
ATOM     19  C   UNL     1       3.138   1.862  18.592  0.00  0.00    +0.000 C 
ATOM     20  O   UNL     1       1.890   1.400  19.129  0.00  0.00    +0.000 OA
ATOM     21  C   UNL     1       0.933   2.474  19.136  0.00  0.00    +0.000 C 
ATOM     22  C   UNL     1       1.410   3.640  20.012  0.00  0.00    +0.000 C 
ENDBRANCH   3  17
BRANCH   6  23
ATOM     23  C   UNL     1       4.997   5.698  15.577  0.00  0.00    +0.000 C 
BRANCH  23  24
ATOM     24  C   UNL     1       6.506   5.425  15.654  0.00  0.00    +0.000 C 
BRANCH  24  25
ATOM     25  C   UNL     1       7.131   6.012  16.888  0.00  0.00    +0.000 A 
ATOM     26  C   UNL     1       7.368   5.215  18.006  0.00  0.00    +0.000 A 
ATOM     27  C   UNL     1       7.993   5.780  19.113  0.00  0.00    +0.000 A 
ATOM     28  C   UNL     1       8.368   7.118  19.073  0.00  0.00    +0.000 A 
ATOM     29  C   UNL     1       8.098   7.837  17.922  0.00  0.00    +0.000 A 
ATOM     30  N   UNL     1       7.488   7.318  16.836  0.00  0.00    +0.000 NA
ENDBRANCH  24  25
ENDBRANCH  23  24
ENDBRANCH   6  23
TORSDOF 6
ENDMDL
MODEL 3
REMARK VINA RESULT:      -8.3      1.199      1.545
REMARK  Name = 
REMARK  6 active torsions:
REMARK  status: ('A' for Active; 'I' for Inactive)
REMARK    1  A    between atoms: O_1  and  C_2
REMARK    2  A    between atoms: C_6  and  C_7
REMARK    3  A    between atoms: C_9  and  N_10
REMARK    4  A    between atoms: N_18  and  C_19
REMARK    5  A    between atoms: C_19  and  C_20
REMARK    6  A    between atoms: C_20  and  C_21
REMARK                            x       y       z     vdW  Elec       q    Type
REMARK                         _______ _______ _______ _____ _____    ______ ____
ROOT
ATOM      1  C   UNL     1       2.384   7.703  18.663  0.00  0.00    +0.000 A 
ATOM      2  C   UNL     1       2.042   6.480  19.208  0.00  0.00    +0.000 A 
ATOM      3  C   UNL     1       2.739   5.362  18.806  0.00  0.00    +0.000 A 
ATOM      4  N   UNL     1       3.663   5.478  17.840  0.00  0.00    +0.000 NA
ATOM      5  C   UNL     1       3.931   6.691  17.331  0.00  0.00    +0.000 A 
ATOM      6  N   UNL     1       4.775   6.817  16.239  0.00  0.00    +0.000 N 
ATOM      7  N   UNL     1       3.364   7.818  17.753  0.00  0.00    +0.000 NA
ATOM      8  H   UNL     1       5.571   7.381  16.507  0.00  0.00    +0.000 HD
ENDROOT
BRANCH   1  13
ATOM      9  C   UNL     1       1.158  11.291  18.593  0.00  0.00    +0.000 A 
ATOM     10  C   UNL     1       0.315  11.340  19.695  0.00  0.00    +0.000 A 
ATOM     11  C   UNL     1       0.123  10.183  20.451  0.00  0.00    +0.000 A 
ATOM     12  C   UNL     1       0.782   8.999  20.104  0.00  0.00    +0.000 A 
ATOM     13  C   UNL     1       1.647   8.940  18.996  0.00  0.00    +0.000 A 
ATOM     14  C   UNL     1       1.811  10.114  18.240  0.00  0.00    +0.000 A 
BRANCH   9  15
ATOM     15  O   UNL     1       1.385  12.386  17.818  0.00  0.00    +0.000 OA
ATOM     16  H   UNL     1       2.306  12.361  17.511  0.00  0.00    +0.000 HD
ENDBRANCH   9  15
ENDBRANCH   1  13
BRANCH   3  17
ATOM     17  N   UNL     1       2.445   4.112  19.317  0.00  0.00    +0.000 N 
ATOM     18  C   UNL     1       1.450   3.899  20.379  0.00  0.00    +0.000 C 
ATOM     19  C   UNL     1       2.122   3.403  21.669  0.00  0.00    +0.000 C 
ATOM     20  O   UNL     1       2.943   2.250  21.435  0.00  0.00    +0.000 OA
ATOM     21  C   UNL     1       3.983   2.573  20.495  0.00  0.00    +0.000 C 
ATOM     22  C   UNL     1       3.398   3.006  19.144  0.00  0.00    +0.000 C 
ENDBRANCH   3  17
BRANCH   6  23
ATOM     23  C   UNL     1       5.055   5.611  15.474  0.00  0.00    +0.000 C 
BRANCH  23  24
ATOM     24  C   UNL     1       6.520   5.196  15.667  0.00  0.00    +0.000 C 
BRANCH  24  25
ATOM     25  C   UNL     1       7.134   5.818  16.889  0.00  0.00    +0.000 A 
ATOM     26  C   UNL     1       7.328   5.062  18.044  0.00  0.00    +0.000 A 
ATOM     27  C   UNL     1       7.944   5.657  19.140  0.00  0.00    +0.000 A 
ATOM     28  C   UNL     1       8.353   6.983  19.054  0.00  0.00    +0.000 A 
ATOM     29  C   UNL     1       8.125   7.660  17.869  0.00  0.00    +0.000 A 
ATOM     30  N   UNL     1       7.524   7.111  16.792  0.00  0.00    +0.000 NA
ENDBRANCH  24  25
ENDBRANCH  23  24
ENDBRANCH   6  23
TORSDOF 6
ENDMDL
MODEL 4
REMARK VINA RESULT:      -8.3      1.182      1.812
REMARK  Name = 
REMARK  6 active torsions:
REMARK  status: ('A' for Active; 'I' for Inactive)
REMARK    1  A    between atoms: O_1  and  C_2
REMARK    2  A    between atoms: C_6  and  C_7
REMARK    3  A    between atoms: C_9  and  N_10
REMARK    4  A    between atoms: N_18  and  C_19
REMARK    5  A    between atoms: C_19  and  C_20
REMARK    6  A    between atoms: C_20  and  C_21
REMARK                            x       y       z     vdW  Elec       q    Type
REMARK                         _______ _______ _______ _____ _____    ______ ____
ROOT
ATOM      1  C   UNL     1       2.409   7.352  18.840  0.00  0.00    +0.000 A 
ATOM      2  C   UNL     1       2.168   6.055  19.253  0.00  0.00    +0.000 A 
ATOM      3  C   UNL     1       2.932   5.042  18.719  0.00  0.00    +0.000 A 
ATOM      4  N   UNL     1       3.821   5.327  17.757  0.00  0.00    +0.000 NA
ATOM      5  C   UNL     1       3.991   6.605  17.379  0.00  0.00    +0.000 A 
ATOM      6  N   UNL     1       4.796   6.910  16.294  0.00  0.00    +0.000 N 
ATOM      7  N   UNL     1       3.356   7.636  17.932  0.00  0.00    +0.000 NA
ATOM      8  H   UNL     1       5.557   7.497  16.608  0.00  0.00    +0.000 HD
ENDROOT
BRANCH   1  13
ATOM      9  C   UNL     1       0.550  10.655  18.944  0.00  0.00    +0.000 A 
ATOM     10  C   UNL     1       0.125  10.717  20.264  0.00  0.00    +0.000 A 
ATOM     11  C   UNL     1       0.424   9.658  21.121  0.00  0.00    +0.000 A 
ATOM     12  C   UNL     1       1.151   8.558  20.652  0.00  0.00    +0.000 A 
ATOM     13  C   UNL     1       1.596   8.488  19.319  0.00  0.00    +0.000 A 
ATOM     14  C   UNL     1       1.267   9.561  18.471  0.00  0.00    +0.000 A 
BRANCH   9  15
ATOM     15  O   UNL     1       0.289  11.658  18.061  0.00  0.00    +0.000 OA
ATOM     16  H   UNL     1      -0.009  12.436  18.558  0.00  0.00    +0.000 HD
ENDBRANCH   9  15
ENDBRANCH   1  13
BRANCH   3  17
ATOM     17  N   UNL     1       2.739   3.725  19.095  0.00  0.00    +0.000 N 
ATOM     18  C   UNL     1       3.299   3.160  20.332  0.00  0.00    +0.000 C 
ATOM     19  C   UNL     1       4.360   2.093  20.017  0.00  0.00    +0.000 C 
ATOM     20  O   UNL     1       3.859   1.090  19.123  0.00  0.00    +0.000 OA
ATOM     21  C   UNL     1       3.464   1.695  17.879  0.00  0.00    +0.000 C 
ATOM     22  C   UNL     1       2.346   2.725  18.091  0.00  0.00    +0.000 C 
ENDBRANCH   3  17
BRANCH   6  23
ATOM     23  C   UNL     1       5.141   5.817  15.396  0.00  0.00    +0.000 C 
BRANCH  23  24
ATOM     24  C   UNL     1       6.586   5.365  15.652  0.00  0.00    +0.000 C 
BRANCH  24  25
ATOM     25  C   UNL     1       7.177   6.006  16.875  0.00  0.00    +0.000 A 
ATOM     26  C   UNL     1       7.459   5.243  18.006  0.00  0.00    +0.000 A 
ATOM     27  C   UNL     1       8.052   5.862  19.102  0.00  0.00    +0.000 A 
ATOM     28  C   UNL     1       8.352   7.217  19.038  0.00  0.00    +0.000 A 
ATOM     29  C   UNL     1       8.042   7.900  17.875  0.00  0.00    +0.000 A 
ATOM     30  N   UNL     1       7.461   7.329  16.799  0.00  0.00    +0.000 NA
ENDBRANCH  24  25
ENDBRANCH  23  24
ENDBRANCH   6  23
TORSDOF 6
ENDMDL
MODEL 5
REMARK VINA RESULT:      -8.2      1.816      2.896
REMARK  Name = 
REMARK  6 active torsions:
REMARK  status: ('A' for Active; 'I' for Inactive)
REMARK    1  A    between atoms: O_1  and  C_2
REMARK    2  A    between atoms: C_6  and  C_7
REMARK    3  A    between atoms: C_9  and  N_10
REMARK    4  A    between atoms: N_18  and  C_19
REMARK    5  A    between atoms: C_19  and  C_20
REMARK    6  A    between atoms: C_20  and  C_21
REMARK                            x       y       z     vdW  Elec       q    Type
REMARK                         _______ _______ _______ _____ _____    ______ ____
ROOT
ATOM      1  C   UNL     1       2.158   7.438  19.817  0.00  0.00    +0.000 A 
ATOM      2  C   UNL     1       1.895   6.139  20.207  0.00  0.00    +0.000 A 
ATOM      3  C   UNL     1       2.575   5.115  19.586  0.00  0.00    +0.000 A 
ATOM      4  N   UNL     1       3.404   5.398  18.570  0.00  0.00    +0.000 NA
ATOM      5  C   UNL     1       3.597   6.680  18.219  0.00  0.00    +0.000 A 
ATOM      6  N   UNL     1       4.333   6.990  17.088  0.00  0.00    +0.000 N 
ATOM      7  N   UNL     1       3.047   7.716  18.849  0.00  0.00    +0.000 NA
ATOM      8  H   UNL     1       5.138   7.537  17.362  0.00  0.00    +0.000 HD
ENDROOT
BRANCH   1  13
ATOM      9  C   UNL     1       0.491   9.766  22.304  0.00  0.00    +0.000 A 
ATOM     10  C   UNL     1      -0.056  10.740  21.480  0.00  0.00    +0.000 A 
ATOM     11  C   UNL     1       0.144  10.651  20.102  0.00  0.00    +0.000 A 
ATOM     12  C   UNL     1       0.878   9.587  19.565  0.00  0.00    +0.000 A 
ATOM     13  C   UNL     1       1.430   8.588  20.389  0.00  0.00    +0.000 A 
ATOM     14  C   UNL     1       1.227   8.710  21.776  0.00  0.00    +0.000 A 
BRANCH   9  15
ATOM     15  O   UNL     1       0.329   9.798  23.655  0.00  0.00    +0.000 OA
ATOM     16  H   UNL     1       0.569   8.930  24.015  0.00  0.00    +0.000 HD
ENDBRANCH   9  15
ENDBRANCH   1  13
BRANCH   3  17
ATOM     17  N   UNL     1       2.357   3.795  19.935  0.00  0.00    +0.000 N 
ATOM     18  C   UNL     1       3.402   2.763  19.840  0.00  0.00    +0.000 C 
ATOM     19  C   UNL     1       3.046   1.719  18.769  0.00  0.00    +0.000 C 
ATOM     20  O   UNL     1       1.736   1.170  18.973  0.00  0.00    +0.000 OA
ATOM     21  C   UNL     1       0.752   2.216  18.909  0.00  0.00    +0.000 C 
ATOM     22  C   UNL     1       0.986   3.270  20.001  0.00  0.00    +0.000 C 
ENDBRANCH   3  17
BRANCH   6  23
ATOM     23  C   UNL     1       4.566   5.916  16.133  0.00  0.00    +0.000 C 
BRANCH  23  24
ATOM     24  C   UNL     1       6.070   5.619  16.036  0.00  0.00    +0.000 C 
BRANCH  24  25
ATOM     25  C   UNL     1       6.451   5.027  14.710  0.00  0.00    +0.000 A 
ATOM     26  C   UNL     1       5.636   4.077  14.100  0.00  0.00    +0.000 A 
ATOM     27  C   UNL     1       5.996   3.586  12.849  0.00  0.00    +0.000 A 
ATOM     28  C   UNL     1       7.151   4.061  12.239  0.00  0.00    +0.000 A 
ATOM     29  C   UNL     1       7.903   5.008  12.912  0.00  0.00    +0.000 A 
ATOM     30  N   UNL     1       7.582   5.496  14.129  0.00  0.00    +0.000 NA
ENDBRANCH  24  25
ENDBRANCH  23  24
ENDBRANCH   6  23
TORSDOF 6
ENDMDL
MODEL 6
REMARK VINA RESULT:      -8.1      1.981      3.160
REMARK  Name = 
REMARK  6 active torsions:
REMARK  status: ('A' for Active; 'I' for Inactive)
REMARK    1  A    between atoms: O_1  and  C_2
REMARK    2  A    between atoms: C_6  and  C_7
REMARK    3  A    between atoms: C_9  and  N_10
REMARK    4  A    between atoms: N_18  and  C_19
REMARK    5  A    between atoms: C_19  and  C_20
REMARK    6  A    between atoms: C_20  and  C_21
REMARK                            x       y       z     vdW  Elec       q    Type
REMARK                         _______ _______ _______ _____ _____    ______ ____
ROOT
ATOM      1  C   UNL     1       2.445   7.970  18.763  0.00  0.00    +0.000 A 
ATOM      2  C   UNL     1       2.060   6.894  19.541  0.00  0.00    +0.000 A 
ATOM      3  C   UNL     1       2.718   5.696  19.378  0.00  0.00    +0.000 A 
ATOM      4  N   UNL     1       3.648   5.582  18.418  0.00  0.00    +0.000 NA
ATOM      5  C   UNL     1       3.959   6.657  17.675  0.00  0.00    +0.000 A 
ATOM      6  N   UNL     1       4.808   6.532  16.588  0.00  0.00    +0.000 N 
ATOM      7  N   UNL     1       3.430   7.865  17.856  0.00  0.00    +0.000 NA
ATOM      8  H   UNL     1       5.623   7.111  16.743  0.00  0.00    +0.000 HD
ENDROOT
BRANCH   1  13
ATOM      9  C   UNL     1       1.586  11.623  18.220  0.00  0.00    +0.000 A 
ATOM     10  C   UNL     1       0.484  11.797  19.045  0.00  0.00    +0.000 A 
ATOM     11  C   UNL     1      -0.001  10.704  19.764  0.00  0.00    +0.000 A 
ATOM     12  C   UNL     1       0.627   9.458  19.658  0.00  0.00    +0.000 A 
ATOM     13  C   UNL     1       1.751   9.272  18.832  0.00  0.00    +0.000 A 
ATOM     14  C   UNL     1       2.210  10.385  18.105  0.00  0.00    +0.000 A 
BRANCH   9  15
ATOM     15  O   UNL     1       2.105  12.652  17.494  0.00  0.00    +0.000 OA
ATOM     16  H   UNL     1       2.882  12.998  17.962  0.00  0.00    +0.000 HD
ENDBRANCH   9  15
ENDBRANCH   1  13
BRANCH   3  17
ATOM     17  N   UNL     1       2.381   4.585  20.129  0.00  0.00    +0.000 N 
ATOM     18  C   UNL     1       3.308   3.466  20.358  0.00  0.00    +0.000 C 
ATOM     19  C   UNL     1       2.800   2.185  19.676  0.00  0.00    +0.000 C 
ATOM     20  O   UNL     1       1.451   1.878  20.055  0.00  0.00    +0.000 OA
ATOM     21  C   UNL     1       0.578   2.954  19.671  0.00  0.00    +0.000 C 
ATOM     22  C   UNL     1       0.967   4.264  20.370  0.00  0.00    +0.000 C 
ENDBRANCH   3  17
BRANCH   6  23
ATOM     23  C   UNL     1       5.047   5.187  16.085  0.00  0.00    +0.000 C 
BRANCH  23  24
ATOM     24  C   UNL     1       6.547   4.982  15.831  0.00  0.00    +0.000 C 
BRANCH  24  25
ATOM     25  C   UNL     1       6.854   4.736  14.382  0.00  0.00    +0.000 A 
ATOM     26  C   UNL     1       6.155   3.766  13.667  0.00  0.00    +0.000 A 
ATOM     27  C   UNL     1       6.432   3.599  12.314  0.00  0.00    +0.000 A 
ATOM     28  C   UNL     1       7.391   4.406  11.712  0.00  0.00    +0.000 A 
ATOM     29  C   UNL     1       8.036   5.347  12.494  0.00  0.00    +0.000 A 
ATOM     30  N   UNL     1       7.793   5.527  13.809  0.00  0.00    +0.000 NA
ENDBRANCH  24  25
ENDBRANCH  23  24
ENDBRANCH   6  23
TORSDOF 6
ENDMDL
MODEL 7
REMARK VINA RESULT:      -8.0      1.895      3.048
REMARK  Name = 
REMARK  6 active torsions:
REMARK  status: ('A' for Active; 'I' for Inactive)
REMARK    1  A    between atoms: O_1  and  C_2
REMARK    2  A    between atoms: C_6  and  C_7
REMARK    3  A    between atoms: C_9  and  N_10
REMARK    4  A    between atoms: N_18  and  C_19
REMARK    5  A    between atoms: C_19  and  C_20
REMARK    6  A    between atoms: C_20  and  C_21
REMARK                            x       y       z     vdW  Elec       q    Type
REMARK                         _______ _______ _______ _____ _____    ______ ____
ROOT
ATOM      1  C   UNL     1       2.299   7.463  19.245  0.00  0.00    +0.000 A 
ATOM      2  C   UNL     1       1.974   6.224  19.762  0.00  0.00    +0.000 A 
ATOM      3  C   UNL     1       2.673   5.123  19.322  0.00  0.00    +0.000 A 
ATOM      4  N   UNL     1       3.583   5.270  18.347  0.00  0.00    +0.000 NA
ATOM      5  C   UNL     1       3.836   6.497  17.865  0.00  0.00    +0.000 A 
ATOM      6  N   UNL     1       4.663   6.658  16.766  0.00  0.00    +0.000 N 
ATOM      7  N   UNL     1       3.266   7.609  18.324  0.00  0.00    +0.000 NA
ATOM      8  H   UNL     1       5.459   7.221  17.037  0.00  0.00    +0.000 HD
ENDROOT
BRANCH   1  13
ATOM      9  C   UNL     1       0.659  10.877  19.056  0.00  0.00    +0.000 A 
ATOM     10  C   UNL     1       0.229  11.074  20.361  0.00  0.00    +0.000 A 
ATOM     11  C   UNL     1       0.452  10.072  21.305  0.00  0.00    +0.000 A 
ATOM     12  C   UNL     1       1.109   8.892  20.937  0.00  0.00    +0.000 A 
ATOM     13  C   UNL     1       1.559   8.685  19.619  0.00  0.00    +0.000 A 
ATOM     14  C   UNL     1       1.307   9.704  18.683  0.00  0.00    +0.000 A 
BRANCH   9  15
ATOM     15  O   UNL     1       0.471  11.819  18.091  0.00  0.00    +0.000 OA
ATOM     16  H   UNL     1       0.904  12.640  18.374  0.00  0.00    +0.000 HD
ENDBRANCH   9  15
ENDBRANCH   1  13
BRANCH   3  17
ATOM     17  N   UNL     1       2.396   3.857  19.805  0.00  0.00    +0.000 N 
ATOM     18  C   UNL     1       1.388   3.605  20.846  0.00  0.00    +0.000 C 
ATOM     19  C   UNL     1       2.049   3.098  22.138  0.00  0.00    +0.000 C 
ATOM     20  O   UNL     1       2.896   1.966  21.896  0.00  0.00    +0.000 OA
ATOM     21  C   UNL     1       3.944   2.326  20.979  0.00  0.00    +0.000 C 
ATOM     22  C   UNL     1       3.373   2.773  19.626  0.00  0.00    +0.000 C 
ENDBRANCH   3  17
BRANCH   6  23
ATOM     23  C   UNL     1       4.941   5.474  15.965  0.00  0.00    +0.000 C 
BRANCH  23  24
ATOM     24  C   UNL     1       6.452   5.348  15.725  0.00  0.00    +0.000 C 
BRANCH  24  25
ATOM     25  C   UNL     1       6.773   4.892  14.331  0.00  0.00    +0.000 A 
ATOM     26  C   UNL     1       6.024   3.884  13.727  0.00  0.00    +0.000 A 
ATOM     27  C   UNL     1       6.319   3.521  12.417  0.00  0.00    +0.000 A 
ATOM     28  C   UNL     1       7.344   4.176  11.744  0.00  0.00    +0.000 A 
ATOM     29  C   UNL     1       8.036   5.169  12.416  0.00  0.00    +0.000 A 
ATOM     30  N   UNL     1       7.777   5.537  13.689  0.00  0.00    +0.000 NA
ENDBRANCH  24  25
ENDBRANCH  23  24
ENDBRANCH   6  23
TORSDOF 6
ENDMDL
MODEL 8
REMARK VINA RESULT:      -7.9      3.707      7.021
REMARK  Name = 
REMARK  6 active torsions:
REMARK  status: ('A' for Active; 'I' for Inactive)
REMARK    1  A    between atoms: O_1  and  C_2
REMARK    2  A    between atoms: C_6  and  C_7
REMARK    3  A    between atoms: C_9  and  N_10
REMARK    4  A    between atoms: N_18  and  C_19
REMARK    5  A    between atoms: C_19  and  C_20
REMARK    6  A    between atoms: C_20  and  C_21
REMARK                            x       y       z     vdW  Elec       q    Type
REMARK                         _______ _______ _______ _____ _____    ______ ____
ROOT
ATOM      1  C   UNL     1      -1.143  10.424  18.039  0.00  0.00    +0.000 A 
ATOM      2  C   UNL     1      -1.067  10.922  19.325  0.00  0.00    +0.000 A 
ATOM      3  C   UNL     1       0.055  10.643  20.073  0.00  0.00    +0.000 A 
ATOM      4  N   UNL     1       0.996   9.831  19.568  0.00  0.00    +0.000 NA
ATOM      5  C   UNL     1       0.851   9.356  18.321  0.00  0.00    +0.000 A 
ATOM      6  N   UNL     1       1.732   8.406  17.830  0.00  0.00    +0.000 N 
ATOM      7  N   UNL     1      -0.160   9.674  17.515  0.00  0.00    +0.000 NA
ATOM      8  H   UNL     1       2.204   8.788  17.020  0.00  0.00    +0.000 HD
ENDROOT
BRANCH   1  13
ATOM      9  C   UNL     1      -3.475  10.429  15.049  0.00  0.00    +0.000 A 
ATOM     10  C   UNL     1      -4.585  11.104  15.537  0.00  0.00    +0.000 A 
ATOM     11  C   UNL     1      -4.584  11.538  16.863  0.00  0.00    +0.000 A 
ATOM     12  C   UNL     1      -3.472  11.301  17.679  0.00  0.00    +0.000 A 
ATOM     13  C   UNL     1      -2.337  10.626  17.192  0.00  0.00    +0.000 A 
ATOM     14  C   UNL     1      -2.370  10.184  15.857  0.00  0.00    +0.000 A 
BRANCH   9  15
ATOM     15  O   UNL     1      -3.418   9.982  13.764  0.00  0.00    +0.000 OA
ATOM     16  H   UNL     1      -2.513  10.103  13.436  0.00  0.00    +0.000 HD
ENDBRANCH   9  15
ENDBRANCH   1  13
BRANCH   3  17
ATOM     17  N   UNL     1       0.191  11.116  21.365  0.00  0.00    +0.000 N 
ATOM     18  C   UNL     1      -0.326  10.393  22.537  0.00  0.00    +0.000 C 
ATOM     19  C   UNL     1      -1.465  11.177  23.208  0.00  0.00    +0.000 C 
ATOM     20  O   UNL     1      -1.080  12.525  23.510  0.00  0.00    +0.000 OA
ATOM     21  C   UNL     1      -0.725  13.217  22.299  0.00  0.00    +0.000 C 
ATOM     22  C   UNL     1       0.463  12.542  21.600  0.00  0.00    +0.000 C 
ENDBRANCH   3  17
BRANCH   6  23
ATOM     23  C   UNL     1       2.561   7.706  18.800  0.00  0.00    +0.000 C 
BRANCH  23  24
ATOM     24  C   UNL     1       3.034   6.368  18.214  0.00  0.00    +0.000 C 
BRANCH  24  25
ATOM     25  C   UNL     1       2.304   5.195  18.804  0.00  0.00    +0.000 A 
ATOM     26  C   UNL     1       1.959   5.184  20.154  0.00  0.00    +0.000 A 
ATOM     27  C   UNL     1       1.240   4.104  20.655  0.00  0.00    +0.000 A 
ATOM     28  C   UNL     1       0.882   3.070  19.798  0.00  0.00    +0.000 A 
ATOM     29  C   UNL     1       1.262   3.160  18.470  0.00  0.00    +0.000 A 
ATOM     30  N   UNL     1       1.965   4.193  17.958  0.00  0.00    +0.000 NA
ENDBRANCH  24  25
ENDBRANCH  23  24
ENDBRANCH   6  23
TORSDOF 6
ENDMDL
MODEL 9
REMARK VINA RESULT:      -7.9      3.433      6.506
REMARK  Name = 
REMARK  6 active torsions:
REMARK  status: ('A' for Active; 'I' for Inactive)
REMARK    1  A    between atoms: O_1  and  C_2
REMARK    2  A    between atoms: C_6  and  C_7
REMARK    3  A    between atoms: C_9  and  N_10
REMARK    4  A    between atoms: N_18  and  C_19
REMARK    5  A    between atoms: C_19  and  C_20
REMARK    6  A    between atoms: C_20  and  C_21
REMARK                            x       y       z     vdW  Elec       q    Type
REMARK                         _______ _______ _______ _____ _____    ______ ____
ROOT
ATOM      1  C   UNL     1      -0.865  10.160  17.973  0.00  0.00    +0.000 A 
ATOM      2  C   UNL     1      -0.744  10.522  19.302  0.00  0.00    +0.000 A 
ATOM      3  C   UNL     1       0.414  10.192  19.971  0.00  0.00    +0.000 A 
ATOM      4  N   UNL     1       1.347   9.458  19.346  0.00  0.00    +0.000 NA
ATOM      5  C   UNL     1       1.159   9.113  18.062  0.00  0.00    +0.000 A 
ATOM      6  N   UNL     1       2.035   8.240  17.439  0.00  0.00    +0.000 N 
ATOM      7  N   UNL     1       0.110   9.491  17.335  0.00  0.00    +0.000 NA
ATOM      8  H   UNL     1       2.466   8.714  16.656  0.00  0.00    +0.000 HD
ENDROOT
BRANCH   1  13
ATOM      9  C   UNL     1      -3.355  10.327  15.119  0.00  0.00    +0.000 A 
ATOM     10  C   UNL     1      -4.415  11.020  15.688  0.00  0.00    +0.000 A 
ATOM     11  C   UNL     1      -4.328  11.411  17.024  0.00  0.00    +0.000 A 
ATOM     12  C   UNL     1      -3.181  11.116  17.770  0.00  0.00    +0.000 A 
ATOM     13  C   UNL     1      -2.096  10.424  17.201  0.00  0.00    +0.000 A 
ATOM     14  C   UNL     1      -2.216  10.025  15.857  0.00  0.00    +0.000 A 
BRANCH   9  15
ATOM     15  O   UNL     1      -3.382   9.920  13.820  0.00  0.00    +0.000 OA
ATOM     16  H   UNL     1      -3.553   8.964  13.801  0.00  0.00    +0.000 HD
ENDBRANCH   9  15
ENDBRANCH   1  13
BRANCH   3  17
ATOM     17  N   UNL     1       0.595  10.529  21.299  0.00  0.00    +0.000 N 
ATOM     18  C   UNL     1       1.027   9.558  22.317  0.00  0.00    +0.000 C 
ATOM     19  C   UNL     1      -0.088   9.310  23.346  0.00  0.00    +0.000 C 
ATOM     20  O   UNL     1      -0.572  10.535  23.915  0.00  0.00    +0.000 OA
ATOM     21  C   UNL     1      -1.111  11.376  22.879  0.00  0.00    +0.000 C 
ATOM     22  C   UNL     1      -0.040  11.739  21.842  0.00  0.00    +0.000 C 
ENDBRANCH   3  17
BRANCH   6  23
ATOM     23  C   UNL     1       2.916   7.460  18.296  0.00  0.00    +0.000 C 
BRANCH  23  24
ATOM     24  C   UNL     1       3.053   6.033  17.745  0.00  0.00    +0.000 C 
BRANCH  24  25
ATOM     25  C   UNL     1       2.237   5.039  18.521  0.00  0.00    +0.000 A 
ATOM     26  C   UNL     1       1.812   3.855  17.923  0.00  0.00    +0.000 A 
ATOM     27  C   UNL     1       1.100   2.935  18.687  0.00  0.00    +0.000 A 
ATOM     28  C   UNL     1       0.838   3.218  20.022  0.00  0.00    +0.000 A 
ATOM     29  C   UNL     1       1.300   4.416  20.538  0.00  0.00    +0.000 A 
ATOM     30  N   UNL     1       1.987   5.329  19.821  0.00  0.00    +0.000 NA
ENDBRANCH  24  25
ENDBRANCH  23  24
ENDBRANCH   6  23
TORSDOF 6
ENDMDL
