MODEL 1
REMARK VINA RESULT:      -6.7      0.000      0.000
REMARK  Name = 
REMARK  7 active torsions:
REMARK  status: ('A' for Active; 'I' for Inactive)
REMARK    1  A    between atoms: C_1  and  O_2
REMARK    2  A    between atoms: O_2  and  C_3
REMARK    3  A    between atoms: C_6  and  C_7
REMARK    4  A    between atoms: C_12  and  C_13
REMARK    5  A    between atoms: C_22  and  C_23
REMARK    6  A    between atoms: C_22  and  C_24
REMARK    7  A    between atoms: C_28  and  C_29
REMARK                            x       y       z     vdW  Elec       q    Type
REMARK                         _______ _______ _______ _____ _____    ______ ____
ROOT
ATOM      1  C   UNL     1       0.570  12.594  19.611  0.00  0.00    +0.000 C 
ATOM      2  C   UNL     1       1.055  11.843  18.352  0.00  0.00    +0.000 C 
ATOM      3  C   UNL     1       1.217  10.369  18.639  0.00  0.00    +0.000 C 
ATOM      4  O   UNL     1       2.134   9.719  18.138  0.00  0.00    +0.000 OA
ATOM      5  C   UNL     1       0.224   9.717  19.571  0.00  0.00    +0.000 C 
ATOM      6  C   UNL     1      -1.028  10.587  19.774  0.00  0.00    +0.000 C 
ATOM      7  C   UNL     1      -0.707  12.015  20.369  0.00  0.00    +0.000 C 
ATOM      8  C   UNL     1      -0.204  11.976  21.806  0.00  0.00    +0.000 C 
ATOM      9  O   UNL     1       0.219  10.981  22.378  0.00  0.00    +0.000 OA
ATOM     10  O   UNL     1      -0.036  13.232  22.320  0.00  0.00    +0.000 OA
ATOM     11  C   UNL     1      -1.224  14.022  22.343  0.00  0.00    +0.000 C 
ATOM     12  C   UNL     1      -0.913  15.520  22.359  0.00  0.00    +0.000 C 
ATOM     13  C   UNL     1      -1.947  13.661  23.649  0.00  0.00    +0.000 C 
ATOM     14  O   UNL     1      -2.083  13.868  21.223  0.00  0.00    +0.000 OA
ATOM     15  C   UNL     1      -2.066  12.710  20.550  0.00  0.00    +0.000 C 
ATOM     16  O   UNL     1      -3.149  12.219  20.246  0.00  0.00    +0.000 OA
ENDROOT
BRANCH   1  20
ATOM     17  C   UNL     1       1.301  16.777  18.650  0.00  0.00    +0.000 A 
ATOM     18  C   UNL     1       0.108  16.165  18.286  0.00  0.00    +0.000 A 
ATOM     19  C   UNL     1      -0.141  14.829  18.637  0.00  0.00    +0.000 A 
ATOM     20  C   UNL     1       0.791  14.086  19.377  0.00  0.00    +0.000 A 
ATOM     21  C   UNL     1       2.004  14.715  19.763  0.00  0.00    +0.000 A 
ATOM     22  C   UNL     1       3.139  14.069  20.520  0.00  0.00    +0.000 C 
ATOM     23  C   UNL     1       2.229  16.055  19.391  0.00  0.00    +0.000 A 
BRANCH  17  25
ATOM     24  C   UNL     1       1.159  18.631  17.169  0.00  0.00    +0.000 C 
ATOM     25  O   UNL     1       1.696  18.050  18.349  0.00  0.00    +0.000 OA
ENDBRANCH  17  25
ENDBRANCH   1  20
BRANCH   6  26
ATOM     26  C   UNL     1      -1.761  10.666  18.435  0.00  0.00    +0.000 A 
ATOM     27  C   UNL     1      -1.864  11.628  17.450  0.00  0.00    +0.000 A 
ATOM     28  C   UNL     1      -2.753  11.108  16.471  0.00  0.00    +0.000 A 
ATOM     29  C   UNL     1      -3.114   9.865  16.896  0.00  0.00    +0.000 A 
ATOM     30  O   UNL     1      -2.527   9.585  18.085  0.00  0.00    +0.000 OA
ENDBRANCH   6  26
TORSDOF 3
ENDMDL
MODEL 2
REMARK VINA RESULT:      -6.3      2.507      5.827
REMARK  Name = 
REMARK  7 active torsions:
REMARK  status: ('A' for Active; 'I' for Inactive)
REMARK    1  A    between atoms: C_1  and  O_2
REMARK    2  A    between atoms: O_2  and  C_3
REMARK    3  A    between atoms: C_6  and  C_7
REMARK    4  A    between atoms: C_12  and  C_13
REMARK    5  A    between atoms: C_22  and  C_23
REMARK    6  A    between atoms: C_22  and  C_24
REMARK    7  A    between atoms: C_28  and  C_29
REMARK                            x       y       z     vdW  Elec       q    Type
REMARK                         _______ _______ _______ _____ _____    ______ ____
ROOT
ATOM      1  C   UNL     1      -2.189  12.974  22.253  0.00  0.00    +0.000 C 
ATOM      2  C   UNL     1      -3.583  12.365  22.520  0.00  0.00    +0.000 C 
ATOM      3  C   UNL     1      -4.104  12.799  23.869  0.00  0.00    +0.000 C 
ATOM      4  O   UNL     1      -4.756  12.032  24.577  0.00  0.00    +0.000 OA
ATOM      5  C   UNL     1      -3.793  14.202  24.330  0.00  0.00    +0.000 C 
ATOM      6  C   UNL     1      -3.317  15.094  23.171  0.00  0.00    +0.000 C 
ATOM      7  C   UNL     1      -2.020  14.546  22.455  0.00  0.00    +0.000 C 
ATOM      8  C   UNL     1      -0.774  14.600  23.328  0.00  0.00    +0.000 C 
ATOM      9  O   UNL     1      -0.770  14.742  24.543  0.00  0.00    +0.000 OA
ATOM     10  O   UNL     1       0.345  14.215  22.642  0.00  0.00    +0.000 OA
ATOM     11  C   UNL     1       0.637  15.016  21.497  0.00  0.00    +0.000 C 
ATOM     12  C   UNL     1       1.485  14.259  20.473  0.00  0.00    +0.000 C 
ATOM     13  C   UNL     1       1.450  16.212  22.013  0.00  0.00    +0.000 C 
ATOM     14  O   UNL     1      -0.491  15.447  20.750  0.00  0.00    +0.000 OA
ATOM     15  C   UNL     1      -1.667  15.582  21.374  0.00  0.00    +0.000 C 
ATOM     16  O   UNL     1      -2.318  16.595  21.139  0.00  0.00    +0.000 OA
ENDROOT
BRANCH   1  20
ATOM     17  C   UNL     1      -0.680  10.641  18.901  0.00  0.00    +0.000 A 
ATOM     18  C   UNL     1      -1.466  11.767  18.684  0.00  0.00    +0.000 A 
ATOM     19  C   UNL     1      -1.913  12.541  19.766  0.00  0.00    +0.000 A 
ATOM     20  C   UNL     1      -1.565  12.215  21.086  0.00  0.00    +0.000 A 
ATOM     21  C   UNL     1      -0.749  11.073  21.308  0.00  0.00    +0.000 A 
ATOM     22  C   UNL     1      -0.309  10.542  22.650  0.00  0.00    +0.000 C 
ATOM     23  C   UNL     1      -0.321  10.312  20.203  0.00  0.00    +0.000 A 
BRANCH  17  25
ATOM     24  C   UNL     1       1.176   9.450  18.014  0.00  0.00    +0.000 C 
ATOM     25  O   UNL     1      -0.206   9.777  17.956  0.00  0.00    +0.000 OA
ENDBRANCH  17  25
ENDBRANCH   1  20
BRANCH   6  26
ATOM     26  C   UNL     1      -4.488  15.264  22.204  0.00  0.00    +0.000 A 
ATOM     27  C   UNL     1      -4.818  14.707  20.985  0.00  0.00    +0.000 A 
ATOM     28  C   UNL     1      -6.022  15.333  20.568  0.00  0.00    +0.000 A 
ATOM     29  C   UNL     1      -6.369  16.205  21.557  0.00  0.00    +0.000 A 
ATOM     30  O   UNL     1      -5.447  16.179  22.550  0.00  0.00    +0.000 OA
ENDBRANCH   6  26
TORSDOF 3
ENDMDL
MODEL 3
REMARK VINA RESULT:      -6.2      2.550      6.027
REMARK  Name = 
REMARK  7 active torsions:
REMARK  status: ('A' for Active; 'I' for Inactive)
REMARK    1  A    between atoms: C_1  and  O_2
REMARK    2  A    between atoms: O_2  and  C_3
REMARK    3  A    between atoms: C_6  and  C_7
REMARK    4  A    between atoms: C_12  and  C_13
REMARK    5  A    between atoms: C_22  and  C_23
REMARK    6  A    between atoms: C_22  and  C_24
REMARK    7  A    between atoms: C_28  and  C_29
REMARK                            x       y       z     vdW  Elec       q    Type
REMARK                         _______ _______ _______ _____ _____    ______ ____
ROOT
ATOM      1  C   UNL     1      -2.454  13.050  22.189  0.00  0.00    +0.000 C 
ATOM      2  C   UNL     1      -3.752  12.418  22.738  0.00  0.00    +0.000 C 
ATOM      3  C   UNL     1      -3.967  12.810  24.180  0.00  0.00    +0.000 C 
ATOM      4  O   UNL     1      -4.443  12.017  24.992  0.00  0.00    +0.000 OA
ATOM      5  C   UNL     1      -3.571  14.205  24.600  0.00  0.00    +0.000 C 
ATOM      6  C   UNL     1      -3.367  15.132  23.390  0.00  0.00    +0.000 C 
ATOM      7  C   UNL     1      -2.255  14.619  22.392  0.00  0.00    +0.000 C 
ATOM      8  C   UNL     1      -0.849  14.666  22.972  0.00  0.00    +0.000 C 
ATOM      9  O   UNL     1      -0.579  14.777  24.160  0.00  0.00    +0.000 OA
ATOM     10  O   UNL     1       0.096  14.313  22.048  0.00  0.00    +0.000 OA
ATOM     11  C   UNL     1       0.124  15.146  20.889  0.00  0.00    +0.000 C 
ATOM     12  C   UNL     1       0.731  14.426  19.683  0.00  0.00    +0.000 C 
ATOM     13  C   UNL     1       1.022  16.339  21.247  0.00  0.00    +0.000 C 
ATOM     14  O   UNL     1      -1.143  15.581  20.419  0.00  0.00    +0.000 OA
ATOM     15  C   UNL     1      -2.155  15.686  21.289  0.00  0.00    +0.000 C 
ATOM     16  O   UNL     1      -2.848  16.697  21.230  0.00  0.00    +0.000 OA
ENDROOT
BRANCH   1  20
ATOM     17  C   UNL     1      -1.669  10.786  18.555  0.00  0.00    +0.000 A 
ATOM     18  C   UNL     1      -2.650  11.769  18.578  0.00  0.00    +0.000 A 
ATOM     19  C   UNL     1      -2.870  12.527  19.740  0.00  0.00    +0.000 A 
ATOM     20  C   UNL     1      -2.096  12.329  20.893  0.00  0.00    +0.000 A 
ATOM     21  C   UNL     1      -1.082  11.334  20.865  0.00  0.00    +0.000 A 
ATOM     22  C   UNL     1      -0.183  10.948  22.014  0.00  0.00    +0.000 C 
ATOM     23  C   UNL     1      -0.890  10.585  19.688  0.00  0.00    +0.000 A 
BRANCH  17  25
ATOM     24  C   UNL     1      -2.250   9.964  16.401  0.00  0.00    +0.000 C 
ATOM     25  O   UNL     1      -1.369   9.950  17.516  0.00  0.00    +0.000 OA
ENDBRANCH  17  25
ENDBRANCH   1  20
BRANCH   6  26
ATOM     26  C   UNL     1      -4.723  15.312  22.708  0.00  0.00    +0.000 A 
ATOM     27  C   UNL     1      -5.302  14.796  21.566  0.00  0.00    +0.000 A 
ATOM     28  C   UNL     1      -6.578  15.409  21.448  0.00  0.00    +0.000 A 
ATOM     29  C   UNL     1      -6.714  16.232  22.525  0.00  0.00    +0.000 A 
ATOM     30  O   UNL     1      -5.598  16.190  23.294  0.00  0.00    +0.000 OA
ENDBRANCH   6  26
TORSDOF 3
ENDMDL
MODEL 4
REMARK VINA RESULT:      -6.0      6.674      9.809
REMARK  Name = 
REMARK  7 active torsions:
REMARK  status: ('A' for Active; 'I' for Inactive)
REMARK    1  A    between atoms: C_1  and  O_2
REMARK    2  A    between atoms: O_2  and  C_3
REMARK    3  A    between atoms: C_6  and  C_7
REMARK    4  A    between atoms: C_12  and  C_13
REMARK    5  A    between atoms: C_22  and  C_23
REMARK    6  A    between atoms: C_22  and  C_24
REMARK    7  A    between atoms: C_28  and  C_29
REMARK                            x       y       z     vdW  Elec       q    Type
REMARK                         _______ _______ _______ _____ _____    ______ ____
ROOT
ATOM      1  C   UNL     1       8.733  15.584  19.638  0.00  0.00    +0.000 C 
ATOM      2  C   UNL     1       9.638  15.767  18.400  0.00  0.00    +0.000 C 
ATOM      3  C   UNL     1      11.035  16.162  18.814  0.00  0.00    +0.000 C 
ATOM      4  O   UNL     1      11.695  16.961  18.150  0.00  0.00    +0.000 OA
ATOM      5  C   UNL     1      11.597  15.553  20.076  0.00  0.00    +0.000 C 
ATOM      6  C   UNL     1      10.790  14.325  20.530  0.00  0.00    +0.000 C 
ATOM      7  C   UNL     1       9.269  14.647  20.811  0.00  0.00    +0.000 C 
ATOM      8  C   UNL     1       9.052  15.541  22.025  0.00  0.00    +0.000 C 
ATOM      9  O   UNL     1       9.916  16.215  22.568  0.00  0.00    +0.000 OA
ATOM     10  O   UNL     1       7.723  15.713  22.298  0.00  0.00    +0.000 OA
ATOM     11  C   UNL     1       7.017  14.504  22.573  0.00  0.00    +0.000 C 
ATOM     12  C   UNL     1       5.518  14.643  22.301  0.00  0.00    +0.000 C 
ATOM     13  C   UNL     1       7.217  14.228  24.070  0.00  0.00    +0.000 C 
ATOM     14  O   UNL     1       7.399  13.382  21.790  0.00  0.00    +0.000 OA
ATOM     15  C   UNL     1       8.643  13.330  21.299  0.00  0.00    +0.000 C 
ATOM     16  O   UNL     1       9.245  12.265  21.398  0.00  0.00    +0.000 OA
ENDROOT
BRANCH   1  20
ATOM     17  C   UNL     1       4.707  15.626  17.982  0.00  0.00    +0.000 A 
ATOM     18  C   UNL     1       5.526  14.515  17.825  0.00  0.00    +0.000 A 
ATOM     19  C   UNL     1       6.807  14.488  18.398  0.00  0.00    +0.000 A 
ATOM     20  C   UNL     1       7.285  15.567  19.158  0.00  0.00    +0.000 A 
ATOM     21  C   UNL     1       6.442  16.697  19.333  0.00  0.00    +0.000 A 
ATOM     22  C   UNL     1       6.796  17.963  20.075  0.00  0.00    +0.000 C 
ATOM     23  C   UNL     1       5.165  16.698  18.739  0.00  0.00    +0.000 A 
BRANCH  17  25
ATOM     24  C   UNL     1       2.588  16.692  18.145  0.00  0.00    +0.000 C 
ATOM     25  O   UNL     1       3.460  15.808  17.454  0.00  0.00    +0.000 OA
ENDBRANCH  17  25
ENDBRANCH   1  20
BRANCH   6  26
ATOM     26  C   UNL     1      10.967  13.236  19.472  0.00  0.00    +0.000 A 
ATOM     27  C   UNL     1      10.241  12.840  18.367  0.00  0.00    +0.000 A 
ATOM     28  C   UNL     1      10.914  11.713  17.825  0.00  0.00    +0.000 A 
ATOM     29  C   UNL     1      12.013  11.506  18.603  0.00  0.00    +0.000 A 
ATOM     30  O   UNL     1      12.056  12.415  19.608  0.00  0.00    +0.000 OA
ENDBRANCH   6  26
TORSDOF 3
ENDMDL
MODEL 5
REMARK VINA RESULT:      -6.0      2.232      5.848
REMARK  Name = 
REMARK  7 active torsions:
REMARK  status: ('A' for Active; 'I' for Inactive)
REMARK    1  A    between atoms: C_1  and  O_2
REMARK    2  A    between atoms: O_2  and  C_3
REMARK    3  A    between atoms: C_6  and  C_7
REMARK    4  A    between atoms: C_12  and  C_13
REMARK    5  A    between atoms: C_22  and  C_23
REMARK    6  A    between atoms: C_22  and  C_24
REMARK    7  A    between atoms: C_28  and  C_29
REMARK                            x       y       z     vdW  Elec       q    Type
REMARK                         _______ _______ _______ _____ _____    ______ ____
ROOT
ATOM      1  C   UNL     1      -2.084  12.714  21.165  0.00  0.00    +0.000 C 
ATOM      2  C   UNL     1      -3.400  12.310  21.866  0.00  0.00    +0.000 C 
ATOM      3  C   UNL     1      -3.362  12.687  23.328  0.00  0.00    +0.000 C 
ATOM      4  O   UNL     1      -3.873  11.968  24.185  0.00  0.00    +0.000 OA
ATOM      5  C   UNL     1      -2.668  13.973  23.708  0.00  0.00    +0.000 C 
ATOM      6  C   UNL     1      -2.445  14.886  22.491  0.00  0.00    +0.000 C 
ATOM      7  C   UNL     1      -1.577  14.213  21.356  0.00  0.00    +0.000 C 
ATOM      8  C   UNL     1      -0.125  13.984  21.756  0.00  0.00    +0.000 C 
ATOM      9  O   UNL     1       0.302  14.005  22.901  0.00  0.00    +0.000 OA
ATOM     10  O   UNL     1       0.618  13.496  20.716  0.00  0.00    +0.000 OA
ATOM     11  C   UNL     1       0.658  14.348  19.572  0.00  0.00    +0.000 C 
ATOM     12  C   UNL     1       0.971  13.569  18.292  0.00  0.00    +0.000 C 
ATOM     13  C   UNL     1       1.797  15.345  19.825  0.00  0.00    +0.000 C 
ATOM     14  O   UNL     1      -0.555  15.021  19.269  0.00  0.00    +0.000 OA
ATOM     15  C   UNL     1      -1.417  15.279  20.260  0.00  0.00    +0.000 C 
ATOM     16  O   UNL     1      -1.913  16.401  20.299  0.00  0.00    +0.000 OA
ENDROOT
BRANCH   1  20
ATOM     17  C   UNL     1      -2.167  10.451  17.446  0.00  0.00    +0.000 A 
ATOM     18  C   UNL     1      -2.995  11.553  17.623  0.00  0.00    +0.000 A 
ATOM     19  C   UNL     1      -2.934  12.305  18.807  0.00  0.00    +0.000 A 
ATOM     20  C   UNL     1      -2.026  11.982  19.827  0.00  0.00    +0.000 A 
ATOM     21  C   UNL     1      -1.167  10.866  19.640  0.00  0.00    +0.000 A 
ATOM     22  C   UNL     1      -0.163  10.340  20.636  0.00  0.00    +0.000 C 
ATOM     23  C   UNL     1      -1.257  10.125  18.445  0.00  0.00    +0.000 A 
BRANCH  17  25
ATOM     24  C   UNL     1      -2.868  10.010  15.218  0.00  0.00    +0.000 C 
ATOM     25  O   UNL     1      -2.141   9.608  16.371  0.00  0.00    +0.000 OA
ENDBRANCH  17  25
ENDBRANCH   1  20
BRANCH   6  26
ATOM     26  C   UNL     1      -3.817  15.331  21.987  0.00  0.00    +0.000 A 
ATOM     27  C   UNL     1      -4.622  14.956  20.930  0.00  0.00    +0.000 A 
ATOM     28  C   UNL     1      -5.764  15.801  20.973  0.00  0.00    +0.000 A 
ATOM     29  C   UNL     1      -5.604  16.614  22.055  0.00  0.00    +0.000 A 
ATOM     30  O   UNL     1      -4.429  16.347  22.675  0.00  0.00    +0.000 OA
ENDBRANCH   6  26
TORSDOF 3
ENDMDL
MODEL 6
REMARK VINA RESULT:      -5.9      7.025      9.897
REMARK  Name = 
REMARK  7 active torsions:
REMARK  status: ('A' for Active; 'I' for Inactive)
REMARK    1  A    between atoms: C_1  and  O_2
REMARK    2  A    between atoms: O_2  and  C_3
REMARK    3  A    between atoms: C_6  and  C_7
REMARK    4  A    between atoms: C_12  and  C_13
REMARK    5  A    between atoms: C_22  and  C_23
REMARK    6  A    between atoms: C_22  and  C_24
REMARK    7  A    between atoms: C_28  and  C_29
REMARK                            x       y       z     vdW  Elec       q    Type
REMARK                         _______ _______ _______ _____ _____    ______ ____
ROOT
ATOM      1  C   UNL     1       8.257  14.277  23.548  0.00  0.00    +0.000 C 
ATOM      2  C   UNL     1       8.816  13.661  24.848  0.00  0.00    +0.000 C 
ATOM      3  C   UNL     1       8.545  14.566  26.027  0.00  0.00    +0.000 C 
ATOM      4  O   UNL     1       9.365  14.690  26.936  0.00  0.00    +0.000 OA
ATOM      5  C   UNL     1       7.239  15.323  26.051  0.00  0.00    +0.000 C 
ATOM      6  C   UNL     1       6.224  14.747  25.049  0.00  0.00    +0.000 C 
ATOM      7  C   UNL     1       6.740  14.768  23.556  0.00  0.00    +0.000 C 
ATOM      8  C   UNL     1       6.880  16.170  22.980  0.00  0.00    +0.000 C 
ATOM      9  O   UNL     1       6.909  17.202  23.636  0.00  0.00    +0.000 OA
ATOM     10  O   UNL     1       7.229  16.144  21.658  0.00  0.00    +0.000 OA
ATOM     11  C   UNL     1       6.295  15.468  20.816  0.00  0.00    +0.000 C 
ATOM     12  C   UNL     1       6.950  14.960  19.530  0.00  0.00    +0.000 C 
ATOM     13  C   UNL     1       5.231  16.509  20.442  0.00  0.00    +0.000 C 
ATOM     14  O   UNL     1       5.701  14.305  21.374  0.00  0.00    +0.000 OA
ATOM     15  C   UNL     1       5.587  14.212  22.705  0.00  0.00    +0.000 C 
ATOM     16  O   UNL     1       4.515  13.817  23.153  0.00  0.00    +0.000 OA
ENDROOT
BRANCH   1  20
ATOM     17  C   UNL     1      10.227  11.998  20.405  0.00  0.00    +0.000 A 
ATOM     18  C   UNL     1       9.165  11.452  21.116  0.00  0.00    +0.000 A 
ATOM     19  C   UNL     1       8.505  12.207  22.098  0.00  0.00    +0.000 A 
ATOM     20  C   UNL     1       8.882  13.531  22.372  0.00  0.00    +0.000 A 
ATOM     21  C   UNL     1       9.957  14.095  21.635  0.00  0.00    +0.000 A 
ATOM     22  C   UNL     1      10.531  15.478  21.818  0.00  0.00    +0.000 C 
ATOM     23  C   UNL     1      10.605  13.310  20.661  0.00  0.00    +0.000 A 
BRANCH  17  25
ATOM     24  C   UNL     1      11.041  11.986  18.171  0.00  0.00    +0.000 C 
ATOM     25  O   UNL     1      10.983  11.374  19.453  0.00  0.00    +0.000 OA
ENDBRANCH  17  25
ENDBRANCH   1  20
BRANCH   6  26
ATOM     26  C   UNL     1       5.855  13.340  25.518  0.00  0.00    +0.000 A 
ATOM     27  C   UNL     1       6.156  12.068  25.074  0.00  0.00    +0.000 A 
ATOM     28  C   UNL     1       5.448  11.170  25.916  0.00  0.00    +0.000 A 
ATOM     29  C   UNL     1       4.787  11.934  26.831  0.00  0.00    +0.000 A 
ATOM     30  O   UNL     1       5.018  13.250  26.599  0.00  0.00    +0.000 OA
ENDBRANCH   6  26
TORSDOF 3
ENDMDL
MODEL 7
REMARK VINA RESULT:      -5.9      2.123      5.476
REMARK  Name = 
REMARK  7 active torsions:
REMARK  status: ('A' for Active; 'I' for Inactive)
REMARK    1  A    between atoms: C_1  and  O_2
REMARK    2  A    between atoms: O_2  and  C_3
REMARK    3  A    between atoms: C_6  and  C_7
REMARK    4  A    between atoms: C_12  and  C_13
REMARK    5  A    between atoms: C_22  and  C_23
REMARK    6  A    between atoms: C_22  and  C_24
REMARK    7  A    between atoms: C_28  and  C_29
REMARK                            x       y       z     vdW  Elec       q    Type
REMARK                         _______ _______ _______ _____ _____    ______ ____
ROOT
ATOM      1  C   UNL     1      -1.801  12.925  20.205  0.00  0.00    +0.000 C 
ATOM      2  C   UNL     1      -2.282  11.727  19.358  0.00  0.00    +0.000 C 
ATOM      3  C   UNL     1      -1.845  11.881  17.921  0.00  0.00    +0.000 C 
ATOM      4  O   UNL     1      -2.569  11.522  16.992  0.00  0.00    +0.000 OA
ATOM      5  C   UNL     1      -0.493  12.499  17.655  0.00  0.00    +0.000 C 
ATOM      6  C   UNL     1       0.386  12.518  18.917  0.00  0.00    +0.000 C 
ATOM      7  C   UNL     1      -0.259  13.320  20.115  0.00  0.00    +0.000 C 
ATOM      8  C   UNL     1      -0.354  14.819  19.863  0.00  0.00    +0.000 C 
ATOM      9  O   UNL     1      -0.252  15.358  18.770  0.00  0.00    +0.000 OA
ATOM     10  O   UNL     1      -0.820  15.491  20.959  0.00  0.00    +0.000 OA
ATOM     11  C   UNL     1      -0.015  15.342  22.127  0.00  0.00    +0.000 C 
ATOM     12  C   UNL     1      -0.816  15.588  23.408  0.00  0.00    +0.000 C 
ATOM     13  C   UNL     1       1.081  16.413  22.026  0.00  0.00    +0.000 C 
ATOM     14  O   UNL     1       0.545  14.052  22.323  0.00  0.00    +0.000 OA
ATOM     15  C   UNL     1       0.772  13.277  21.255  0.00  0.00    +0.000 C 
ATOM     16  O   UNL     1       1.850  12.694  21.200  0.00  0.00    +0.000 OA
ENDROOT
BRANCH   1  20
ATOM     17  C   UNL     1      -4.170  12.618  23.845  0.00  0.00    +0.000 A 
ATOM     18  C   UNL     1      -3.002  11.881  23.696  0.00  0.00    +0.000 A 
ATOM     19  C   UNL     1      -2.218  12.016  22.539  0.00  0.00    +0.000 A 
ATOM     20  C   UNL     1      -2.578  12.909  21.518  0.00  0.00    +0.000 A 
ATOM     21  C   UNL     1      -3.764  13.675  21.677  0.00  0.00    +0.000 A 
ATOM     22  C   UNL     1      -4.334  14.648  20.674  0.00  0.00    +0.000 C 
ATOM     23  C   UNL     1      -4.534  13.512  22.845  0.00  0.00    +0.000 A 
BRANCH  17  25
ATOM     24  C   UNL     1      -6.421  12.381  24.575  0.00  0.00    +0.000 C 
ATOM     25  O   UNL     1      -5.047  12.564  24.891  0.00  0.00    +0.000 OA
ENDBRANCH  17  25
ENDBRANCH   1  20
BRANCH   6  26
ATOM     26  C   UNL     1       0.698  11.069  19.289  0.00  0.00    +0.000 A 
ATOM     27  C   UNL     1       0.386  10.263  20.365  0.00  0.00    +0.000 A 
ATOM     28  C   UNL     1       1.032   9.018  20.137  0.00  0.00    +0.000 A 
ATOM     29  C   UNL     1       1.669   9.125  18.937  0.00  0.00    +0.000 A 
ATOM     30  O   UNL     1       1.482  10.362  18.414  0.00  0.00    +0.000 OA
ENDBRANCH   6  26
TORSDOF 3
ENDMDL
MODEL 8
REMARK VINA RESULT:      -5.8      1.022      1.220
REMARK  Name = 
REMARK  7 active torsions:
REMARK  status: ('A' for Active; 'I' for Inactive)
REMARK    1  A    between atoms: C_1  and  O_2
REMARK    2  A    between atoms: O_2  and  C_3
REMARK    3  A    between atoms: C_6  and  C_7
REMARK    4  A    between atoms: C_12  and  C_13
REMARK    5  A    between atoms: C_22  and  C_23
REMARK    6  A    between atoms: C_22  and  C_24
REMARK    7  A    between atoms: C_28  and  C_29
REMARK                            x       y       z     vdW  Elec       q    Type
REMARK                         _______ _______ _______ _____ _____    ______ ____
ROOT
ATOM      1  C   UNL     1       0.805  12.336  20.127  0.00  0.00    +0.000 C 
ATOM      2  C   UNL     1       1.248  11.347  19.027  0.00  0.00    +0.000 C 
ATOM      3  C   UNL     1       0.989   9.923  19.454  0.00  0.00    +0.000 C 
ATOM      4  O   UNL     1       1.768   9.017  19.160  0.00  0.00    +0.000 OA
ATOM      5  C   UNL     1      -0.254   9.643  20.266  0.00  0.00    +0.000 C 
ATOM      6  C   UNL     1      -1.259  10.805  20.195  0.00  0.00    +0.000 C 
ATOM      7  C   UNL     1      -0.667  12.174  20.716  0.00  0.00    +0.000 C 
ATOM      8  C   UNL     1      -0.389  12.185  22.213  0.00  0.00    +0.000 C 
ATOM      9  O   UNL     1      -0.314  11.193  22.924  0.00  0.00    +0.000 OA
ATOM     10  O   UNL     1       0.023  13.416  22.645  0.00  0.00    +0.000 OA
ATOM     11  C   UNL     1      -0.917  14.465  22.414  0.00  0.00    +0.000 C 
ATOM     12  C   UNL     1      -0.239  15.836  22.359  0.00  0.00    +0.000 C 
ATOM     13  C   UNL     1      -1.876  14.445  23.612  0.00  0.00    +0.000 C 
ATOM     14  O   UNL     1      -1.627  14.390  21.187  0.00  0.00    +0.000 OA
ATOM     15  C   UNL     1      -1.816  13.192  20.621  0.00  0.00    +0.000 C 
ATOM     16  O   UNL     1      -2.937  12.942  20.189  0.00  0.00    +0.000 OA
ENDROOT
BRANCH   1  20
ATOM     17  C   UNL     1       2.733  16.069  18.983  0.00  0.00    +0.000 A 
ATOM     18  C   UNL     1       1.553  15.664  18.371  0.00  0.00    +0.000 A 
ATOM     19  C   UNL     1       0.912  14.482  18.773  0.00  0.00    +0.000 A 
ATOM     20  C   UNL     1       1.429  13.693  19.813  0.00  0.00    +0.000 A 
ATOM     21  C   UNL     1       2.626  14.114  20.450  0.00  0.00    +0.000 A 
ATOM     22  C   UNL     1       3.353  13.380  21.550  0.00  0.00    +0.000 C 
ATOM     23  C   UNL     1       3.251  15.301  20.019  0.00  0.00    +0.000 A 
BRANCH  17  25
ATOM     24  C   UNL     1       4.884  17.075  18.888  0.00  0.00    +0.000 C 
ATOM     25  O   UNL     1       3.483  17.168  18.674  0.00  0.00    +0.000 OA
ENDBRANCH  17  25
ENDBRANCH   1  20
BRANCH   6  26
ATOM     26  C   UNL     1      -1.760  10.899  18.754  0.00  0.00    +0.000 A 
ATOM     27  C   UNL     1      -1.714  11.877  17.781  0.00  0.00    +0.000 A 
ATOM     28  C   UNL     1      -2.419  11.364  16.660  0.00  0.00    +0.000 A 
ATOM     29  C   UNL     1      -2.825  10.108  16.998  0.00  0.00    +0.000 A 
ATOM     30  O   UNL     1      -2.440   9.814  18.264  0.00  0.00    +0.000 OA
ENDBRANCH   6  26
TORSDOF 3
ENDMDL
MODEL 9
REMARK VINA RESULT:      -5.8      2.060      6.100
REMARK  Name = 
REMARK  7 active torsions:
REMARK  status: ('A' for Active; 'I' for Inactive)
REMARK    1  A    between atoms: C_1  and  O_2
REMARK    2  A    between atoms: O_2  and  C_3
REMARK    3  A    between atoms: C_6  and  C_7
REMARK    4  A    between atoms: C_12  and  C_13
REMARK    5  A    between atoms: C_22  and  C_23
REMARK    6  A    between atoms: C_22  and  C_24
REMARK    7  A    between atoms: C_28  and  C_29
REMARK                            x       y       z     vdW  Elec       q    Type
REMARK                         _______ _______ _______ _____ _____    ______ ____
ROOT
ATOM      1  C   UNL     1      -0.217  13.645  21.083  0.00  0.00    +0.000 C 
ATOM      2  C   UNL     1      -1.514  13.835  21.899  0.00  0.00    +0.000 C 
ATOM      3  C   UNL     1      -1.225  14.546  23.200  0.00  0.00    +0.000 C 
ATOM      4  O   UNL     1      -1.824  14.251  24.234  0.00  0.00    +0.000 OA
ATOM      5  C   UNL     1      -0.170  15.625  23.197  0.00  0.00    +0.000 C 
ATOM      6  C   UNL     1       0.170  16.091  21.771  0.00  0.00    +0.000 C 
ATOM      7  C   UNL     1       0.699  14.927  20.844  0.00  0.00    +0.000 C 
ATOM      8  C   UNL     1       2.065  14.395  21.256  0.00  0.00    +0.000 C 
ATOM      9  O   UNL     1       2.597  14.582  22.341  0.00  0.00    +0.000 OA
ATOM     10  O   UNL     1       2.535  13.463  20.372  0.00  0.00    +0.000 OA
ATOM     11  C   UNL     1       2.690  13.943  19.038  0.00  0.00    +0.000 C 
ATOM     12  C   UNL     1       2.645  12.808  18.013  0.00  0.00    +0.000 C 
ATOM     13  C   UNL     1       4.080  14.595  18.981  0.00  0.00    +0.000 C 
ATOM     14  O   UNL     1       1.685  14.841  18.591  0.00  0.00    +0.000 OA
ATOM     15  C   UNL     1       1.033  15.584  19.494  0.00  0.00    +0.000 C 
ATOM     16  O   UNL     1       0.870  16.772  19.236  0.00  0.00    +0.000 OA
ENDROOT
BRANCH   1  20
ATOM     17  C   UNL     1      -1.316  10.670  18.100  0.00  0.00    +0.000 A 
ATOM     18  C   UNL     1      -1.623  12.011  17.909  0.00  0.00    +0.000 A 
ATOM     19  C   UNL     1      -1.228  12.973  18.852  0.00  0.00    +0.000 A 
ATOM     20  C   UNL     1      -0.499  12.612  19.996  0.00  0.00    +0.000 A 
ATOM     21  C   UNL     1      -0.171  11.242  20.184  0.00  0.00    +0.000 A 
ATOM     22  C   UNL     1       0.564  10.659  21.366  0.00  0.00    +0.000 C 
ATOM     23  C   UNL     1      -0.588  10.300  19.224  0.00  0.00    +0.000 A 
BRANCH  17  25
ATOM     24  C   UNL     1      -2.598   9.894  16.254  0.00  0.00    +0.000 C 
ATOM     25  O   UNL     1      -1.665   9.625  17.292  0.00  0.00    +0.000 OA
ENDBRANCH  17  25
ENDBRANCH   1  20
BRANCH   6  26
ATOM     26  C   UNL     1      -1.072  16.773  21.197  0.00  0.00    +0.000 A 
ATOM     27  C   UNL     1      -2.083  16.374  20.347  0.00  0.00    +0.000 A 
ATOM     28  C   UNL     1      -2.918  17.506  20.153  0.00  0.00    +0.000 A 
ATOM     29  C   UNL     1      -2.391  18.511  20.909  0.00  0.00    +0.000 A 
ATOM     30  O   UNL     1      -1.270  18.085  21.541  0.00  0.00    +0.000 OA
ENDBRANCH   6  26
TORSDOF 3
ENDMDL
