MODEL 1
REMARK VINA RESULT:      -9.1      0.000      0.000
REMARK  Name = 
REMARK  8 active torsions:
REMARK  status: ('A' for Active; 'I' for Inactive)
REMARK    1  A    between atoms: C_1  and  O_2
REMARK    2  A    between atoms: O_2  and  C_3
REMARK    3  A    between atoms: C_5  and  C_6
REMARK    4  A    between atoms: N_7  and  N_8
REMARK    5  A    between atoms: C_13  and  C_14
REMARK    6  A    between atoms: C_14  and  C_15
REMARK    7  A    between atoms: N_17  and  C_18
REMARK    8  A    between atoms: C_29  and  O_30
REMARK                            x       y       z     vdW  Elec       q    Type
REMARK                         _______ _______ _______ _____ _____    ______ ____
ROOT
ATOM      1  N   UNL     1       8.318   7.869  18.721  0.00  0.00    +0.000 N 
ATOM      2  C   UNL     1       7.703   6.873  18.003  0.00  0.00    +0.000 C 
ATOM      3  N   UNL     1       7.689   6.733  16.720  0.00  0.00    +0.000 NA
ATOM      4  C   UNL     1       6.962   5.650  16.290  0.00  0.00    +0.000 C 
ATOM      5  O   UNL     1       6.816   5.348  15.115  0.00  0.00    +0.000 OA
ATOM      6  C   UNL     1       6.304   4.850  17.396  0.00  0.00    +0.000 C 
ATOM      7  S   UNL     1       6.830   5.674  18.934  0.00  0.00    +0.000 S 
ATOM      8  H   UNL     1       8.158   7.818  19.727  0.00  0.00    +0.000 HD
ENDROOT
BRANCH   1  10
ATOM      9  C   UNL     1       9.262   9.917  18.898  0.00  0.00    +0.000 C 
ATOM     10  N   UNL     1       8.604   9.079  18.166  0.00  0.00    +0.000 NA
BRANCH   9  13
ATOM     11  C   UNL     1       8.935  13.637  18.223  0.00  0.00    +0.000 A 
ATOM     12  C   UNL     1       8.653  12.332  18.651  0.00  0.00    +0.000 A 
ATOM     13  C   UNL     1       9.550  11.285  18.410  0.00  0.00    +0.000 A 
ATOM     14  C   UNL     1      10.743  11.531  17.733  0.00  0.00    +0.000 A 
ATOM     15  C   UNL     1      11.033  12.826  17.296  0.00  0.00    +0.000 A 
ATOM     16  C   UNL     1      10.133  13.873  17.540  0.00  0.00    +0.000 A 
BRANCH  11  18
ATOM     17  C   UNL     1       6.795  14.600  17.738  0.00  0.00    +0.000 C 
ATOM     18  O   UNL     1       7.956  14.535  18.554  0.00  0.00    +0.000 OA
ENDBRANCH  11  18
BRANCH  16  19
ATOM     19  O   UNL     1      10.467  15.123  17.092  0.00  0.00    +0.000 OA
ATOM     20  H   UNL     1      11.055  15.046  16.323  0.00  0.00    +0.000 HD
ENDBRANCH  16  19
ENDBRANCH   9  13
ENDBRANCH   1  10
BRANCH   6  21
ATOM     21  C   UNL     1       4.803   4.743  17.158  0.00  0.00    +0.000 C 
BRANCH  21  22
ATOM     22  C   UNL     1       4.082   6.046  17.425  0.00  0.00    +0.000 C 
ATOM     23  O   UNL     1       4.351   7.051  16.770  0.00  0.00    +0.000 OA
ATOM     24  N   UNL     1       3.134   5.996  18.436  0.00  0.00    +0.000 N 
ATOM     25  H   UNL     1       3.277   5.308  19.168  0.00  0.00    +0.000 HD
BRANCH  24  26
ATOM     26  C   UNL     1       2.397   7.150  18.768  0.00  0.00    +0.000 A 
ATOM     27  C   UNL     1       2.064   8.086  17.785  0.00  0.00    +0.000 A 
ATOM     28  C   UNL     1       1.409   9.266  18.134  0.00  0.00    +0.000 A 
ATOM     29  C   UNL     1       1.113   9.530  19.473  0.00  0.00    +0.000 A 
ATOM     30 CL   UNL     1       0.372  11.044  19.850  0.00  0.00    +0.000 Cl
ATOM     31  C   UNL     1       1.430   8.581  20.455  0.00  0.00    +0.000 A 
ATOM     32 CL   UNL     1       1.143   8.864  22.138  0.00  0.00    +0.000 Cl
ATOM     33  C   UNL     1       2.039   7.372  20.097  0.00  0.00    +0.000 A 
ENDBRANCH  24  26
ENDBRANCH  21  22
ENDBRANCH   6  21
TORSDOF 7
ENDMDL
MODEL 2
REMARK VINA RESULT:      -8.6      0.705      1.332
REMARK  Name = 
REMARK  8 active torsions:
REMARK  status: ('A' for Active; 'I' for Inactive)
REMARK    1  A    between atoms: C_1  and  O_2
REMARK    2  A    between atoms: O_2  and  C_3
REMARK    3  A    between atoms: C_5  and  C_6
REMARK    4  A    between atoms: N_7  and  N_8
REMARK    5  A    between atoms: C_13  and  C_14
REMARK    6  A    between atoms: C_14  and  C_15
REMARK    7  A    between atoms: N_17  and  C_18
REMARK    8  A    between atoms: C_29  and  O_30
REMARK                            x       y       z     vdW  Elec       q    Type
REMARK                         _______ _______ _______ _____ _____    ______ ____
ROOT
ATOM      1  N   UNL     1       8.293   7.746  18.674  0.00  0.00    +0.000 N 
ATOM      2  C   UNL     1       7.612   6.791  17.961  0.00  0.00    +0.000 C 
ATOM      3  N   UNL     1       7.527   6.692  16.677  0.00  0.00    +0.000 NA
ATOM      4  C   UNL     1       6.746   5.644  16.254  0.00  0.00    +0.000 C 
ATOM      5  O   UNL     1       6.529   5.383  15.080  0.00  0.00    +0.000 OA
ATOM      6  C   UNL     1       6.123   4.829  17.370  0.00  0.00    +0.000 C 
ATOM      7  S   UNL     1       6.753   5.590  18.901  0.00  0.00    +0.000 S 
ATOM      8  H   UNL     1       8.185   7.668  19.686  0.00  0.00    +0.000 HD
ENDROOT
BRANCH   1  10
ATOM      9  C   UNL     1       9.235   9.791  18.894  0.00  0.00    +0.000 C 
ATOM     10  N   UNL     1       8.586   8.965  18.141  0.00  0.00    +0.000 NA
BRANCH   9  13
ATOM     11  C   UNL     1       8.767  13.397  17.808  0.00  0.00    +0.000 A 
ATOM     12  C   UNL     1       8.495  12.083  18.213  0.00  0.00    +0.000 A 
ATOM     13  C   UNL     1       9.529  11.166  18.430  0.00  0.00    +0.000 A 
ATOM     14  C   UNL     1      10.855  11.554  18.241  0.00  0.00    +0.000 A 
ATOM     15  C   UNL     1      11.139  12.859  17.831  0.00  0.00    +0.000 A 
ATOM     16  C   UNL     1      10.100  13.775  17.616  0.00  0.00    +0.000 A 
BRANCH  11  18
ATOM     17  C   UNL     1       7.206  14.950  18.752  0.00  0.00    +0.000 C 
ATOM     18  O   UNL     1       7.638  14.158  17.656  0.00  0.00    +0.000 OA
ENDBRANCH  11  18
BRANCH  16  19
ATOM     19  O   UNL     1      10.434  15.042  17.217  0.00  0.00    +0.000 OA
ATOM     20  H   UNL     1      10.258  15.140  16.266  0.00  0.00    +0.000 HD
ENDBRANCH  16  19
ENDBRANCH   9  13
ENDBRANCH   1  10
BRANCH   6  21
ATOM     21  C   UNL     1       4.609   4.773  17.209  0.00  0.00    +0.000 C 
BRANCH  21  22
ATOM     22  C   UNL     1       3.928   6.027  17.708  0.00  0.00    +0.000 C 
ATOM     23  O   UNL     1       4.113   7.102  17.143  0.00  0.00    +0.000 OA
ATOM     24  N   UNL     1       3.116   5.852  18.819  0.00  0.00    +0.000 N 
ATOM     25  H   UNL     1       3.349   5.089  19.445  0.00  0.00    +0.000 HD
BRANCH  24  26
ATOM     26  C   UNL     1       2.427   6.951  19.368  0.00  0.00    +0.000 A 
ATOM     27  C   UNL     1       1.891   6.881  20.657  0.00  0.00    +0.000 A 
ATOM     28  C   UNL     1       1.137   7.940  21.162  0.00  0.00    +0.000 A 
ATOM     29  C   UNL     1       0.890   9.062  20.367  0.00  0.00    +0.000 A 
ATOM     30 CL   UNL     1      -0.115  10.305  21.020  0.00  0.00    +0.000 Cl
ATOM     31  C   UNL     1       1.446   9.139  19.082  0.00  0.00    +0.000 A 
ATOM     32 CL   UNL     1       1.137  10.472  18.023  0.00  0.00    +0.000 Cl
ATOM     33  C   UNL     1       2.247   8.099  18.597  0.00  0.00    +0.000 A 
ENDBRANCH  24  26
ENDBRANCH  21  22
ENDBRANCH   6  21
TORSDOF 7
ENDMDL
MODEL 3
REMARK VINA RESULT:      -8.6      1.143      1.392
REMARK  Name = 
REMARK  8 active torsions:
REMARK  status: ('A' for Active; 'I' for Inactive)
REMARK    1  A    between atoms: C_1  and  O_2
REMARK    2  A    between atoms: O_2  and  C_3
REMARK    3  A    between atoms: C_5  and  C_6
REMARK    4  A    between atoms: N_7  and  N_8
REMARK    5  A    between atoms: C_13  and  C_14
REMARK    6  A    between atoms: C_14  and  C_15
REMARK    7  A    between atoms: N_17  and  C_18
REMARK    8  A    between atoms: C_29  and  O_30
REMARK                            x       y       z     vdW  Elec       q    Type
REMARK                         _______ _______ _______ _____ _____    ______ ____
ROOT
ATOM      1  N   UNL     1       8.364   7.643  18.878  0.00  0.00    +0.000 N 
ATOM      2  C   UNL     1       7.718   6.750  18.060  0.00  0.00    +0.000 C 
ATOM      3  N   UNL     1       7.675   6.765  16.771  0.00  0.00    +0.000 NA
ATOM      4  C   UNL     1       6.922   5.753  16.230  0.00  0.00    +0.000 C 
ATOM      5  O   UNL     1       6.746   5.596  15.031  0.00  0.00    +0.000 OA
ATOM      6  C   UNL     1       6.273   4.835  17.246  0.00  0.00    +0.000 C 
ATOM      7  S   UNL     1       6.844   5.460  18.860  0.00  0.00    +0.000 S 
ATOM      8  H   UNL     1       8.224   7.474  19.875  0.00  0.00    +0.000 HD
ENDROOT
BRANCH   1  10
ATOM      9  C   UNL     1       9.055   9.740  19.373  0.00  0.00    +0.000 C 
ATOM     10  N   UNL     1       8.659   8.908  18.466  0.00  0.00    +0.000 NA
BRANCH   9  13
ATOM     11  C   UNL     1      10.332  13.308  19.579  0.00  0.00    +0.000 A 
ATOM     12  C   UNL     1      10.046  11.975  19.908  0.00  0.00    +0.000 A 
ATOM     13  C   UNL     1       9.322  11.156  19.034  0.00  0.00    +0.000 A 
ATOM     14  C   UNL     1       8.872  11.663  17.816  0.00  0.00    +0.000 A 
ATOM     15  C   UNL     1       9.147  12.991  17.478  0.00  0.00    +0.000 A 
ATOM     16  C   UNL     1       9.873  13.809  18.356  0.00  0.00    +0.000 A 
BRANCH  11  18
ATOM     17  C   UNL     1      10.368  14.791  21.461  0.00  0.00    +0.000 C 
ATOM     18  O   UNL     1      11.059  13.956  20.542  0.00  0.00    +0.000 OA
ENDBRANCH  11  18
BRANCH  16  19
ATOM     19  O   UNL     1      10.116  15.101  17.976  0.00  0.00    +0.000 OA
ATOM     20  H   UNL     1      10.662  15.540  18.648  0.00  0.00    +0.000 HD
ENDBRANCH  16  19
ENDBRANCH   9  13
ENDBRANCH   1  10
BRANCH   6  21
ATOM     21  C   UNL     1       4.766   4.779  17.031  0.00  0.00    +0.000 C 
BRANCH  21  22
ATOM     22  C   UNL     1       4.087   6.089  17.359  0.00  0.00    +0.000 C 
ATOM     23  O   UNL     1       4.432   7.126  16.798  0.00  0.00    +0.000 OA
ATOM     24  N   UNL     1       3.085   6.008  18.315  0.00  0.00    +0.000 N 
ATOM     25  H   UNL     1       3.159   5.262  18.998  0.00  0.00    +0.000 HD
BRANCH  24  26
ATOM     26  C   UNL     1       2.380   7.166  18.696  0.00  0.00    +0.000 A 
ATOM     27  C   UNL     1       2.038   8.134  17.747  0.00  0.00    +0.000 A 
ATOM     28  C   UNL     1       1.416   9.317  18.144  0.00  0.00    +0.000 A 
ATOM     29  C   UNL     1       1.161   9.552  19.497  0.00  0.00    +0.000 A 
ATOM     30 CL   UNL     1       0.461  11.069  19.933  0.00  0.00    +0.000 Cl
ATOM     31  C   UNL     1       1.487   8.572  20.445  0.00  0.00    +0.000 A 
ATOM     32 CL   UNL     1       1.251   8.817  22.142  0.00  0.00    +0.000 Cl
ATOM     33  C   UNL     1       2.062   7.361  20.040  0.00  0.00    +0.000 A 
ENDBRANCH  24  26
ENDBRANCH  21  22
ENDBRANCH   6  21
TORSDOF 7
ENDMDL
MODEL 4
REMARK VINA RESULT:      -8.5      1.171      2.109
REMARK  Name = 
REMARK  8 active torsions:
REMARK  status: ('A' for Active; 'I' for Inactive)
REMARK    1  A    between atoms: C_1  and  O_2
REMARK    2  A    between atoms: O_2  and  C_3
REMARK    3  A    between atoms: C_5  and  C_6
REMARK    4  A    between atoms: N_7  and  N_8
REMARK    5  A    between atoms: C_13  and  C_14
REMARK    6  A    between atoms: C_14  and  C_15
REMARK    7  A    between atoms: N_17  and  C_18
REMARK    8  A    between atoms: C_29  and  O_30
REMARK                            x       y       z     vdW  Elec       q    Type
REMARK                         _______ _______ _______ _____ _____    ______ ____
ROOT
ATOM      1  N   UNL     1       8.316   7.706  18.673  0.00  0.00    +0.000 N 
ATOM      2  C   UNL     1       7.642   6.747  17.958  0.00  0.00    +0.000 C 
ATOM      3  N   UNL     1       7.459   6.713  16.682  0.00  0.00    +0.000 NA
ATOM      4  C   UNL     1       6.716   5.639  16.258  0.00  0.00    +0.000 C 
ATOM      5  O   UNL     1       6.422   5.428  15.091  0.00  0.00    +0.000 OA
ATOM      6  C   UNL     1       6.239   4.722  17.367  0.00  0.00    +0.000 C 
ATOM      7  S   UNL     1       6.941   5.439  18.888  0.00  0.00    +0.000 S 
ATOM      8  H   UNL     1       8.296   7.565  19.684  0.00  0.00    +0.000 HD
ENDROOT
BRANCH   1  10
ATOM      9  C   UNL     1       9.223   9.767  18.895  0.00  0.00    +0.000 C 
ATOM     10  N   UNL     1       8.486   8.969  18.194  0.00  0.00    +0.000 NA
BRANCH   9  13
ATOM     11  C   UNL     1      10.824  13.144  18.234  0.00  0.00    +0.000 A 
ATOM     12  C   UNL     1      10.639  11.815  18.642  0.00  0.00    +0.000 A 
ATOM     13  C   UNL     1       9.400  11.181  18.495  0.00  0.00    +0.000 A 
ATOM     14  C   UNL     1       8.326  11.872  17.935  0.00  0.00    +0.000 A 
ATOM     15  C   UNL     1       8.496  13.197  17.529  0.00  0.00    +0.000 A 
ATOM     16  C   UNL     1       9.738  13.830  17.678  0.00  0.00    +0.000 A 
BRANCH  11  18
ATOM     17  C   UNL     1      12.333  14.478  19.531  0.00  0.00    +0.000 C 
ATOM     18  O   UNL     1      12.099  13.598  18.441  0.00  0.00    +0.000 OA
ENDBRANCH  11  18
BRANCH  16  19
ATOM     19  O   UNL     1       9.851  15.129  17.263  0.00  0.00    +0.000 OA
ATOM     20  H   UNL     1      10.553  15.572  17.767  0.00  0.00    +0.000 HD
ENDBRANCH  16  19
ENDBRANCH   9  13
ENDBRANCH   1  10
BRANCH   6  21
ATOM     21  C   UNL     1       4.724   4.571  17.321  0.00  0.00    +0.000 C 
BRANCH  21  22
ATOM     22  C   UNL     1       4.027   5.414  18.364  0.00  0.00    +0.000 C 
ATOM     23  O   UNL     1       4.184   5.179  19.560  0.00  0.00    +0.000 OA
ATOM     24  N   UNL     1       3.228   6.430  17.861  0.00  0.00    +0.000 N 
ATOM     25  H   UNL     1       2.829   6.289  16.939  0.00  0.00    +0.000 HD
BRANCH  24  26
ATOM     26  C   UNL     1       2.535   7.283  18.742  0.00  0.00    +0.000 A 
ATOM     27  C   UNL     1       2.185   6.848  20.023  0.00  0.00    +0.000 A 
ATOM     28  C   UNL     1       1.425   7.665  20.858  0.00  0.00    +0.000 A 
ATOM     29  C   UNL     1       0.984   8.910  20.404  0.00  0.00    +0.000 A 
ATOM     30 CL   UNL     1      -0.020   9.841  21.457  0.00  0.00    +0.000 Cl
ATOM     31  C   UNL     1       1.353   9.353  19.126  0.00  0.00    +0.000 A 
ATOM     32 CL   UNL     1       0.798  10.858  18.477  0.00  0.00    +0.000 Cl
ATOM     33  C   UNL     1       2.161   8.555  18.309  0.00  0.00    +0.000 A 
ENDBRANCH  24  26
ENDBRANCH  21  22
ENDBRANCH   6  21
TORSDOF 7
ENDMDL
MODEL 5
REMARK VINA RESULT:      -8.5      1.519      2.129
REMARK  Name = 
REMARK  8 active torsions:
REMARK  status: ('A' for Active; 'I' for Inactive)
REMARK    1  A    between atoms: C_1  and  O_2
REMARK    2  A    between atoms: O_2  and  C_3
REMARK    3  A    between atoms: C_5  and  C_6
REMARK    4  A    between atoms: N_7  and  N_8
REMARK    5  A    between atoms: C_13  and  C_14
REMARK    6  A    between atoms: C_14  and  C_15
REMARK    7  A    between atoms: N_17  and  C_18
REMARK    8  A    between atoms: C_29  and  O_30
REMARK                            x       y       z     vdW  Elec       q    Type
REMARK                         _______ _______ _______ _____ _____    ______ ____
ROOT
ATOM      1  N   UNL     1       8.073   7.162  18.505  0.00  0.00    +0.000 N 
ATOM      2  C   UNL     1       7.538   6.312  17.568  0.00  0.00    +0.000 C 
ATOM      3  N   UNL     1       7.509   6.481  16.290  0.00  0.00    +0.000 NA
ATOM      4  C   UNL     1       6.877   5.469  15.612  0.00  0.00    +0.000 C 
ATOM      5  O   UNL     1       6.734   5.442  14.399  0.00  0.00    +0.000 OA
ATOM      6  C   UNL     1       6.319   4.369  16.494  0.00  0.00    +0.000 C 
ATOM      7  S   UNL     1       6.799   4.849  18.185  0.00  0.00    +0.000 S 
ATOM      8  H   UNL     1       7.940   6.858  19.470  0.00  0.00    +0.000 HD
ENDROOT
BRANCH   1  10
ATOM      9  C   UNL     1       8.972   9.156  19.084  0.00  0.00    +0.000 C 
ATOM     10  N   UNL     1       8.234   8.492  18.256  0.00  0.00    +0.000 NA
BRANCH   9  13
ATOM     11  C   UNL     1       9.878  12.763  19.839  0.00  0.00    +0.000 A 
ATOM     12  C   UNL     1       9.684  11.382  19.981  0.00  0.00    +0.000 A 
ATOM     13  C   UNL     1       9.140  10.620  18.940  0.00  0.00    +0.000 A 
ATOM     14  C   UNL     1       8.782  11.234  17.741  0.00  0.00    +0.000 A 
ATOM     15  C   UNL     1       8.966  12.610  17.589  0.00  0.00    +0.000 A 
ATOM     16  C   UNL     1       9.511  13.371  18.634  0.00  0.00    +0.000 A 
BRANCH  11  18
ATOM     17  C   UNL     1       9.563  13.771  21.990  0.00  0.00    +0.000 C 
ATOM     18  O   UNL     1      10.430  13.345  20.950  0.00  0.00    +0.000 OA
ENDBRANCH  11  18
BRANCH  16  19
ATOM     19  O   UNL     1       9.672  14.715  18.433  0.00  0.00    +0.000 OA
ATOM     20  H   UNL     1      10.491  14.874  17.935  0.00  0.00    +0.000 HD
ENDBRANCH  16  19
ENDBRANCH   9  13
ENDBRANCH   1  10
BRANCH   6  21
ATOM     21  C   UNL     1       4.829   4.181  16.235  0.00  0.00    +0.000 C 
BRANCH  21  22
ATOM     22  C   UNL     1       3.973   4.801  17.315  0.00  0.00    +0.000 C 
ATOM     23  O   UNL     1       3.392   4.091  18.133  0.00  0.00    +0.000 OA
ATOM     24  N   UNL     1       3.909   6.187  17.291  0.00  0.00    +0.000 N 
ATOM     25  H   UNL     1       4.040   6.638  16.392  0.00  0.00    +0.000 HD
BRANCH  24  26
ATOM     26  C   UNL     1       3.144   6.873  18.254  0.00  0.00    +0.000 A 
ATOM     27  C   UNL     1       2.888   6.296  19.500  0.00  0.00    +0.000 A 
ATOM     28  C   UNL     1       2.060   6.944  20.417  0.00  0.00    +0.000 A 
ATOM     29  C   UNL     1       1.458   8.157  20.078  0.00  0.00    +0.000 A 
ATOM     30 CL   UNL     1       0.381   8.870  21.224  0.00  0.00    +0.000 Cl
ATOM     31  C   UNL     1       1.732   8.745  18.834  0.00  0.00    +0.000 A 
ATOM     32 CL   UNL     1       0.979  10.217  18.325  0.00  0.00    +0.000 Cl
ATOM     33  C   UNL     1       2.606   8.120  17.936  0.00  0.00    +0.000 A 
ENDBRANCH  24  26
ENDBRANCH  21  22
ENDBRANCH   6  21
TORSDOF 7
ENDMDL
MODEL 6
REMARK VINA RESULT:      -8.2      1.339      2.181
REMARK  Name = 
REMARK  8 active torsions:
REMARK  status: ('A' for Active; 'I' for Inactive)
REMARK    1  A    between atoms: C_1  and  O_2
REMARK    2  A    between atoms: O_2  and  C_3
REMARK    3  A    between atoms: C_5  and  C_6
REMARK    4  A    between atoms: N_7  and  N_8
REMARK    5  A    between atoms: C_13  and  C_14
REMARK    6  A    between atoms: C_14  and  C_15
REMARK    7  A    between atoms: N_17  and  C_18
REMARK    8  A    between atoms: C_29  and  O_30
REMARK                            x       y       z     vdW  Elec       q    Type
REMARK                         _______ _______ _______ _____ _____    ______ ____
ROOT
ATOM      1  N   UNL     1       8.462   7.663  18.527  0.00  0.00    +0.000 N 
ATOM      2  C   UNL     1       7.541   6.965  17.785  0.00  0.00    +0.000 C 
ATOM      3  N   UNL     1       6.767   7.433  16.865  0.00  0.00    +0.000 NA
ATOM      4  C   UNL     1       5.927   6.495  16.318  0.00  0.00    +0.000 C 
ATOM      5  O   UNL     1       5.111   6.735  15.441  0.00  0.00    +0.000 OA
ATOM      6  C   UNL     1       6.056   5.107  16.913  0.00  0.00    +0.000 C 
ATOM      7  S   UNL     1       7.393   5.258  18.142  0.00  0.00    +0.000 S 
ATOM      8  H   UNL     1       8.932   7.105  19.241  0.00  0.00    +0.000 HD
ENDROOT
BRANCH   1  10
ATOM      9  C   UNL     1       9.395   9.610  19.201  0.00  0.00    +0.000 C 
ATOM     10  N   UNL     1       8.361   9.009  18.711  0.00  0.00    +0.000 NA
BRANCH   9  13
ATOM     11  C   UNL     1       9.413  13.381  18.774  0.00  0.00    +0.000 A 
ATOM     12  C   UNL     1       9.487  12.009  18.494  0.00  0.00    +0.000 A 
ATOM     13  C   UNL     1       9.352  11.058  19.511  0.00  0.00    +0.000 A 
ATOM     14  C   UNL     1       9.141  11.468  20.826  0.00  0.00    +0.000 A 
ATOM     15  C   UNL     1       9.070  12.832  21.119  0.00  0.00    +0.000 A 
ATOM     16  C   UNL     1       9.206  13.784  20.098  0.00  0.00    +0.000 A 
BRANCH  11  18
ATOM     17  C   UNL     1      10.848  14.658  17.341  0.00  0.00    +0.000 C 
ATOM     18  O   UNL     1       9.555  14.166  17.660  0.00  0.00    +0.000 OA
ENDBRANCH  11  18
BRANCH  16  19
ATOM     19  O   UNL     1       9.127  15.107  20.439  0.00  0.00    +0.000 OA
ATOM     20  H   UNL     1       8.429  15.230  21.103  0.00  0.00    +0.000 HD
ENDBRANCH  16  19
ENDBRANCH   9  13
ENDBRANCH   1  10
BRANCH   6  21
ATOM     21  C   UNL     1       4.708   4.619  17.428  0.00  0.00    +0.000 C 
BRANCH  21  22
ATOM     22  C   UNL     1       4.103   5.561  18.445  0.00  0.00    +0.000 C 
ATOM     23  O   UNL     1       4.541   5.602  19.592  0.00  0.00    +0.000 OA
ATOM     24  N   UNL     1       3.052   6.335  17.975  0.00  0.00    +0.000 N 
ATOM     25  H   UNL     1       2.503   5.953  17.212  0.00  0.00    +0.000 HD
BRANCH  24  26
ATOM     26  C   UNL     1       2.415   7.252  18.834  0.00  0.00    +0.000 A 
ATOM     27  C   UNL     1       2.076   6.886  20.139  0.00  0.00    +0.000 A 
ATOM     28  C   UNL     1       1.370   7.769  20.955  0.00  0.00    +0.000 A 
ATOM     29  C   UNL     1       0.972   9.012  20.458  0.00  0.00    +0.000 A 
ATOM     30 CL   UNL     1       0.032  10.028  21.490  0.00  0.00    +0.000 Cl
ATOM     31  C   UNL     1       1.330   9.386  19.154  0.00  0.00    +0.000 A 
ATOM     32 CL   UNL     1       0.824  10.885  18.454  0.00  0.00    +0.000 Cl
ATOM     33  C   UNL     1       2.085   8.520  18.355  0.00  0.00    +0.000 A 
ENDBRANCH  24  26
ENDBRANCH  21  22
ENDBRANCH   6  21
TORSDOF 7
ENDMDL
MODEL 7
REMARK VINA RESULT:      -8.2      1.559      2.180
REMARK  Name = 
REMARK  8 active torsions:
REMARK  status: ('A' for Active; 'I' for Inactive)
REMARK    1  A    between atoms: C_1  and  O_2
REMARK    2  A    between atoms: O_2  and  C_3
REMARK    3  A    between atoms: C_5  and  C_6
REMARK    4  A    between atoms: N_7  and  N_8
REMARK    5  A    between atoms: C_13  and  C_14
REMARK    6  A    between atoms: C_14  and  C_15
REMARK    7  A    between atoms: N_17  and  C_18
REMARK    8  A    between atoms: C_29  and  O_30
REMARK                            x       y       z     vdW  Elec       q    Type
REMARK                         _______ _______ _______ _____ _____    ______ ____
ROOT
ATOM      1  N   UNL     1       8.460   7.727  18.595  0.00  0.00    +0.000 N 
ATOM      2  C   UNL     1       7.588   6.974  17.848  0.00  0.00    +0.000 C 
ATOM      3  N   UNL     1       6.822   7.387  16.895  0.00  0.00    +0.000 NA
ATOM      4  C   UNL     1       6.035   6.402  16.352  0.00  0.00    +0.000 C 
ATOM      5  O   UNL     1       5.235   6.586  15.447  0.00  0.00    +0.000 OA
ATOM      6  C   UNL     1       6.201   5.036  16.989  0.00  0.00    +0.000 C 
ATOM      7  S   UNL     1       7.496   5.272  18.250  0.00  0.00    +0.000 S 
ATOM      8  H   UNL     1       8.931   7.208  19.336  0.00  0.00    +0.000 HD
ENDROOT
BRANCH   1  10
ATOM      9  C   UNL     1       9.376   9.793  18.714  0.00  0.00    +0.000 C 
ATOM     10  N   UNL     1       8.302   9.072  18.739  0.00  0.00    +0.000 NA
BRANCH   9  13
ATOM     11  C   UNL     1       9.407  13.167  20.451  0.00  0.00    +0.000 A 
ATOM     12  C   UNL     1       9.432  11.782  20.232  0.00  0.00    +0.000 A 
ATOM     13  C   UNL     1       9.312  11.254  18.941  0.00  0.00    +0.000 A 
ATOM     14  C   UNL     1       9.163  12.109  17.850  0.00  0.00    +0.000 A 
ATOM     15  C   UNL     1       9.132  13.490  18.056  0.00  0.00    +0.000 A 
ATOM     16  C   UNL     1       9.252  14.016  19.350  0.00  0.00    +0.000 A 
BRANCH  11  18
ATOM     17  C   UNL     1       8.840  12.750  22.741  0.00  0.00    +0.000 C 
ATOM     18  O   UNL     1       9.549  13.505  21.771  0.00  0.00    +0.000 OA
ENDBRANCH  11  18
BRANCH  16  19
ATOM     19  O   UNL     1       9.216  15.377  19.496  0.00  0.00    +0.000 OA
ATOM     20  H   UNL     1      10.007  15.768  19.090  0.00  0.00    +0.000 HD
ENDBRANCH  16  19
ENDBRANCH   9  13
ENDBRANCH   1  10
BRANCH   6  21
ATOM     21  C   UNL     1       4.858   4.510  17.482  0.00  0.00    +0.000 C 
BRANCH  21  22
ATOM     22  C   UNL     1       4.207   5.436  18.483  0.00  0.00    +0.000 C 
ATOM     23  O   UNL     1       4.585   5.454  19.652  0.00  0.00    +0.000 OA
ATOM     24  N   UNL     1       3.186   6.226  17.975  0.00  0.00    +0.000 N 
ATOM     25  H   UNL     1       2.675   5.862  17.178  0.00  0.00    +0.000 HD
BRANCH  24  26
ATOM     26  C   UNL     1       2.510   7.131  18.817  0.00  0.00    +0.000 A 
ATOM     27  C   UNL     1       2.079   6.734  20.085  0.00  0.00    +0.000 A 
ATOM     28  C   UNL     1       1.337   7.608  20.879  0.00  0.00    +0.000 A 
ATOM     29  C   UNL     1       0.995   8.872  20.394  0.00  0.00    +0.000 A 
ATOM     30 CL   UNL     1       0.008   9.878  21.393  0.00  0.00    +0.000 Cl
ATOM     31  C   UNL     1       1.446   9.276  19.129  0.00  0.00    +0.000 A 
ATOM     32 CL   UNL     1       1.015  10.804  18.442  0.00  0.00    +0.000 Cl
ATOM     33  C   UNL     1       2.236   8.418  18.355  0.00  0.00    +0.000 A 
ENDBRANCH  24  26
ENDBRANCH  21  22
ENDBRANCH   6  21
TORSDOF 7
ENDMDL
MODEL 8
REMARK VINA RESULT:      -8.0      5.477      9.039
REMARK  Name = 
REMARK  8 active torsions:
REMARK  status: ('A' for Active; 'I' for Inactive)
REMARK    1  A    between atoms: C_1  and  O_2
REMARK    2  A    between atoms: O_2  and  C_3
REMARK    3  A    between atoms: C_5  and  C_6
REMARK    4  A    between atoms: N_7  and  N_8
REMARK    5  A    between atoms: C_13  and  C_14
REMARK    6  A    between atoms: C_14  and  C_15
REMARK    7  A    between atoms: N_17  and  C_18
REMARK    8  A    between atoms: C_29  and  O_30
REMARK                            x       y       z     vdW  Elec       q    Type
REMARK                         _______ _______ _______ _____ _____    ______ ____
ROOT
ATOM      1  N   UNL     1       1.185   8.871  17.858  0.00  0.00    +0.000 N 
ATOM      2  C   UNL     1       1.120  10.127  18.410  0.00  0.00    +0.000 C 
ATOM      3  N   UNL     1       2.056  11.014  18.438  0.00  0.00    +0.000 NA
ATOM      4  C   UNL     1       1.704  12.170  19.089  0.00  0.00    +0.000 C 
ATOM      5  O   UNL     1       2.449  13.128  19.235  0.00  0.00    +0.000 OA
ATOM      6  C   UNL     1       0.301  12.170  19.664  0.00  0.00    +0.000 C 
ATOM      7  S   UNL     1      -0.396  10.559  19.172  0.00  0.00    +0.000 S 
ATOM      8  H   UNL     1       0.343   8.311  17.994  0.00  0.00    +0.000 HD
ENDROOT
BRANCH   1  10
ATOM      9  C   UNL     1       2.507   7.076  18.241  0.00  0.00    +0.000 C 
ATOM     10  N   UNL     1       2.372   8.230  17.675  0.00  0.00    +0.000 NA
BRANCH   9  13
ATOM     11  C   UNL     1       5.188   4.452  18.815  0.00  0.00    +0.000 A 
ATOM     12  C   UNL     1       3.989   5.173  18.909  0.00  0.00    +0.000 A 
ATOM     13  C   UNL     1       3.790   6.341  18.164  0.00  0.00    +0.000 A 
ATOM     14  C   UNL     1       4.792   6.804  17.313  0.00  0.00    +0.000 A 
ATOM     15  C   UNL     1       5.993   6.097  17.215  0.00  0.00    +0.000 A 
ATOM     16  C   UNL     1       6.190   4.928  17.963  0.00  0.00    +0.000 A 
BRANCH  11  18
ATOM     17  C   UNL     1       3.970   2.700  19.906  0.00  0.00    +0.000 C 
ATOM     18  O   UNL     1       5.205   3.332  19.603  0.00  0.00    +0.000 OA
ENDBRANCH  11  18
BRANCH  16  19
ATOM     19  O   UNL     1       7.385   4.273  17.828  0.00  0.00    +0.000 OA
ATOM     20  H   UNL     1       7.235   3.406  17.417  0.00  0.00    +0.000 HD
ENDBRANCH  16  19
ENDBRANCH   9  13
ENDBRANCH   1  10
BRANCH   6  21
ATOM     21  C   UNL     1       0.336  12.471  21.157  0.00  0.00    +0.000 C 
BRANCH  21  22
ATOM     22  C   UNL     1      -1.025  12.344  21.803  0.00  0.00    +0.000 C 
ATOM     23  O   UNL     1      -1.272  11.403  22.554  0.00  0.00    +0.000 OA
ATOM     24  N   UNL     1      -1.926  13.347  21.476  0.00  0.00    +0.000 N 
ATOM     25  H   UNL     1      -1.805  13.801  20.577  0.00  0.00    +0.000 HD
BRANCH  24  26
ATOM     26  C   UNL     1      -3.224  13.334  22.024  0.00  0.00    +0.000 A 
ATOM     27  C   UNL     1      -3.453  13.807  23.319  0.00  0.00    +0.000 A 
ATOM     28  C   UNL     1      -4.723  13.713  23.886  0.00  0.00    +0.000 A 
ATOM     29  C   UNL     1      -5.763  13.115  23.172  0.00  0.00    +0.000 A 
ATOM     30 CL   UNL     1      -7.293  12.957  23.959  0.00  0.00    +0.000 Cl
ATOM     31  C   UNL     1      -5.537  12.659  21.866  0.00  0.00    +0.000 A 
ATOM     32 CL   UNL     1      -6.763  11.859  20.944  0.00  0.00    +0.000 Cl
ATOM     33  C   UNL     1      -4.275  12.803  21.277  0.00  0.00    +0.000 A 
ENDBRANCH  24  26
ENDBRANCH  21  22
ENDBRANCH   6  21
TORSDOF 7
ENDMDL
MODEL 9
REMARK VINA RESULT:      -8.0      5.135      8.397
REMARK  Name = 
REMARK  8 active torsions:
REMARK  status: ('A' for Active; 'I' for Inactive)
REMARK    1  A    between atoms: C_1  and  O_2
REMARK    2  A    between atoms: O_2  and  C_3
REMARK    3  A    between atoms: C_5  and  C_6
REMARK    4  A    between atoms: N_7  and  N_8
REMARK    5  A    between atoms: C_13  and  C_14
REMARK    6  A    between atoms: C_14  and  C_15
REMARK    7  A    between atoms: N_17  and  C_18
REMARK    8  A    between atoms: C_29  and  O_30
REMARK                            x       y       z     vdW  Elec       q    Type
REMARK                         _______ _______ _______ _____ _____    ______ ____
ROOT
ATOM      1  N   UNL     1       2.434   6.906  20.024  0.00  0.00    +0.000 N 
ATOM      2  C   UNL     1       1.615   8.008  20.002  0.00  0.00    +0.000 C 
ATOM      3  N   UNL     1       1.419   8.813  19.014  0.00  0.00    +0.000 NA
ATOM      4  C   UNL     1       0.564   9.847  19.303  0.00  0.00    +0.000 C 
ATOM      5  O   UNL     1       0.254  10.722  18.509  0.00  0.00    +0.000 OA
ATOM      6  C   UNL     1       0.038   9.853  20.725  0.00  0.00    +0.000 C 
ATOM      7  S   UNL     1       0.759   8.364  21.488  0.00  0.00    +0.000 S 
ATOM      8  H   UNL     1       2.482   6.438  20.929  0.00  0.00    +0.000 HD
ENDROOT
BRANCH   1  10
ATOM      9  C   UNL     1       3.430   5.810  18.314  0.00  0.00    +0.000 C 
ATOM     10  N   UNL     1       3.486   6.779  19.168  0.00  0.00    +0.000 NA
BRANCH   9  13
ATOM     11  C   UNL     1       6.758   6.137  16.519  0.00  0.00    +0.000 A 
ATOM     12  C   UNL     1       5.668   6.401  17.360  0.00  0.00    +0.000 A 
ATOM     13  C   UNL     1       4.562   5.545  17.396  0.00  0.00    +0.000 A 
ATOM     14  C   UNL     1       4.532   4.410  16.587  0.00  0.00    +0.000 A 
ATOM     15  C   UNL     1       5.610   4.139  15.741  0.00  0.00    +0.000 A 
ATOM     16  C   UNL     1       6.717   4.999  15.707  0.00  0.00    +0.000 A 
BRANCH  11  18
ATOM     17  C   UNL     1       7.683   8.023  17.673  0.00  0.00    +0.000 C 
ATOM     18  O   UNL     1       7.755   7.071  16.622  0.00  0.00    +0.000 OA
ENDBRANCH  11  18
BRANCH  16  19
ATOM     19  O   UNL     1       7.747   4.686  14.861  0.00  0.00    +0.000 OA
ATOM     20  H   UNL     1       8.542   4.480  15.379  0.00  0.00    +0.000 HD
ENDBRANCH  16  19
ENDBRANCH   9  13
ENDBRANCH   1  10
BRANCH   6  21
ATOM     21  C   UNL     1       0.344  11.183  21.402  0.00  0.00    +0.000 C 
BRANCH  21  22
ATOM     22  C   UNL     1      -0.824  11.704  22.208  0.00  0.00    +0.000 C 
ATOM     23  O   UNL     1      -1.015  11.306  23.355  0.00  0.00    +0.000 OA
ATOM     24  N   UNL     1      -1.623  12.630  21.553  0.00  0.00    +0.000 N 
ATOM     25  H   UNL     1      -1.658  12.574  20.541  0.00  0.00    +0.000 HD
BRANCH  24  26
ATOM     26  C   UNL     1      -2.738  13.187  22.209  0.00  0.00    +0.000 A 
ATOM     27  C   UNL     1      -4.035  12.841  21.823  0.00  0.00    +0.000 A 
ATOM     28  C   UNL     1      -5.133  13.460  22.419  0.00  0.00    +0.000 A 
ATOM     29  C   UNL     1      -4.938  14.452  23.381  0.00  0.00    +0.000 A 
ATOM     30 CL   UNL     1      -6.336  15.237  24.024  0.00  0.00    +0.000 Cl
ATOM     31  C   UNL     1      -3.636  14.785  23.782  0.00  0.00    +0.000 A 
ATOM     32 CL   UNL     1      -3.317  16.042  24.927  0.00  0.00    +0.000 Cl
ATOM     33  C   UNL     1      -2.536  14.124  23.222  0.00  0.00    +0.000 A 
ENDBRANCH  24  26
ENDBRANCH  21  22
ENDBRANCH   6  21
TORSDOF 7
ENDMDL
