MODEL 1
REMARK VINA RESULT:      -7.9      0.000      0.000
REMARK  Name = 
REMARK  8 active torsions:
REMARK  status: ('A' for Active; 'I' for Inactive)
REMARK    1  A    between atoms: C_1  and  C_2
REMARK    2  A    between atoms: C_2  and  C_4
REMARK    3  A    between atoms: C_7  and  N_8
REMARK    4  A    between atoms: C_9  and  C_10
REMARK    5  A    between atoms: C_10  and  C_11
REMARK    6  A    between atoms: C_11  and  C_12
REMARK    7  A    between atoms: C_12  and  O_14
REMARK    8  A    between atoms: C_17  and  C_18
REMARK                            x       y       z     vdW  Elec       q    Type
REMARK                         _______ _______ _______ _____ _____    ______ ____
ROOT
ATOM      1  N   UNL     1       3.465   5.134  17.989  0.00  0.00    +0.000 N 
ATOM      2  C   UNL     1       2.752   3.954  17.716  0.00  0.00    +0.000 A 
ATOM      3  C   UNL     1       3.651   3.007  17.268  0.00  0.00    +0.000 A 
ATOM      4  C   UNL     1       4.921   3.599  17.235  0.00  0.00    +0.000 A 
ATOM      5  C   UNL     1       4.822   4.910  17.687  0.00  0.00    +0.000 A 
ENDROOT
BRANCH   1   9
ATOM      6  C   UNL     1       1.677   8.730  19.358  0.00  0.00    +0.000 A 
ATOM      7  C   UNL     1       1.925   7.679  20.245  0.00  0.00    +0.000 A 
ATOM      8  C   UNL     1       2.545   6.512  19.794  0.00  0.00    +0.000 A 
ATOM      9  C   UNL     1       2.877   6.357  18.443  0.00  0.00    +0.000 A 
ATOM     10  C   UNL     1       2.622   7.405  17.550  0.00  0.00    +0.000 A 
ATOM     11  C   UNL     1       2.045   8.594  18.012  0.00  0.00    +0.000 A 
BRANCH   6  13
ATOM     12  C   UNL     1       0.850  11.111  18.812  0.00  0.00    +0.000 C 
ATOM     13  C   UNL     1       1.036   9.998  19.811  0.00  0.00    +0.000 C 
ATOM     14  O   UNL     1       0.679  10.121  20.981  0.00  0.00    +0.000 OA
ENDBRANCH   6  13
ENDBRANCH   1   9
BRANCH   5  15
ATOM     15  C   UNL     1       5.960   5.837  17.890  0.00  0.00    +0.000 A 
ATOM     16  C   UNL     1       6.908   5.570  18.892  0.00  0.00    +0.000 A 
ATOM     17  C   UNL     1       7.996   6.423  19.106  0.00  0.00    +0.000 A 
ATOM     18  C   UNL     1       8.169   7.546  18.303  0.00  0.00    +0.000 A 
ATOM     19  C   UNL     1       7.232   7.840  17.319  0.00  0.00    +0.000 A 
ATOM     20  C   UNL     1       6.117   7.013  17.142  0.00  0.00    +0.000 A 
ENDBRANCH   5  15
BRANCH   2  21
ATOM     21  C   UNL     1       1.259   3.759  17.819  0.00  0.00    +0.000 C 
BRANCH  21  22
ATOM     22  C   UNL     1       0.860   2.602  18.731  0.00  0.00    +0.000 C 
BRANCH  22  23
ATOM     23  C   UNL     1       1.041   2.960  20.181  0.00  0.00    +0.000 C 
ATOM     24  O   UNL     1       1.648   2.294  21.005  0.00  0.00    +0.000 OA
BRANCH  23  25
ATOM     25  O   UNL     1       0.452   4.135  20.502  0.00  0.00    +0.000 OA
ATOM     26  H   UNL     1       0.088   4.611  19.728  0.00  0.00    +0.000 HD
ENDBRANCH  23  25
ENDBRANCH  22  23
ENDBRANCH  21  22
ENDBRANCH   2  21
TORSDOF 7
ENDMDL
MODEL 2
REMARK VINA RESULT:      -7.8      0.571      1.207
REMARK  Name = 
REMARK  8 active torsions:
REMARK  status: ('A' for Active; 'I' for Inactive)
REMARK    1  A    between atoms: C_1  and  C_2
REMARK    2  A    between atoms: C_2  and  C_4
REMARK    3  A    between atoms: C_7  and  N_8
REMARK    4  A    between atoms: C_9  and  C_10
REMARK    5  A    between atoms: C_10  and  C_11
REMARK    6  A    between atoms: C_11  and  C_12
REMARK    7  A    between atoms: C_12  and  O_14
REMARK    8  A    between atoms: C_17  and  C_18
REMARK                            x       y       z     vdW  Elec       q    Type
REMARK                         _______ _______ _______ _____ _____    ______ ____
ROOT
ATOM      1  N   UNL     1       3.529   5.099  17.931  0.00  0.00    +0.000 N 
ATOM      2  C   UNL     1       2.819   3.932  17.600  0.00  0.00    +0.000 A 
ATOM      3  C   UNL     1       3.721   3.008  17.114  0.00  0.00    +0.000 A 
ATOM      4  C   UNL     1       4.990   3.601  17.115  0.00  0.00    +0.000 A 
ATOM      5  C   UNL     1       4.888   4.890  17.626  0.00  0.00    +0.000 A 
ENDROOT
BRANCH   1   9
ATOM      6  C   UNL     1       1.731   8.628  19.453  0.00  0.00    +0.000 A 
ATOM      7  C   UNL     1       1.945   7.525  20.285  0.00  0.00    +0.000 A 
ATOM      8  C   UNL     1       2.569   6.379  19.786  0.00  0.00    +0.000 A 
ATOM      9  C   UNL     1       2.939   6.300  18.437  0.00  0.00    +0.000 A 
ATOM     10  C   UNL     1       2.717   7.399  17.599  0.00  0.00    +0.000 A 
ATOM     11  C   UNL     1       2.136   8.565  18.113  0.00  0.00    +0.000 A 
BRANCH   6  13
ATOM     12  C   UNL     1       0.486   9.866  21.342  0.00  0.00    +0.000 C 
ATOM     13  C   UNL     1       1.087   9.873  19.960  0.00  0.00    +0.000 C 
ATOM     14  O   UNL     1       1.049  10.876  19.250  0.00  0.00    +0.000 OA
ENDBRANCH   6  13
ENDBRANCH   1   9
BRANCH   5  15
ATOM     15  C   UNL     1       6.024   5.807  17.877  0.00  0.00    +0.000 A 
ATOM     16  C   UNL     1       6.171   6.967  17.096  0.00  0.00    +0.000 A 
ATOM     17  C   UNL     1       7.229   7.855  17.310  0.00  0.00    +0.000 A 
ATOM     18  C   UNL     1       8.148   7.613  18.327  0.00  0.00    +0.000 A 
ATOM     19  C   UNL     1       8.033   6.461  19.098  0.00  0.00    +0.000 A 
ATOM     20  C   UNL     1       7.003   5.549  18.847  0.00  0.00    +0.000 A 
ENDBRANCH   5  15
BRANCH   2  21
ATOM     21  C   UNL     1       1.325   3.732  17.686  0.00  0.00    +0.000 C 
BRANCH  21  22
ATOM     22  C   UNL     1       0.919   2.585  18.607  0.00  0.00    +0.000 C 
BRANCH  22  23
ATOM     23  C   UNL     1       1.382   2.826  20.019  0.00  0.00    +0.000 C 
ATOM     24  O   UNL     1       2.387   2.353  20.526  0.00  0.00    +0.000 OA
BRANCH  23  25
ATOM     25  O   UNL     1       0.554   3.650  20.701  0.00  0.00    +0.000 OA
ATOM     26  H   UNL     1       0.321   4.463  20.208  0.00  0.00    +0.000 HD
ENDBRANCH  23  25
ENDBRANCH  22  23
ENDBRANCH  21  22
ENDBRANCH   2  21
TORSDOF 7
ENDMDL
MODEL 3
REMARK VINA RESULT:      -7.8      0.546      1.525
REMARK  Name = 
REMARK  8 active torsions:
REMARK  status: ('A' for Active; 'I' for Inactive)
REMARK    1  A    between atoms: C_1  and  C_2
REMARK    2  A    between atoms: C_2  and  C_4
REMARK    3  A    between atoms: C_7  and  N_8
REMARK    4  A    between atoms: C_9  and  C_10
REMARK    5  A    between atoms: C_10  and  C_11
REMARK    6  A    between atoms: C_11  and  C_12
REMARK    7  A    between atoms: C_12  and  O_14
REMARK    8  A    between atoms: C_17  and  C_18
REMARK                            x       y       z     vdW  Elec       q    Type
REMARK                         _______ _______ _______ _____ _____    ______ ____
ROOT
ATOM      1  N   UNL     1       3.408   5.070  17.978  0.00  0.00    +0.000 N 
ATOM      2  C   UNL     1       2.691   3.891  17.716  0.00  0.00    +0.000 A 
ATOM      3  C   UNL     1       3.588   2.933  17.289  0.00  0.00    +0.000 A 
ATOM      4  C   UNL     1       4.862   3.517  17.258  0.00  0.00    +0.000 A 
ATOM      5  C   UNL     1       4.766   4.834  17.691  0.00  0.00    +0.000 A 
ENDROOT
BRANCH   1   9
ATOM      6  C   UNL     1       1.719   8.756  19.230  0.00  0.00    +0.000 A 
ATOM      7  C   UNL     1       2.030   8.538  17.885  0.00  0.00    +0.000 A 
ATOM      8  C   UNL     1       2.553   7.310  17.475  0.00  0.00    +0.000 A 
ATOM      9  C   UNL     1       2.823   6.303  18.409  0.00  0.00    +0.000 A 
ATOM     10  C   UNL     1       2.522   6.521  19.760  0.00  0.00    +0.000 A 
ATOM     11  C   UNL     1       1.952   7.735  20.162  0.00  0.00    +0.000 A 
BRANCH   6  13
ATOM     12  C   UNL     1       0.683  10.159  21.129  0.00  0.00    +0.000 C 
ATOM     13  C   UNL     1       1.140  10.048  19.697  0.00  0.00    +0.000 C 
ATOM     14  O   UNL     1       1.036  10.991  18.916  0.00  0.00    +0.000 OA
ENDBRANCH   6  13
ENDBRANCH   1   9
BRANCH   5  15
ATOM     15  C   UNL     1       5.908   5.758  17.890  0.00  0.00    +0.000 A 
ATOM     16  C   UNL     1       6.023   6.908  17.091  0.00  0.00    +0.000 A 
ATOM     17  C   UNL     1       7.085   7.802  17.256  0.00  0.00    +0.000 A 
ATOM     18  C   UNL     1       8.040   7.575  18.243  0.00  0.00    +0.000 A 
ATOM     19  C   UNL     1       7.956   6.433  19.032  0.00  0.00    +0.000 A 
ATOM     20  C   UNL     1       6.920   5.515  18.828  0.00  0.00    +0.000 A 
ENDBRANCH   5  15
BRANCH   2  21
ATOM     21  C   UNL     1       1.196   3.705  17.808  0.00  0.00    +0.000 C 
BRANCH  21  22
ATOM     22  C   UNL     1       0.781   2.594  18.769  0.00  0.00    +0.000 C 
BRANCH  22  23
ATOM     23  C   UNL     1       1.099   2.957  20.195  0.00  0.00    +0.000 C 
ATOM     24  O   UNL     1       1.827   2.322  20.942  0.00  0.00    +0.000 OA
BRANCH  23  25
ATOM     25  O   UNL     1       0.485   4.096  20.589  0.00  0.00    +0.000 OA
ATOM     26  H   UNL     1       0.984   4.906  20.358  0.00  0.00    +0.000 HD
ENDBRANCH  23  25
ENDBRANCH  22  23
ENDBRANCH  21  22
ENDBRANCH   2  21
TORSDOF 7
ENDMDL
MODEL 4
REMARK VINA RESULT:      -7.6      0.578      1.338
REMARK  Name = 
REMARK  8 active torsions:
REMARK  status: ('A' for Active; 'I' for Inactive)
REMARK    1  A    between atoms: C_1  and  C_2
REMARK    2  A    between atoms: C_2  and  C_4
REMARK    3  A    between atoms: C_7  and  N_8
REMARK    4  A    between atoms: C_9  and  C_10
REMARK    5  A    between atoms: C_10  and  C_11
REMARK    6  A    between atoms: C_11  and  C_12
REMARK    7  A    between atoms: C_12  and  O_14
REMARK    8  A    between atoms: C_17  and  C_18
REMARK                            x       y       z     vdW  Elec       q    Type
REMARK                         _______ _______ _______ _____ _____    ______ ____
ROOT
ATOM      1  N   UNL     1       3.470   5.170  17.907  0.00  0.00    +0.000 N 
ATOM      2  C   UNL     1       2.763   3.990  17.621  0.00  0.00    +0.000 A 
ATOM      3  C   UNL     1       3.674   3.037  17.211  0.00  0.00    +0.000 A 
ATOM      4  C   UNL     1       4.946   3.626  17.215  0.00  0.00    +0.000 A 
ATOM      5  C   UNL     1       4.835   4.940  17.651  0.00  0.00    +0.000 A 
ENDROOT
BRANCH   1   9
ATOM      6  C   UNL     1       1.739   8.844  19.135  0.00  0.00    +0.000 A 
ATOM      7  C   UNL     1       2.065   8.627  17.793  0.00  0.00    +0.000 A 
ATOM      8  C   UNL     1       2.602   7.402  17.391  0.00  0.00    +0.000 A 
ATOM      9  C   UNL     1       2.871   6.399  18.330  0.00  0.00    +0.000 A 
ATOM     10  C   UNL     1       2.554   6.617  19.676  0.00  0.00    +0.000 A 
ATOM     11  C   UNL     1       1.969   7.827  20.070  0.00  0.00    +0.000 A 
BRANCH   6  13
ATOM     12  C   UNL     1       0.116  10.102  20.695  0.00  0.00    +0.000 C 
ATOM     13  C   UNL     1       1.143  10.132  19.594  0.00  0.00    +0.000 C 
ATOM     14  O   UNL     1       1.489  11.189  19.068  0.00  0.00    +0.000 OA
ENDBRANCH   6  13
ENDBRANCH   1   9
BRANCH   5  15
ATOM     15  C   UNL     1       5.968   5.867  17.882  0.00  0.00    +0.000 A 
ATOM     16  C   UNL     1       6.906   5.585  18.890  0.00  0.00    +0.000 A 
ATOM     17  C   UNL     1       7.989   6.437  19.131  0.00  0.00    +0.000 A 
ATOM     18  C   UNL     1       8.168   7.575  18.350  0.00  0.00    +0.000 A 
ATOM     19  C   UNL     1       7.241   7.883  17.360  0.00  0.00    +0.000 A 
ATOM     20  C   UNL     1       6.131   7.056  17.157  0.00  0.00    +0.000 A 
ENDBRANCH   5  15
BRANCH   2  21
ATOM     21  C   UNL     1       1.267   3.799  17.677  0.00  0.00    +0.000 C 
BRANCH  21  22
ATOM     22  C   UNL     1       0.828   2.731  18.676  0.00  0.00    +0.000 C 
BRANCH  22  23
ATOM     23  C   UNL     1       1.272   3.074  20.073  0.00  0.00    +0.000 C 
ATOM     24  O   UNL     1       0.859   4.011  20.738  0.00  0.00    +0.000 OA
BRANCH  23  25
ATOM     25  O   UNL     1       2.204   2.215  20.545  0.00  0.00    +0.000 OA
ATOM     26  H   UNL     1       2.336   1.432  19.974  0.00  0.00    +0.000 HD
ENDBRANCH  23  25
ENDBRANCH  22  23
ENDBRANCH  21  22
ENDBRANCH   2  21
TORSDOF 7
ENDMDL
MODEL 5
REMARK VINA RESULT:      -7.2      0.763      1.337
REMARK  Name = 
REMARK  8 active torsions:
REMARK  status: ('A' for Active; 'I' for Inactive)
REMARK    1  A    between atoms: C_1  and  C_2
REMARK    2  A    between atoms: C_2  and  C_4
REMARK    3  A    between atoms: C_7  and  N_8
REMARK    4  A    between atoms: C_9  and  C_10
REMARK    5  A    between atoms: C_10  and  C_11
REMARK    6  A    between atoms: C_11  and  C_12
REMARK    7  A    between atoms: C_12  and  O_14
REMARK    8  A    between atoms: C_17  and  C_18
REMARK                            x       y       z     vdW  Elec       q    Type
REMARK                         _______ _______ _______ _____ _____    ______ ____
ROOT
ATOM      1  N   UNL     1       3.321   4.989  18.538  0.00  0.00    +0.000 N 
ATOM      2  C   UNL     1       2.609   3.778  18.521  0.00  0.00    +0.000 A 
ATOM      3  C   UNL     1       3.490   2.770  18.184  0.00  0.00    +0.000 A 
ATOM      4  C   UNL     1       4.747   3.351  17.966  0.00  0.00    +0.000 A 
ATOM      5  C   UNL     1       4.659   4.720  18.189  0.00  0.00    +0.000 A 
ENDROOT
BRANCH   1   9
ATOM      6  C   UNL     1       1.574   8.763  19.377  0.00  0.00    +0.000 A 
ATOM      7  C   UNL     1       1.853   7.865  20.411  0.00  0.00    +0.000 A 
ATOM      8  C   UNL     1       2.461   6.639  20.131  0.00  0.00    +0.000 A 
ATOM      9  C   UNL     1       2.747   6.271  18.811  0.00  0.00    +0.000 A 
ATOM     10  C   UNL     1       2.459   7.165  17.772  0.00  0.00    +0.000 A 
ATOM     11  C   UNL     1       1.896   8.414  18.059  0.00  0.00    +0.000 A 
BRANCH   6  13
ATOM     12  C   UNL     1       0.133  10.737  18.554  0.00  0.00    +0.000 C 
ATOM     13  C   UNL     1       0.946  10.089  19.644  0.00  0.00    +0.000 C 
ATOM     14  O   UNL     1       1.105  10.634  20.735  0.00  0.00    +0.000 OA
ENDBRANCH   6  13
ENDBRANCH   1   9
BRANCH   5  15
ATOM     15  C   UNL     1       5.794   5.671  18.153  0.00  0.00    +0.000 A 
ATOM     16  C   UNL     1       5.801   6.714  17.211  0.00  0.00    +0.000 A 
ATOM     17  C   UNL     1       6.855   7.631  17.152  0.00  0.00    +0.000 A 
ATOM     18  C   UNL     1       7.911   7.536  18.054  0.00  0.00    +0.000 A 
ATOM     19  C   UNL     1       7.935   6.500  18.981  0.00  0.00    +0.000 A 
ATOM     20  C   UNL     1       6.904   5.555  19.001  0.00  0.00    +0.000 A 
ENDBRANCH   5  15
BRANCH   2  21
ATOM     21  C   UNL     1       1.128   3.600  18.754  0.00  0.00    +0.000 C 
BRANCH  21  22
ATOM     22  C   UNL     1       0.713   3.816  20.207  0.00  0.00    +0.000 C 
BRANCH  22  23
ATOM     23  C   UNL     1       1.644   3.106  21.153  0.00  0.00    +0.000 C 
ATOM     24  O   UNL     1       2.282   3.636  22.050  0.00  0.00    +0.000 OA
BRANCH  23  25
ATOM     25  O   UNL     1       1.711   1.777  20.914  0.00  0.00    +0.000 OA
ATOM     26  H   UNL     1       2.620   1.417  20.969  0.00  0.00    +0.000 HD
ENDBRANCH  23  25
ENDBRANCH  22  23
ENDBRANCH  21  22
ENDBRANCH   2  21
TORSDOF 7
ENDMDL
MODEL 6
REMARK VINA RESULT:      -7.2      1.167      1.478
REMARK  Name = 
REMARK  8 active torsions:
REMARK  status: ('A' for Active; 'I' for Inactive)
REMARK    1  A    between atoms: C_1  and  C_2
REMARK    2  A    between atoms: C_2  and  C_4
REMARK    3  A    between atoms: C_7  and  N_8
REMARK    4  A    between atoms: C_9  and  C_10
REMARK    5  A    between atoms: C_10  and  C_11
REMARK    6  A    between atoms: C_11  and  C_12
REMARK    7  A    between atoms: C_12  and  O_14
REMARK    8  A    between atoms: C_17  and  C_18
REMARK                            x       y       z     vdW  Elec       q    Type
REMARK                         _______ _______ _______ _____ _____    ______ ____
ROOT
ATOM      1  N   UNL     1       4.451   5.189  17.516  0.00  0.00    +0.000 N 
ATOM      2  C   UNL     1       4.006   3.976  16.965  0.00  0.00    +0.000 A 
ATOM      3  C   UNL     1       5.082   3.369  16.348  0.00  0.00    +0.000 A 
ATOM      4  C   UNL     1       6.193   4.211  16.490  0.00  0.00    +0.000 A 
ATOM      5  C   UNL     1       5.820   5.335  17.217  0.00  0.00    +0.000 A 
ENDROOT
BRANCH   1   9
ATOM      6  C   UNL     1       1.948   7.921  19.583  0.00  0.00    +0.000 A 
ATOM      7  C   UNL     1       2.364   6.736  20.197  0.00  0.00    +0.000 A 
ATOM      8  C   UNL     1       3.217   5.859  19.523  0.00  0.00    +0.000 A 
ATOM      9  C   UNL     1       3.620   6.126  18.209  0.00  0.00    +0.000 A 
ATOM     10  C   UNL     1       3.197   7.307  17.588  0.00  0.00    +0.000 A 
ATOM     11  C   UNL     1       2.383   8.210  18.283  0.00  0.00    +0.000 A 
BRANCH   6  13
ATOM     12  C   UNL     1       0.879   8.762  21.774  0.00  0.00    +0.000 C 
ATOM     13  C   UNL     1       1.056   8.890  20.283  0.00  0.00    +0.000 C 
ATOM     14  O   UNL     1       0.477   9.764  19.641  0.00  0.00    +0.000 OA
ENDBRANCH   6  13
ENDBRANCH   1   9
BRANCH   5  15
ATOM     15  C   UNL     1       6.733   6.416  17.657  0.00  0.00    +0.000 A 
ATOM     16  C   UNL     1       7.643   6.178  18.701  0.00  0.00    +0.000 A 
ATOM     17  C   UNL     1       8.522   7.175  19.138  0.00  0.00    +0.000 A 
ATOM     18  C   UNL     1       8.523   8.422  18.520  0.00  0.00    +0.000 A 
ATOM     19  C   UNL     1       7.617   8.685  17.499  0.00  0.00    +0.000 A 
ATOM     20  C   UNL     1       6.705   7.702  17.100  0.00  0.00    +0.000 A 
ENDBRANCH   5  15
BRANCH   2  21
ATOM     21  C   UNL     1       2.593   3.447  16.972  0.00  0.00    +0.000 C 
BRANCH  21  22
ATOM     22  C   UNL     1       2.430   2.161  17.777  0.00  0.00    +0.000 C 
BRANCH  22  23
ATOM     23  C   UNL     1       1.455   2.343  18.908  0.00  0.00    +0.000 C 
ATOM     24  O   UNL     1       1.752   2.580  20.069  0.00  0.00    +0.000 OA
BRANCH  23  25
ATOM     25  O   UNL     1       0.169   2.219  18.508  0.00  0.00    +0.000 OA
ATOM     26  H   UNL     1      -0.365   1.639  19.088  0.00  0.00    +0.000 HD
ENDBRANCH  23  25
ENDBRANCH  22  23
ENDBRANCH  21  22
ENDBRANCH   2  21
TORSDOF 7
ENDMDL
MODEL 7
REMARK VINA RESULT:      -7.2      1.027      1.272
REMARK  Name = 
REMARK  8 active torsions:
REMARK  status: ('A' for Active; 'I' for Inactive)
REMARK    1  A    between atoms: C_1  and  C_2
REMARK    2  A    between atoms: C_2  and  C_4
REMARK    3  A    between atoms: C_7  and  N_8
REMARK    4  A    between atoms: C_9  and  C_10
REMARK    5  A    between atoms: C_10  and  C_11
REMARK    6  A    between atoms: C_11  and  C_12
REMARK    7  A    between atoms: C_12  and  O_14
REMARK    8  A    between atoms: C_17  and  C_18
REMARK                            x       y       z     vdW  Elec       q    Type
REMARK                         _______ _______ _______ _____ _____    ______ ____
ROOT
ATOM      1  N   UNL     1       3.407   5.018  18.696  0.00  0.00    +0.000 N 
ATOM      2  C   UNL     1       2.727   3.795  18.818  0.00  0.00    +0.000 A 
ATOM      3  C   UNL     1       3.631   2.779  18.583  0.00  0.00    +0.000 A 
ATOM      4  C   UNL     1       4.871   3.365  18.289  0.00  0.00    +0.000 A 
ATOM      5  C   UNL     1       4.749   4.747  18.364  0.00  0.00    +0.000 A 
ENDROOT
BRANCH   1   9
ATOM      6  C   UNL     1       1.565   8.815  19.136  0.00  0.00    +0.000 A 
ATOM      7  C   UNL     1       1.776   7.996  20.249  0.00  0.00    +0.000 A 
ATOM      8  C   UNL     1       2.415   6.763  20.101  0.00  0.00    +0.000 A 
ATOM      9  C   UNL     1       2.802   6.308  18.835  0.00  0.00    +0.000 A 
ATOM     10  C   UNL     1       2.583   7.122  17.717  0.00  0.00    +0.000 A 
ATOM     11  C   UNL     1       1.988   8.380  17.873  0.00  0.00    +0.000 A 
BRANCH   6  13
ATOM     12  C   UNL     1      -0.379  10.247  20.042  0.00  0.00    +0.000 C 
ATOM     13  C   UNL     1       0.907  10.147  19.262  0.00  0.00    +0.000 C 
ATOM     14  O   UNL     1       1.411  11.134  18.729  0.00  0.00    +0.000 OA
ENDBRANCH   6  13
ENDBRANCH   1   9
BRANCH   5  15
ATOM     15  C   UNL     1       5.858   5.717  18.212  0.00  0.00    +0.000 A 
ATOM     16  C   UNL     1       6.971   5.644  19.067  0.00  0.00    +0.000 A 
ATOM     17  C   UNL     1       8.037   6.542  18.948  0.00  0.00    +0.000 A 
ATOM     18  C   UNL     1       8.020   7.514  17.952  0.00  0.00    +0.000 A 
ATOM     19  C   UNL     1       6.920   7.617  17.109  0.00  0.00    +0.000 A 
ATOM     20  C   UNL     1       5.833   6.750  17.265  0.00  0.00    +0.000 A 
ENDBRANCH   5  15
BRANCH   2  21
ATOM     21  C   UNL     1       1.254   3.606  19.085  0.00  0.00    +0.000 C 
BRANCH  21  22
ATOM     22  C   UNL     1       0.963   2.892  20.403  0.00  0.00    +0.000 C 
BRANCH  22  23
ATOM     23  C   UNL     1       1.949   3.288  21.469  0.00  0.00    +0.000 C 
ATOM     24  O   UNL     1       2.166   4.429  21.845  0.00  0.00    +0.000 OA
BRANCH  23  25
ATOM     25  O   UNL     1       2.596   2.224  21.997  0.00  0.00    +0.000 OA
ATOM     26  H   UNL     1       2.548   1.423  21.437  0.00  0.00    +0.000 HD
ENDBRANCH  23  25
ENDBRANCH  22  23
ENDBRANCH  21  22
ENDBRANCH   2  21
TORSDOF 7
ENDMDL
MODEL 8
REMARK VINA RESULT:      -7.2      1.532      2.052
REMARK  Name = 
REMARK  8 active torsions:
REMARK  status: ('A' for Active; 'I' for Inactive)
REMARK    1  A    between atoms: C_1  and  C_2
REMARK    2  A    between atoms: C_2  and  C_4
REMARK    3  A    between atoms: C_7  and  N_8
REMARK    4  A    between atoms: C_9  and  C_10
REMARK    5  A    between atoms: C_10  and  C_11
REMARK    6  A    between atoms: C_11  and  C_12
REMARK    7  A    between atoms: C_12  and  O_14
REMARK    8  A    between atoms: C_17  and  C_18
REMARK                            x       y       z     vdW  Elec       q    Type
REMARK                         _______ _______ _______ _____ _____    ______ ____
ROOT
ATOM      1  N   UNL     1       3.429   5.009  19.603  0.00  0.00    +0.000 N 
ATOM      2  C   UNL     1       2.794   3.880  20.148  0.00  0.00    +0.000 A 
ATOM      3  C   UNL     1       3.695   2.835  20.132  0.00  0.00    +0.000 A 
ATOM      4  C   UNL     1       4.885   3.300  19.555  0.00  0.00    +0.000 A 
ATOM      5  C   UNL     1       4.737   4.644  19.232  0.00  0.00    +0.000 A 
ENDROOT
BRANCH   1   9
ATOM      6  C   UNL     1       1.541   8.773  19.079  0.00  0.00    +0.000 A 
ATOM      7  C   UNL     1       1.633   8.196  20.349  0.00  0.00    +0.000 A 
ATOM      8  C   UNL     1       2.287   6.973  20.519  0.00  0.00    +0.000 A 
ATOM      9  C   UNL     1       2.809   6.285  19.417  0.00  0.00    +0.000 A 
ATOM     10  C   UNL     1       2.709   6.856  18.142  0.00  0.00    +0.000 A 
ATOM     11  C   UNL     1       2.098   8.105  17.980  0.00  0.00    +0.000 A 
BRANCH   6  13
ATOM     12  C   UNL     1      -0.616  10.186  19.103  0.00  0.00    +0.000 C 
ATOM     13  C   UNL     1       0.869  10.087  18.866  0.00  0.00    +0.000 C 
ATOM     14  O   UNL     1       1.526  11.058  18.497  0.00  0.00    +0.000 OA
ENDBRANCH   6  13
ENDBRANCH   1   9
BRANCH   5  15
ATOM     15  C   UNL     1       5.803   5.519  18.689  0.00  0.00    +0.000 A 
ATOM     16  C   UNL     1       5.610   6.175  17.462  0.00  0.00    +0.000 A 
ATOM     17  C   UNL     1       6.593   7.011  16.924  0.00  0.00    +0.000 A 
ATOM     18  C   UNL     1       7.780   7.227  17.619  0.00  0.00    +0.000 A 
ATOM     19  C   UNL     1       8.000   6.573  18.826  0.00  0.00    +0.000 A 
ATOM     20  C   UNL     1       7.035   5.697  19.334  0.00  0.00    +0.000 A 
ENDBRANCH   5  15
BRANCH   2  21
ATOM     21  C   UNL     1       1.359   3.787  20.607  0.00  0.00    +0.000 C 
BRANCH  21  22
ATOM     22  C   UNL     1       0.491   2.909  19.710  0.00  0.00    +0.000 C 
BRANCH  22  23
ATOM     23  C   UNL     1       0.996   2.907  18.293  0.00  0.00    +0.000 C 
ATOM     24  O   UNL     1       0.953   3.855  17.524  0.00  0.00    +0.000 OA
BRANCH  23  25
ATOM     25  O   UNL     1       1.526   1.716  17.933  0.00  0.00    +0.000 OA
ATOM     26  H   UNL     1       2.451   1.596  18.232  0.00  0.00    +0.000 HD
ENDBRANCH  23  25
ENDBRANCH  22  23
ENDBRANCH  21  22
ENDBRANCH   2  21
TORSDOF 7
ENDMDL
MODEL 9
REMARK VINA RESULT:      -7.2      1.440      2.010
REMARK  Name = 
REMARK  8 active torsions:
REMARK  status: ('A' for Active; 'I' for Inactive)
REMARK    1  A    between atoms: C_1  and  C_2
REMARK    2  A    between atoms: C_2  and  C_4
REMARK    3  A    between atoms: C_7  and  N_8
REMARK    4  A    between atoms: C_9  and  C_10
REMARK    5  A    between atoms: C_10  and  C_11
REMARK    6  A    between atoms: C_11  and  C_12
REMARK    7  A    between atoms: C_12  and  O_14
REMARK    8  A    between atoms: C_17  and  C_18
REMARK                            x       y       z     vdW  Elec       q    Type
REMARK                         _______ _______ _______ _____ _____    ______ ____
ROOT
ATOM      1  N   UNL     1       3.449   4.839  19.705  0.00  0.00    +0.000 N 
ATOM      2  C   UNL     1       2.895   3.684  20.283  0.00  0.00    +0.000 A 
ATOM      3  C   UNL     1       3.831   2.673  20.196  0.00  0.00    +0.000 A 
ATOM      4  C   UNL     1       4.960   3.186  19.542  0.00  0.00    +0.000 A 
ATOM      5  C   UNL     1       4.741   4.525  19.241  0.00  0.00    +0.000 A 
ENDROOT
BRANCH   1   9
ATOM      6  C   UNL     1       1.486   8.577  19.283  0.00  0.00    +0.000 A 
ATOM      7  C   UNL     1       1.988   7.908  18.163  0.00  0.00    +0.000 A 
ATOM      8  C   UNL     1       2.601   6.662  18.305  0.00  0.00    +0.000 A 
ATOM      9  C   UNL     1       2.771   6.092  19.573  0.00  0.00    +0.000 A 
ATOM     10  C   UNL     1       2.278   6.764  20.699  0.00  0.00    +0.000 A 
ATOM     11  C   UNL     1       1.619   7.990  20.549  0.00  0.00    +0.000 A 
BRANCH   6  13
ATOM     12  C   UNL     1      -0.264  10.068  18.115  0.00  0.00    +0.000 C 
ATOM     13  C   UNL     1       0.806   9.899  19.163  0.00  0.00    +0.000 C 
ATOM     14  O   UNL     1       1.128  10.824  19.906  0.00  0.00    +0.000 OA
ENDBRANCH   6  13
ENDBRANCH   1   9
BRANCH   5  15
ATOM     15  C   UNL     1       5.733   5.442  18.634  0.00  0.00    +0.000 A 
ATOM     16  C   UNL     1       6.959   5.673  19.282  0.00  0.00    +0.000 A 
ATOM     17  C   UNL     1       7.918   6.530  18.734  0.00  0.00    +0.000 A 
ATOM     18  C   UNL     1       7.679   7.153  17.512  0.00  0.00    +0.000 A 
ATOM     19  C   UNL     1       6.465   6.954  16.864  0.00  0.00    +0.000 A 
ATOM     20  C   UNL     1       5.488   6.137  17.441  0.00  0.00    +0.000 A 
ENDBRANCH   5  15
BRANCH   2  21
ATOM     21  C   UNL     1       1.500   3.535  20.840  0.00  0.00    +0.000 C 
BRANCH  21  22
ATOM     22  C   UNL     1       0.423   3.451  19.762  0.00  0.00    +0.000 C 
BRANCH  22  23
ATOM     23  C   UNL     1       0.960   2.834  18.498  0.00  0.00    +0.000 C 
ATOM     24  O   UNL     1       1.291   3.447  17.496  0.00  0.00    +0.000 OA
BRANCH  23  25
ATOM     25  O   UNL     1       1.051   1.487  18.578  0.00  0.00    +0.000 OA
ATOM     26  H   UNL     1       0.330   1.079  19.099  0.00  0.00    +0.000 HD
ENDBRANCH  23  25
ENDBRANCH  22  23
ENDBRANCH  21  22
ENDBRANCH   2  21
TORSDOF 7
ENDMDL
