MODEL 1
REMARK VINA RESULT:      -6.8      0.000      0.000
REMARK  Name = 
REMARK  8 active torsions:
REMARK  status: ('A' for Active; 'I' for Inactive)
REMARK    1  A    between atoms: C_1  and  C_2
REMARK    2  A    between atoms: C_2  and  C_3
REMARK    3  A    between atoms: C_4  and  C_5
REMARK    4  A    between atoms: C_5  and  C_6
REMARK    5  A    between atoms: C_12  and  O_13
REMARK    6  A    between atoms: O_13  and  C_14
REMARK    7  A    between atoms: C_15  and  O_16
REMARK    8  A    between atoms: O_16  and  C_17
REMARK                            x       y       z     vdW  Elec       q    Type
REMARK                         _______ _______ _______ _____ _____    ______ ____
ROOT
ATOM      1  C   UNL     1       1.062  10.654  18.512  0.00  0.00    +0.000 C 
ATOM      2  C   UNL     1       0.099  10.444  19.427  0.00  0.00    +0.000 C 
ATOM      3  C   UNL     1       0.220  11.336  20.602  0.00  0.00    +0.000 C 
ATOM      4  C   UNL     1      -0.140  12.722  20.081  0.00  0.00    +0.000 C 
ATOM      5  C   UNL     1      -0.474  13.549  21.290  0.00  0.00    +0.000 A 
ATOM      6  C   UNL     1      -1.412  13.035  22.219  0.00  0.00    +0.000 A 
ATOM      7  C   UNL     1      -1.575  13.619  23.469  0.00  0.00    +0.000 A 
ATOM      8  C   UNL     1      -0.885  14.785  23.746  0.00  0.00    +0.000 A 
ATOM      9  C   UNL     1      -0.082  15.382  22.760  0.00  0.00    +0.000 A 
ATOM     10  C   UNL     1       0.127  14.770  21.517  0.00  0.00    +0.000 A 
ATOM     11  C   UNL     1       0.859  15.401  20.363  0.00  0.00    +0.000 C 
ATOM     12  C   UNL     1       1.597  14.389  19.442  0.00  0.00    +0.000 C 
ATOM     13  N   UNL     1       0.881  13.160  19.102  0.00  0.00    +0.000 NA
ATOM     14  C   UNL     1       1.734  12.049  18.518  0.00  0.00    +0.000 C 
ENDROOT
BRANCH   1  16
ATOM     15  C   UNL     1       2.046   8.288  18.849  0.00  0.00    +0.000 C 
ATOM     16  C   UNL     1       1.658   9.405  17.904  0.00  0.00    +0.000 C 
ENDBRANCH   1  16
BRANCH   2  17
ATOM     17  C   UNL     1      -1.304  10.135  18.948  0.00  0.00    +0.000 C 
BRANCH  17  18
ATOM     18  C   UNL     1      -1.855  10.842  17.704  0.00  0.00    +0.000 C 
ATOM     19  N   UNL     1      -1.941   9.872  16.591  0.00  0.00    +0.000 NA
ATOM     20  C   UNL     1      -2.552  10.501  15.429  0.00  0.00    +0.000 C 
ATOM     21  C   UNL     1      -4.020  10.829  15.701  0.00  0.00    +0.000 C 
ATOM     22  C   UNL     1      -4.233  11.463  17.054  0.00  0.00    +0.000 A 
ATOM     23  C   UNL     1      -5.493  11.994  17.369  0.00  0.00    +0.000 A 
ATOM     24  C   UNL     1      -5.772  12.535  18.631  0.00  0.00    +0.000 A 
ATOM     25  C   UNL     1      -4.766  12.544  19.603  0.00  0.00    +0.000 A 
ATOM     26  C   UNL     1      -3.507  12.025  19.278  0.00  0.00    +0.000 A 
ATOM     27  C   UNL     1      -3.221  11.456  18.022  0.00  0.00    +0.000 A 
ATOM     28  H   UNL     1      -2.531   9.092  16.898  0.00  0.00    +0.000 HD
BRANCH  24  29
ATOM     29  O   UNL     1      -7.002  13.044  18.964  0.00  0.00    +0.000 OA
ATOM     30  C   UNL     1      -7.305  14.364  18.536  0.00  0.00    +0.000 C 
ENDBRANCH  24  29
BRANCH  25  31
ATOM     31  O   UNL     1      -4.809  12.996  20.896  0.00  0.00    +0.000 OA
ATOM     32  C   UNL     1      -4.617  14.376  21.152  0.00  0.00    +0.000 C 
ENDBRANCH  25  31
ENDBRANCH  17  18
ENDBRANCH   2  17
TORSDOF 5
ENDMDL
MODEL 2
REMARK VINA RESULT:      -6.6      0.924      1.119
REMARK  Name = 
REMARK  8 active torsions:
REMARK  status: ('A' for Active; 'I' for Inactive)
REMARK    1  A    between atoms: C_1  and  C_2
REMARK    2  A    between atoms: C_2  and  C_3
REMARK    3  A    between atoms: C_4  and  C_5
REMARK    4  A    between atoms: C_5  and  C_6
REMARK    5  A    between atoms: C_12  and  O_13
REMARK    6  A    between atoms: O_13  and  C_14
REMARK    7  A    between atoms: C_15  and  O_16
REMARK    8  A    between atoms: O_16  and  C_17
REMARK                            x       y       z     vdW  Elec       q    Type
REMARK                         _______ _______ _______ _____ _____    ______ ____
ROOT
ATOM      1  C   UNL     1       1.295  10.266  18.411  0.00  0.00    +0.000 C 
ATOM      2  C   UNL     1       0.433  10.410  19.432  0.00  0.00    +0.000 C 
ATOM      3  C   UNL     1       0.800  11.517  20.342  0.00  0.00    +0.000 C 
ATOM      4  C   UNL     1       0.546  12.786  19.537  0.00  0.00    +0.000 C 
ATOM      5  C   UNL     1       0.462  13.905  20.537  0.00  0.00    +0.000 A 
ATOM      6  C   UNL     1      -0.411  13.755  21.643  0.00  0.00    +0.000 A 
ATOM      7  C   UNL     1      -0.350  14.624  22.726  0.00  0.00    +0.000 A 
ATOM      8  C   UNL     1       0.501  15.711  22.650  0.00  0.00    +0.000 A 
ATOM      9  C   UNL     1       1.243  15.948  21.481  0.00  0.00    +0.000 A 
ATOM     10  C   UNL     1       1.226  15.047  20.408  0.00  0.00    +0.000 A 
ATOM     11  C   UNL     1       1.881  15.288  19.075  0.00  0.00    +0.000 C 
ATOM     12  C   UNL     1       2.377  13.999  18.362  0.00  0.00    +0.000 C 
ATOM     13  N   UNL     1       1.485  12.840  18.394  0.00  0.00    +0.000 NA
ATOM     14  C   UNL     1       2.124  11.515  18.020  0.00  0.00    +0.000 C 
ENDROOT
BRANCH   1  16
ATOM     15  C   UNL     1       2.141   7.955  19.201  0.00  0.00    +0.000 C 
ATOM     16  C   UNL     1       1.661   8.839  18.069  0.00  0.00    +0.000 C 
ENDBRANCH   1  16
BRANCH   2  17
ATOM     17  C   UNL     1      -1.045  10.205  19.170  0.00  0.00    +0.000 C 
BRANCH  17  18
ATOM     18  C   UNL     1      -1.689  10.828  17.927  0.00  0.00    +0.000 C 
ATOM     19  N   UNL     1      -1.936   9.769  16.924  0.00  0.00    +0.000 NA
ATOM     20  C   UNL     1      -2.635  10.326  15.776  0.00  0.00    +0.000 C 
ATOM     21  C   UNL     1      -4.050  10.758  16.160  0.00  0.00    +0.000 C 
ATOM     22  C   UNL     1      -4.092  11.520  17.463  0.00  0.00    +0.000 A 
ATOM     23  C   UNL     1      -5.285  12.146  17.851  0.00  0.00    +0.000 A 
ATOM     24  C   UNL     1      -5.406  12.811  19.078  0.00  0.00    +0.000 A 
ATOM     25  C   UNL     1      -4.305  12.851  19.939  0.00  0.00    +0.000 A 
ATOM     26  C   UNL     1      -3.112  12.236  19.540  0.00  0.00    +0.000 A 
ATOM     27  C   UNL     1      -2.985  11.542  18.321  0.00  0.00    +0.000 A 
ATOM     28  H   UNL     1      -2.526   9.054  17.360  0.00  0.00    +0.000 HD
BRANCH  24  29
ATOM     29  O   UNL     1      -6.570  13.415  19.483  0.00  0.00    +0.000 OA
ATOM     30  C   UNL     1      -7.560  12.594  20.087  0.00  0.00    +0.000 C 
ENDBRANCH  24  29
BRANCH  25  31
ATOM     31  O   UNL     1      -4.191  13.416  21.182  0.00  0.00    +0.000 OA
ATOM     32  C   UNL     1      -4.504  12.640  22.325  0.00  0.00    +0.000 C 
ENDBRANCH  25  31
ENDBRANCH  17  18
ENDBRANCH   2  17
TORSDOF 5
ENDMDL
MODEL 3
REMARK VINA RESULT:      -6.4      1.910      5.294
REMARK  Name = 
REMARK  8 active torsions:
REMARK  status: ('A' for Active; 'I' for Inactive)
REMARK    1  A    between atoms: C_1  and  C_2
REMARK    2  A    between atoms: C_2  and  C_3
REMARK    3  A    between atoms: C_4  and  C_5
REMARK    4  A    between atoms: C_5  and  C_6
REMARK    5  A    between atoms: C_12  and  O_13
REMARK    6  A    between atoms: O_13  and  C_14
REMARK    7  A    between atoms: C_15  and  O_16
REMARK    8  A    between atoms: O_16  and  C_17
REMARK                            x       y       z     vdW  Elec       q    Type
REMARK                         _______ _______ _______ _____ _____    ______ ____
ROOT
ATOM      1  C   UNL     1       2.247  14.399  19.114  0.00  0.00    +0.000 C 
ATOM      2  C   UNL     1       0.951  14.611  19.403  0.00  0.00    +0.000 C 
ATOM      3  C   UNL     1       0.041  13.749  18.616  0.00  0.00    +0.000 C 
ATOM      4  C   UNL     1       0.258  12.345  19.166  0.00  0.00    +0.000 C 
ATOM      5  C   UNL     1      -0.937  11.539  18.737  0.00  0.00    +0.000 A 
ATOM      6  C   UNL     1      -2.228  12.056  19.006  0.00  0.00    +0.000 A 
ATOM      7  C   UNL     1      -3.358  11.498  18.421  0.00  0.00    +0.000 A 
ATOM      8  C   UNL     1      -3.208  10.353  17.661  0.00  0.00    +0.000 A 
ATOM      9  C   UNL     1      -1.946   9.749  17.534  0.00  0.00    +0.000 A 
ATOM     10  C   UNL     1      -0.796  10.336  18.077  0.00  0.00    +0.000 A 
ATOM     11  C   UNL     1       0.565   9.693  18.103  0.00  0.00    +0.000 C 
ATOM     12  C   UNL     1       1.750  10.698  18.040  0.00  0.00    +0.000 C 
ATOM     13  N   UNL     1       1.637  11.904  18.859  0.00  0.00    +0.000 NA
ATOM     14  C   UNL     1       2.610  13.018  18.514  0.00  0.00    +0.000 C 
ENDROOT
BRANCH   1  16
ATOM     15  C   UNL     1       3.392  16.160  17.608  0.00  0.00    +0.000 C 
ATOM     16  C   UNL     1       3.096  15.645  19.001  0.00  0.00    +0.000 C 
ENDBRANCH   1  16
BRANCH   2  17
ATOM     17  C   UNL     1       0.561  14.881  20.841  0.00  0.00    +0.000 C 
BRANCH  17  18
ATOM     18  C   UNL     1      -0.556  15.885  21.148  0.00  0.00    +0.000 C 
ATOM     19  N   UNL     1      -0.700  16.817  20.007  0.00  0.00    +0.000 NA
ATOM     20  C   UNL     1      -1.819  17.717  20.239  0.00  0.00    +0.000 C 
ATOM     21  C   UNL     1      -3.143  16.953  20.216  0.00  0.00    +0.000 C 
ATOM     22  C   UNL     1      -3.085  15.665  21.000  0.00  0.00    +0.000 A 
ATOM     23  C   UNL     1      -4.270  14.951  21.231  0.00  0.00    +0.000 A 
ATOM     24  C   UNL     1      -4.273  13.718  21.895  0.00  0.00    +0.000 A 
ATOM     25  C   UNL     1      -3.058  13.183  22.339  0.00  0.00    +0.000 A 
ATOM     26  C   UNL     1      -1.880  13.907  22.117  0.00  0.00    +0.000 A 
ATOM     27  C   UNL     1      -1.861  15.136  21.429  0.00  0.00    +0.000 A 
ATOM     28  H   UNL     1      -0.887  16.260  19.168  0.00  0.00    +0.000 HD
BRANCH  24  29
ATOM     29  O   UNL     1      -5.419  12.996  22.115  0.00  0.00    +0.000 OA
ATOM     30  C   UNL     1      -5.953  12.261  21.023  0.00  0.00    +0.000 C 
ENDBRANCH  24  29
BRANCH  25  31
ATOM     31  O   UNL     1      -2.811  12.000  22.985  0.00  0.00    +0.000 OA
ATOM     32  C   UNL     1      -1.500  11.464  22.965  0.00  0.00    +0.000 C 
ENDBRANCH  25  31
ENDBRANCH  17  18
ENDBRANCH   2  17
TORSDOF 5
ENDMDL
MODEL 4
REMARK VINA RESULT:      -6.2      3.051      7.207
REMARK  Name = 
REMARK  8 active torsions:
REMARK  status: ('A' for Active; 'I' for Inactive)
REMARK    1  A    between atoms: C_1  and  C_2
REMARK    2  A    between atoms: C_2  and  C_3
REMARK    3  A    between atoms: C_4  and  C_5
REMARK    4  A    between atoms: C_5  and  C_6
REMARK    5  A    between atoms: C_12  and  O_13
REMARK    6  A    between atoms: O_13  and  C_14
REMARK    7  A    between atoms: C_15  and  O_16
REMARK    8  A    between atoms: O_16  and  C_17
REMARK                            x       y       z     vdW  Elec       q    Type
REMARK                         _______ _______ _______ _____ _____    ______ ____
ROOT
ATOM      1  C   UNL     1      -3.265  14.416  23.234  0.00  0.00    +0.000 C 
ATOM      2  C   UNL     1      -2.989  13.292  22.550  0.00  0.00    +0.000 C 
ATOM      3  C   UNL     1      -4.151  12.786  21.786  0.00  0.00    +0.000 C 
ATOM      4  C   UNL     1      -4.350  13.794  20.661  0.00  0.00    +0.000 C 
ATOM      5  C   UNL     1      -5.190  13.102  19.625  0.00  0.00    +0.000 A 
ATOM      6  C   UNL     1      -4.781  11.824  19.170  0.00  0.00    +0.000 A 
ATOM      7  C   UNL     1      -5.632  11.027  18.414  0.00  0.00    +0.000 A 
ATOM      8  C   UNL     1      -6.846  11.555  18.014  0.00  0.00    +0.000 A 
ATOM      9  C   UNL     1      -7.177  12.884  18.328  0.00  0.00    +0.000 A 
ATOM     10  C   UNL     1      -6.347  13.673  19.134  0.00  0.00    +0.000 A 
ATOM     11  C   UNL     1      -6.558  15.139  19.408  0.00  0.00    +0.000 C 
ATOM     12  C   UNL     1      -6.047  15.612  20.797  0.00  0.00    +0.000 C 
ATOM     13  N   UNL     1      -4.750  15.098  21.235  0.00  0.00    +0.000 NA
ATOM     14  C   UNL     1      -4.443  15.276  22.711  0.00  0.00    +0.000 C 
ENDROOT
BRANCH   1  16
ATOM     15  C   UNL     1      -2.713  15.821  25.332  0.00  0.00    +0.000 C 
ATOM     16  C   UNL     1      -2.701  14.477  24.635  0.00  0.00    +0.000 C 
ENDBRANCH   1  16
BRANCH   2  17
ATOM     17  C   UNL     1      -1.631  13.153  21.896  0.00  0.00    +0.000 C 
BRANCH  17  18
ATOM     18  C   UNL     1      -0.694  12.018  22.324  0.00  0.00    +0.000 C 
ATOM     19  N   UNL     1      -1.480  10.975  23.019  0.00  0.00    +0.000 NA
ATOM     20  C   UNL     1      -0.625   9.845  23.349  0.00  0.00    +0.000 C 
ATOM     21  C   UNL     1      -0.164   9.126  22.080  0.00  0.00    +0.000 C 
ATOM     22  C   UNL     1       0.293  10.081  21.005  0.00  0.00    +0.000 A 
ATOM     23  C   UNL     1       0.921   9.571  19.859  0.00  0.00    +0.000 A 
ATOM     24  C   UNL     1       1.308  10.398  18.798  0.00  0.00    +0.000 A 
ATOM     25  C   UNL     1       1.059  11.772  18.883  0.00  0.00    +0.000 A 
ATOM     26  C   UNL     1       0.444  12.278  20.035  0.00  0.00    +0.000 A 
ATOM     27  C   UNL     1       0.028  11.453  21.098  0.00  0.00    +0.000 A 
ATOM     28  H   UNL     1      -2.218  10.661  22.383  0.00  0.00    +0.000 HD
BRANCH  24  29
ATOM     29  O   UNL     1       1.908   9.916  17.661  0.00  0.00    +0.000 OA
ATOM     30  C   UNL     1       2.356   8.568  17.677  0.00  0.00    +0.000 C 
ENDBRANCH  24  29
BRANCH  25  31
ATOM     31  O   UNL     1       1.325  12.764  17.975  0.00  0.00    +0.000 OA
ATOM     32  C   UNL     1       2.414  13.639  18.208  0.00  0.00    +0.000 C 
ENDBRANCH  25  31
ENDBRANCH  17  18
ENDBRANCH   2  17
TORSDOF 5
ENDMDL
MODEL 5
REMARK VINA RESULT:      -6.2      2.057      5.851
REMARK  Name = 
REMARK  8 active torsions:
REMARK  status: ('A' for Active; 'I' for Inactive)
REMARK    1  A    between atoms: C_1  and  C_2
REMARK    2  A    between atoms: C_2  and  C_3
REMARK    3  A    between atoms: C_4  and  C_5
REMARK    4  A    between atoms: C_5  and  C_6
REMARK    5  A    between atoms: C_12  and  O_13
REMARK    6  A    between atoms: O_13  and  C_14
REMARK    7  A    between atoms: C_15  and  O_16
REMARK    8  A    between atoms: O_16  and  C_17
REMARK                            x       y       z     vdW  Elec       q    Type
REMARK                         _______ _______ _______ _____ _____    ______ ____
ROOT
ATOM      1  C   UNL     1       0.399  12.249  20.361  0.00  0.00    +0.000 C 
ATOM      2  C   UNL     1      -0.726  12.802  20.848  0.00  0.00    +0.000 C 
ATOM      3  C   UNL     1      -1.775  12.969  19.817  0.00  0.00    +0.000 C 
ATOM      4  C   UNL     1      -2.238  11.552  19.497  0.00  0.00    +0.000 C 
ATOM      5  C   UNL     1      -3.575  11.692  18.825  0.00  0.00    +0.000 A 
ATOM      6  C   UNL     1      -4.568  12.479  19.459  0.00  0.00    +0.000 A 
ATOM      7  C   UNL     1      -5.721  12.856  18.783  0.00  0.00    +0.000 A 
ATOM      8  C   UNL     1      -5.936  12.349  17.515  0.00  0.00    +0.000 A 
ATOM      9  C   UNL     1      -5.028  11.436  16.954  0.00  0.00    +0.000 A 
ATOM     10  C   UNL     1      -3.837  11.094  17.609  0.00  0.00    +0.000 A 
ATOM     11  C   UNL     1      -2.879  10.030  17.146  0.00  0.00    +0.000 C 
ATOM     12  C   UNL     1      -1.393  10.300  17.516  0.00  0.00    +0.000 C 
ATOM     13  N   UNL     1      -1.128  10.805  18.863  0.00  0.00    +0.000 NA
ATOM     14  C   UNL     1       0.254  11.394  19.078  0.00  0.00    +0.000 C 
ENDROOT
BRANCH   1  16
ATOM     15  C   UNL     1       2.082  14.207  20.272  0.00  0.00    +0.000 C 
ATOM     16  C   UNL     1       1.688  12.866  20.853  0.00  0.00    +0.000 C 
ENDBRANCH   1  16
BRANCH   2  17
ATOM     17  C   UNL     1      -1.189  12.410  22.235  0.00  0.00    +0.000 C 
BRANCH  17  18
ATOM     18  C   UNL     1      -1.281  13.474  23.334  0.00  0.00    +0.000 C 
ATOM     19  N   UNL     1      -0.416  14.619  22.976  0.00  0.00    +0.000 NA
ATOM     20  C   UNL     1      -0.564  15.681  23.960  0.00  0.00    +0.000 C 
ATOM     21  C   UNL     1      -1.966  16.288  23.894  0.00  0.00    +0.000 C 
ATOM     22  C   UNL     1      -3.049  15.241  23.801  0.00  0.00    +0.000 A 
ATOM     23  C   UNL     1      -4.391  15.632  23.926  0.00  0.00    +0.000 A 
ATOM     24  C   UNL     1      -5.443  14.719  23.783  0.00  0.00    +0.000 A 
ATOM     25  C   UNL     1      -5.147  13.380  23.507  0.00  0.00    +0.000 A 
ATOM     26  C   UNL     1      -3.805  12.993  23.397  0.00  0.00    +0.000 A 
ATOM     27  C   UNL     1      -2.739  13.906  23.513  0.00  0.00    +0.000 A 
ATOM     28  H   UNL     1      -0.718  14.967  22.060  0.00  0.00    +0.000 HD
BRANCH  24  29
ATOM     29  O   UNL     1      -6.762  15.084  23.885  0.00  0.00    +0.000 OA
ATOM     30  C   UNL     1      -7.248  16.051  22.965  0.00  0.00    +0.000 C 
ENDBRANCH  24  29
BRANCH  25  31
ATOM     31  O   UNL     1      -5.996  12.323  23.308  0.00  0.00    +0.000 OA
ATOM     32  C   UNL     1      -6.936  12.383  22.249  0.00  0.00    +0.000 C 
ENDBRANCH  25  31
ENDBRANCH  17  18
ENDBRANCH   2  17
TORSDOF 5
ENDMDL
MODEL 6
REMARK VINA RESULT:      -6.2      2.698      7.121
REMARK  Name = 
REMARK  8 active torsions:
REMARK  status: ('A' for Active; 'I' for Inactive)
REMARK    1  A    between atoms: C_1  and  C_2
REMARK    2  A    between atoms: C_2  and  C_3
REMARK    3  A    between atoms: C_4  and  C_5
REMARK    4  A    between atoms: C_5  and  C_6
REMARK    5  A    between atoms: C_12  and  O_13
REMARK    6  A    between atoms: O_13  and  C_14
REMARK    7  A    between atoms: C_15  and  O_16
REMARK    8  A    between atoms: O_16  and  C_17
REMARK                            x       y       z     vdW  Elec       q    Type
REMARK                         _______ _______ _______ _____ _____    ______ ____
ROOT
ATOM      1  C   UNL     1      -6.146  13.526  21.752  0.00  0.00    +0.000 C 
ATOM      2  C   UNL     1      -4.916  12.984  21.759  0.00  0.00    +0.000 C 
ATOM      3  C   UNL     1      -4.721  11.989  20.680  0.00  0.00    +0.000 C 
ATOM      4  C   UNL     1      -4.695  12.806  19.394  0.00  0.00    +0.000 C 
ATOM      5  C   UNL     1      -4.057  11.928  18.354  0.00  0.00    +0.000 A 
ATOM      6  C   UNL     1      -2.815  11.318  18.659  0.00  0.00    +0.000 A 
ATOM      7  C   UNL     1      -2.300  10.306  17.859  0.00  0.00    +0.000 A 
ATOM      8  C   UNL     1      -2.967   9.986  16.691  0.00  0.00    +0.000 A 
ATOM      9  C   UNL     1      -4.110  10.709  16.308  0.00  0.00    +0.000 A 
ATOM     10  C   UNL     1      -4.664  11.693  17.137  0.00  0.00    +0.000 A 
ATOM     11  C   UNL     1      -5.799  12.602  16.749  0.00  0.00    +0.000 C 
ATOM     12  C   UNL     1      -6.701  13.044  17.936  0.00  0.00    +0.000 C 
ATOM     13  N   UNL     1      -6.024  13.422  19.176  0.00  0.00    +0.000 NA
ATOM     14  C   UNL     1      -6.911  13.497  20.405  0.00  0.00    +0.000 C 
ENDROOT
BRANCH   1  16
ATOM     15  C   UNL     1      -7.663  12.564  23.610  0.00  0.00    +0.000 C 
ATOM     16  C   UNL     1      -6.787  13.693  23.111  0.00  0.00    +0.000 C 
ENDBRANCH   1  16
BRANCH   2  17
ATOM     17  C   UNL     1      -3.733  13.869  22.091  0.00  0.00    +0.000 C 
BRANCH  17  18
ATOM     18  C   UNL     1      -2.411  13.233  22.538  0.00  0.00    +0.000 C 
ATOM     19  N   UNL     1      -2.658  11.831  22.943  0.00  0.00    +0.000 NA
ATOM     20  C   UNL     1      -1.400  11.182  23.279  0.00  0.00    +0.000 C 
ATOM     21  C   UNL     1      -0.525  11.021  22.036  0.00  0.00    +0.000 C 
ATOM     22  C   UNL     1      -0.483  12.269  21.189  0.00  0.00    +0.000 A 
ATOM     23  C   UNL     1       0.425  12.342  20.122  0.00  0.00    +0.000 A 
ATOM     24  C   UNL     1       0.466  13.445  19.260  0.00  0.00    +0.000 A 
ATOM     25  C   UNL     1      -0.424  14.503  19.469  0.00  0.00    +0.000 A 
ATOM     26  C   UNL     1      -1.319  14.431  20.544  0.00  0.00    +0.000 A 
ATOM     27  C   UNL     1      -1.388  13.317  21.402  0.00  0.00    +0.000 A 
ATOM     28  H   UNL     1      -3.084  11.345  22.148  0.00  0.00    +0.000 HD
BRANCH  24  29
ATOM     29  O   UNL     1       1.335  13.527  18.201  0.00  0.00    +0.000 OA
ATOM     30  C   UNL     1       2.441  12.636  18.188  0.00  0.00    +0.000 C 
ENDBRANCH  24  29
BRANCH  25  31
ATOM     31  O   UNL     1      -0.583  15.662  18.755  0.00  0.00    +0.000 OA
ATOM     32  C   UNL     1      -1.103  16.808  19.406  0.00  0.00    +0.000 C 
ENDBRANCH  25  31
ENDBRANCH  17  18
ENDBRANCH   2  17
TORSDOF 5
ENDMDL
MODEL 7
REMARK VINA RESULT:      -6.1      2.035      5.915
REMARK  Name = 
REMARK  8 active torsions:
REMARK  status: ('A' for Active; 'I' for Inactive)
REMARK    1  A    between atoms: C_1  and  C_2
REMARK    2  A    between atoms: C_2  and  C_3
REMARK    3  A    between atoms: C_4  and  C_5
REMARK    4  A    between atoms: C_5  and  C_6
REMARK    5  A    between atoms: C_12  and  O_13
REMARK    6  A    between atoms: O_13  and  C_14
REMARK    7  A    between atoms: C_15  and  O_16
REMARK    8  A    between atoms: O_16  and  C_17
REMARK                            x       y       z     vdW  Elec       q    Type
REMARK                         _______ _______ _______ _____ _____    ______ ____
ROOT
ATOM      1  C   UNL     1       0.775  14.867  20.397  0.00  0.00    +0.000 C 
ATOM      2  C   UNL     1      -0.494  14.932  19.956  0.00  0.00    +0.000 C 
ATOM      3  C   UNL     1      -0.784  13.938  18.899  0.00  0.00    +0.000 C 
ATOM      4  C   UNL     1      -0.771  12.591  19.613  0.00  0.00    +0.000 C 
ATOM      5  C   UNL     1      -1.495  11.633  18.710  0.00  0.00    +0.000 A 
ATOM      6  C   UNL     1      -2.774  12.000  18.225  0.00  0.00    +0.000 A 
ATOM      7  C   UNL     1      -3.382  11.288  17.198  0.00  0.00    +0.000 A 
ATOM      8  C   UNL     1      -2.763  10.141  16.737  0.00  0.00    +0.000 A 
ATOM      9  C   UNL     1      -1.575   9.689  17.335  0.00  0.00    +0.000 A 
ATOM     10  C   UNL     1      -0.931  10.430  18.334  0.00  0.00    +0.000 A 
ATOM     11  C   UNL     1       0.264   9.958  19.118  0.00  0.00    +0.000 C 
ATOM     12  C   UNL     1       1.220  11.094  19.578  0.00  0.00    +0.000 C 
ATOM     13  N   UNL     1       0.597  12.309  20.103  0.00  0.00    +0.000 NA
ATOM     14  C   UNL     1       1.510  13.518  20.204  0.00  0.00    +0.000 C 
ENDROOT
BRANCH   1  16
ATOM     15  C   UNL     1       2.759  16.445  19.895  0.00  0.00    +0.000 C 
ATOM     16  C   UNL     1       1.451  16.201  20.618  0.00  0.00    +0.000 C 
ENDBRANCH   1  16
BRANCH   2  17
ATOM     17  C   UNL     1      -1.598  15.208  20.954  0.00  0.00    +0.000 C 
BRANCH  17  18
ATOM     18  C   UNL     1      -1.471  14.686  22.390  0.00  0.00    +0.000 C 
ATOM     19  N   UNL     1      -1.113  15.808  23.285  0.00  0.00    +0.000 NA
ATOM     20  C   UNL     1      -1.082  15.352  24.667  0.00  0.00    +0.000 C 
ATOM     21  C   UNL     1      -2.485  14.978  25.145  0.00  0.00    +0.000 C 
ATOM     22  C   UNL     1      -3.243  14.153  24.134  0.00  0.00    +0.000 A 
ATOM     23  C   UNL     1      -4.466  13.574  24.503  0.00  0.00    +0.000 A 
ATOM     24  C   UNL     1      -5.248  12.853  23.591  0.00  0.00    +0.000 A 
ATOM     25  C   UNL     1      -4.796  12.708  22.275  0.00  0.00    +0.000 A 
ATOM     26  C   UNL     1      -3.567  13.277  21.916  0.00  0.00    +0.000 A 
ATOM     27  C   UNL     1      -2.784  14.025  22.817  0.00  0.00    +0.000 A 
ATOM     28  H   UNL     1      -1.832  16.531  23.188  0.00  0.00    +0.000 HD
BRANCH  24  29
ATOM     29  O   UNL     1      -6.455  12.293  23.928  0.00  0.00    +0.000 OA
ATOM     30  C   UNL     1      -7.585  13.153  23.985  0.00  0.00    +0.000 C 
ENDBRANCH  24  29
BRANCH  25  31
ATOM     31  O   UNL     1      -5.388  12.073  21.216  0.00  0.00    +0.000 OA
ATOM     32  C   UNL     1      -5.839  12.842  20.115  0.00  0.00    +0.000 C 
ENDBRANCH  25  31
ENDBRANCH  17  18
ENDBRANCH   2  17
TORSDOF 5
ENDMDL
MODEL 8
REMARK VINA RESULT:      -6.1      2.453      5.231
REMARK  Name = 
REMARK  8 active torsions:
REMARK  status: ('A' for Active; 'I' for Inactive)
REMARK    1  A    between atoms: C_1  and  C_2
REMARK    2  A    between atoms: C_2  and  C_3
REMARK    3  A    between atoms: C_4  and  C_5
REMARK    4  A    between atoms: C_5  and  C_6
REMARK    5  A    between atoms: C_12  and  O_13
REMARK    6  A    between atoms: O_13  and  C_14
REMARK    7  A    between atoms: C_15  and  O_16
REMARK    8  A    between atoms: O_16  and  C_17
REMARK                            x       y       z     vdW  Elec       q    Type
REMARK                         _______ _______ _______ _____ _____    ______ ____
ROOT
ATOM      1  C   UNL     1      -4.039  13.325  22.895  0.00  0.00    +0.000 C 
ATOM      2  C   UNL     1      -3.706  14.139  21.878  0.00  0.00    +0.000 C 
ATOM      3  C   UNL     1      -2.243  14.306  21.732  0.00  0.00    +0.000 C 
ATOM      4  C   UNL     1      -1.742  12.957  21.228  0.00  0.00    +0.000 C 
ATOM      5  C   UNL     1      -0.382  13.209  20.642  0.00  0.00    +0.000 A 
ATOM      6  C   UNL     1      -0.240  14.252  19.693  0.00  0.00    +0.000 A 
ATOM      7  C   UNL     1       1.016  14.702  19.307  0.00  0.00    +0.000 A 
ATOM      8  C   UNL     1       2.129  14.031  19.779  0.00  0.00    +0.000 A 
ATOM      9  C   UNL     1       1.979  12.893  20.588  0.00  0.00    +0.000 A 
ATOM     10  C   UNL     1       0.717  12.467  21.024  0.00  0.00    +0.000 A 
ATOM     11  C   UNL     1       0.455  11.190  21.777  0.00  0.00    +0.000 C 
ATOM     12  C   UNL     1      -0.750  11.259  22.757  0.00  0.00    +0.000 C 
ATOM     13  N   UNL     1      -1.956  11.933  22.275  0.00  0.00    +0.000 NA
ATOM     14  C   UNL     1      -2.967  12.302  23.345  0.00  0.00    +0.000 C 
ENDROOT
BRANCH   1  16
ATOM     15  C   UNL     1      -6.389  12.846  23.855  0.00  0.00    +0.000 C 
ATOM     16  C   UNL     1      -5.208  13.785  23.735  0.00  0.00    +0.000 C 
ENDBRANCH   1  16
BRANCH   2  17
ATOM     17  C   UNL     1      -4.515  14.075  20.599  0.00  0.00    +0.000 C 
BRANCH  17  18
ATOM     18  C   UNL     1      -5.342  12.822  20.287  0.00  0.00    +0.000 C 
ATOM     19  N   UNL     1      -6.735  13.221  19.988  0.00  0.00    +0.000 NA
ATOM     20  C   UNL     1      -7.512  12.056  19.595  0.00  0.00    +0.000 C 
ATOM     21  C   UNL     1      -7.027  11.508  18.253  0.00  0.00    +0.000 C 
ATOM     22  C   UNL     1      -5.522  11.428  18.168  0.00  0.00    +0.000 A 
ATOM     23  C   UNL     1      -4.933  10.770  17.078  0.00  0.00    +0.000 A 
ATOM     24  C   UNL     1      -3.543  10.719  16.909  0.00  0.00    +0.000 A 
ATOM     25  C   UNL     1      -2.721  11.343  17.853  0.00  0.00    +0.000 A 
ATOM     26  C   UNL     1      -3.315  11.986  18.946  0.00  0.00    +0.000 A 
ATOM     27  C   UNL     1      -4.711  12.066  19.115  0.00  0.00    +0.000 A 
ATOM     28  H   UNL     1      -6.712  13.886  19.209  0.00  0.00    +0.000 HD
BRANCH  24  29
ATOM     29  O   UNL     1      -2.948  10.095  15.841  0.00  0.00    +0.000 OA
ATOM     30  C   UNL     1      -3.479  10.356  14.549  0.00  0.00    +0.000 C 
ENDBRANCH  24  29
BRANCH  25  31
ATOM     31  O   UNL     1      -1.355  11.442  17.888  0.00  0.00    +0.000 OA
ATOM     32  C   UNL     1      -0.593  10.332  18.329  0.00  0.00    +0.000 C 
ENDBRANCH  25  31
ENDBRANCH  17  18
ENDBRANCH   2  17
TORSDOF 5
ENDMDL
MODEL 9
REMARK VINA RESULT:      -6.1      2.124      5.749
REMARK  Name = 
REMARK  8 active torsions:
REMARK  status: ('A' for Active; 'I' for Inactive)
REMARK    1  A    between atoms: C_1  and  C_2
REMARK    2  A    between atoms: C_2  and  C_3
REMARK    3  A    between atoms: C_4  and  C_5
REMARK    4  A    between atoms: C_5  and  C_6
REMARK    5  A    between atoms: C_12  and  O_13
REMARK    6  A    between atoms: O_13  and  C_14
REMARK    7  A    between atoms: C_15  and  O_16
REMARK    8  A    between atoms: O_16  and  C_17
REMARK                            x       y       z     vdW  Elec       q    Type
REMARK                         _______ _______ _______ _____ _____    ______ ____
ROOT
ATOM      1  C   UNL     1      -3.359  10.830  16.968  0.00  0.00    +0.000 C 
ATOM      2  C   UNL     1      -2.721  11.579  17.884  0.00  0.00    +0.000 C 
ATOM      3  C   UNL     1      -3.582  12.638  18.458  0.00  0.00    +0.000 C 
ATOM      4  C   UNL     1      -4.599  11.895  19.315  0.00  0.00    +0.000 C 
ATOM      5  C   UNL     1      -5.180  12.916  20.253  0.00  0.00    +0.000 A 
ATOM      6  C   UNL     1      -4.291  13.721  21.006  0.00  0.00    +0.000 A 
ATOM      7  C   UNL     1      -4.745  14.841  21.691  0.00  0.00    +0.000 A 
ATOM      8  C   UNL     1      -6.105  15.089  21.719  0.00  0.00    +0.000 A 
ATOM      9  C   UNL     1      -6.999  14.194  21.108  0.00  0.00    +0.000 A 
ATOM     10  C   UNL     1      -6.543  13.092  20.372  0.00  0.00    +0.000 A 
ATOM     11  C   UNL     1      -7.428  12.015  19.803  0.00  0.00    +0.000 C 
ATOM     12  C   UNL     1      -6.892  11.371  18.494  0.00  0.00    +0.000 C 
ATOM     13  N   UNL     1      -5.462  11.065  18.445  0.00  0.00    +0.000 NA
ATOM     14  C   UNL     1      -4.904  10.781  17.062  0.00  0.00    +0.000 C 
ENDROOT
BRANCH   1  16
ATOM     15  C   UNL     1      -3.314  10.014  14.516  0.00  0.00    +0.000 C 
ATOM     16  C   UNL     1      -2.553  10.494  15.734  0.00  0.00    +0.000 C 
ENDBRANCH   1  16
BRANCH   2  17
ATOM     17  C   UNL     1      -1.751  10.903  18.830  0.00  0.00    +0.000 C 
BRANCH  17  18
ATOM     18  C   UNL     1      -0.426  11.591  19.177  0.00  0.00    +0.000 C 
ATOM     19  N   UNL     1      -0.069  12.533  18.094  0.00  0.00    +0.000 NA
ATOM     20  C   UNL     1       1.137  13.266  18.451  0.00  0.00    +0.000 C 
ATOM     21  C   UNL     1       0.874  14.200  19.633  0.00  0.00    +0.000 C 
ATOM     22  C   UNL     1       0.087  13.534  20.736  0.00  0.00    +0.000 A 
ATOM     23  C   UNL     1      -0.068  14.197  21.962  0.00  0.00    +0.000 A 
ATOM     24  C   UNL     1      -0.840  13.661  23.000  0.00  0.00    +0.000 A 
ATOM     25  C   UNL     1      -1.476  12.430  22.807  0.00  0.00    +0.000 A 
ATOM     26  C   UNL     1      -1.307  11.766  21.585  0.00  0.00    +0.000 A 
ATOM     27  C   UNL     1      -0.553  12.306  20.525  0.00  0.00    +0.000 A 
ATOM     28  H   UNL     1      -0.843  13.196  17.986  0.00  0.00    +0.000 HD
BRANCH  24  29
ATOM     29  O   UNL     1      -1.018  14.302  24.200  0.00  0.00    +0.000 OA
ATOM     30  C   UNL     1      -1.816  15.477  24.205  0.00  0.00    +0.000 C 
ENDBRANCH  24  29
BRANCH  25  31
ATOM     31  O   UNL     1      -2.289  11.726  23.657  0.00  0.00    +0.000 OA
ATOM     32  C   UNL     1      -3.587  12.219  23.936  0.00  0.00    +0.000 C 
ENDBRANCH  25  31
ENDBRANCH  17  18
ENDBRANCH   2  17
TORSDOF 5
ENDMDL
