MODEL 1
REMARK VINA RESULT:      -8.3      0.000      0.000
REMARK  Name = 
REMARK  8 active torsions:
REMARK  status: ('A' for Active; 'I' for Inactive)
REMARK    1  A    between atoms: C_1  and  N_2
REMARK    2  A    between atoms: C_5  and  N_6
REMARK    3  A    between atoms: N_6  and  C_7
REMARK    4  A    between atoms: C_7  and  C_8
REMARK    5  A    between atoms: C_14  and  C_15
REMARK    6  A    between atoms: N_17  and  C_18
REMARK    7  A    between atoms: C_22  and  O_23
REMARK    8  A    between atoms: O_23  and  C_24
REMARK                            x       y       z     vdW  Elec       q    Type
REMARK                         _______ _______ _______ _____ _____    ______ ____
ROOT
ATOM      1  C   UNL     1       0.804   3.074  18.624  0.00  0.00    +0.000 C 
ATOM      2  N   UNL     1       2.248   3.090  18.749  0.00  0.00    +0.000 N 
ATOM      3  N   UNL     1       2.944   2.026  18.307  0.00  0.00    +0.000 NA
ATOM      4  C   UNL     1       4.206   2.346  18.584  0.00  0.00    +0.000 A 
ATOM      5  C   UNL     1       4.329   3.619  19.188  0.00  0.00    +0.000 A 
ATOM      6  C   UNL     1       3.035   4.119  19.240  0.00  0.00    +0.000 A 
ENDROOT
BRANCH   6   7
ATOM      7  C   UNL     1       2.434   5.349  19.711  0.00  0.00    +0.000 C 
ATOM      8  O   UNL     1       1.966   5.409  20.845  0.00  0.00    +0.000 OA
ATOM      9  N   UNL     1       2.441   6.421  18.825  0.00  0.00    +0.000 N 
ATOM     10  H   UNL     1       2.923   6.274  17.945  0.00  0.00    +0.000 HD
BRANCH   9  11
ATOM     11  C   UNL     1       1.959   7.723  19.122  0.00  0.00    +0.000 A 
ATOM     12  C   UNL     1       1.650   8.646  18.117  0.00  0.00    +0.000 A 
ATOM     13  C   UNL     1       1.141   9.905  18.425  0.00  0.00    +0.000 A 
ATOM     14  C   UNL     1       0.920  10.252  19.750  0.00  0.00    +0.000 A 
ATOM     15  C   UNL     1       1.213   9.349  20.775  0.00  0.00    +0.000 A 
ATOM     16  C   UNL     1       1.779   8.105  20.463  0.00  0.00    +0.000 A 
BRANCH  15  17
ATOM     17  O   UNL     1       0.988   9.838  22.025  0.00  0.00    +0.000 OA
BRANCH  17  18
ATOM     18  C   UNL     1      -0.220   9.524  22.699  0.00  0.00    +0.000 C 
ATOM     19  F   UNL     1      -0.869   8.447  22.208  0.00  0.00    +0.000 F 
ATOM     20  F   UNL     1       0.057   9.299  24.001  0.00  0.00    +0.000 F 
ATOM     21  F   UNL     1      -1.054  10.586  22.624  0.00  0.00    +0.000 F 
ENDBRANCH  17  18
ENDBRANCH  15  17
ENDBRANCH   9  11
ENDBRANCH   6   7
BRANCH   5  22
ATOM     22  N   UNL     1       5.512   4.140  19.610  0.00  0.00    +0.000 N 
ATOM     23  H   UNL     1       5.854   3.889  20.539  0.00  0.00    +0.000 HD
BRANCH  22  24
ATOM     24  C   UNL     1       6.083   5.380  19.115  0.00  0.00    +0.000 C 
BRANCH  24  25
ATOM     25  C   UNL     1       6.155   5.475  17.613  0.00  0.00    +0.000 A 
ATOM     26  C   UNL     1       7.066   4.651  16.934  0.00  0.00    +0.000 A 
ATOM     27  C   UNL     1       7.050   4.629  15.550  0.00  0.00    +0.000 A 
ATOM     28  N   UNL     1       6.203   5.364  14.803  0.00  0.00    +0.000 NA
ATOM     29  C   UNL     1       5.325   6.144  15.470  0.00  0.00    +0.000 A 
ATOM     30  C   UNL     1       5.258   6.230  16.853  0.00  0.00    +0.000 A 
ENDBRANCH  24  25
ENDBRANCH  22  24
ENDBRANCH   5  22
TORSDOF 7
ENDMDL
MODEL 2
REMARK VINA RESULT:      -8.1      5.017      7.955
REMARK  Name = 
REMARK  8 active torsions:
REMARK  status: ('A' for Active; 'I' for Inactive)
REMARK    1  A    between atoms: C_1  and  N_2
REMARK    2  A    between atoms: C_5  and  N_6
REMARK    3  A    between atoms: N_6  and  C_7
REMARK    4  A    between atoms: C_7  and  C_8
REMARK    5  A    between atoms: C_14  and  C_15
REMARK    6  A    between atoms: N_17  and  C_18
REMARK    7  A    between atoms: C_22  and  O_23
REMARK    8  A    between atoms: O_23  and  C_24
REMARK                            x       y       z     vdW  Elec       q    Type
REMARK                         _______ _______ _______ _____ _____    ______ ____
ROOT
ATOM      1  C   UNL     1       2.464   1.789  18.924  0.00  0.00    +0.000 C 
ATOM      2  N   UNL     1       2.166   3.069  19.537  0.00  0.00    +0.000 N 
ATOM      3  N   UNL     1       1.082   3.164  20.330  0.00  0.00    +0.000 NA
ATOM      4  C   UNL     1       1.086   4.442  20.703  0.00  0.00    +0.000 A 
ATOM      5  C   UNL     1       2.175   5.168  20.165  0.00  0.00    +0.000 A 
ATOM      6  C   UNL     1       2.907   4.235  19.444  0.00  0.00    +0.000 A 
ENDROOT
BRANCH   6   7
ATOM      7  C   UNL     1       4.125   4.276  18.662  0.00  0.00    +0.000 C 
ATOM      8  O   UNL     1       5.169   3.830  19.129  0.00  0.00    +0.000 OA
ATOM      9  N   UNL     1       4.025   4.820  17.386  0.00  0.00    +0.000 N 
ATOM     10  H   UNL     1       3.094   5.085  17.082  0.00  0.00    +0.000 HD
BRANCH   9  11
ATOM     11  C   UNL     1       5.088   4.890  16.448  0.00  0.00    +0.000 A 
ATOM     12  C   UNL     1       6.069   5.887  16.512  0.00  0.00    +0.000 A 
ATOM     13  C   UNL     1       7.126   5.917  15.606  0.00  0.00    +0.000 A 
ATOM     14  C   UNL     1       7.223   4.937  14.629  0.00  0.00    +0.000 A 
ATOM     15  C   UNL     1       6.262   3.927  14.544  0.00  0.00    +0.000 A 
ATOM     16  C   UNL     1       5.169   3.933  15.421  0.00  0.00    +0.000 A 
BRANCH  15  17
ATOM     17  O   UNL     1       6.459   3.061  13.512  0.00  0.00    +0.000 OA
BRANCH  17  18
ATOM     18  C   UNL     1       5.893   3.337  12.241  0.00  0.00    +0.000 C 
ATOM     19  F   UNL     1       6.647   4.137  11.457  0.00  0.00    +0.000 F 
ATOM     20  F   UNL     1       5.694   2.169  11.594  0.00  0.00    +0.000 F 
ATOM     21  F   UNL     1       4.691   3.931  12.415  0.00  0.00    +0.000 F 
ENDBRANCH  17  18
ENDBRANCH  15  17
ENDBRANCH   9  11
ENDBRANCH   6   7
BRANCH   5  22
ATOM     22  N   UNL     1       2.360   6.500  20.361  0.00  0.00    +0.000 N 
ATOM     23  H   UNL     1       3.313   6.852  20.463  0.00  0.00    +0.000 HD
BRANCH  22  24
ATOM     24  C   UNL     1       1.367   7.388  20.939  0.00  0.00    +0.000 C 
BRANCH  24  25
ATOM     25  C   UNL     1       1.308   8.753  20.304  0.00  0.00    +0.000 A 
ATOM     26  C   UNL     1       1.615   8.869  18.940  0.00  0.00    +0.000 A 
ATOM     27  C   UNL     1       1.436  10.089  18.311  0.00  0.00    +0.000 A 
ATOM     28  N   UNL     1       0.980  11.191  18.940  0.00  0.00    +0.000 NA
ATOM     29  C   UNL     1       0.678  11.062  20.250  0.00  0.00    +0.000 A 
ATOM     30  C   UNL     1       0.817   9.882  20.966  0.00  0.00    +0.000 A 
ENDBRANCH  24  25
ENDBRANCH  22  24
ENDBRANCH   5  22
TORSDOF 7
ENDMDL
MODEL 3
REMARK VINA RESULT:      -8.0      1.611      1.847
REMARK  Name = 
REMARK  8 active torsions:
REMARK  status: ('A' for Active; 'I' for Inactive)
REMARK    1  A    between atoms: C_1  and  N_2
REMARK    2  A    between atoms: C_5  and  N_6
REMARK    3  A    between atoms: N_6  and  C_7
REMARK    4  A    between atoms: C_7  and  C_8
REMARK    5  A    between atoms: C_14  and  C_15
REMARK    6  A    between atoms: N_17  and  C_18
REMARK    7  A    between atoms: C_22  and  O_23
REMARK    8  A    between atoms: O_23  and  C_24
REMARK                            x       y       z     vdW  Elec       q    Type
REMARK                         _______ _______ _______ _____ _____    ______ ____
ROOT
ATOM      1  C   UNL     1       1.536   3.212  21.768  0.00  0.00    +0.000 C 
ATOM      2  N   UNL     1       2.794   2.979  21.088  0.00  0.00    +0.000 N 
ATOM      3  N   UNL     1       3.551   1.935  21.476  0.00  0.00    +0.000 NA
ATOM      4  C   UNL     1       4.618   2.018  20.685  0.00  0.00    +0.000 A 
ATOM      5  C   UNL     1       4.546   3.101  19.777  0.00  0.00    +0.000 A 
ATOM      6  C   UNL     1       3.314   3.691  20.020  0.00  0.00    +0.000 A 
ENDROOT
BRANCH   6   7
ATOM      7  C   UNL     1       2.592   4.814  19.459  0.00  0.00    +0.000 C 
ATOM      8  O   UNL     1       1.668   4.621  18.674  0.00  0.00    +0.000 OA
ATOM      9  N   UNL     1       2.995   6.079  19.874  0.00  0.00    +0.000 N 
ATOM     10  H   UNL     1       3.719   6.111  20.584  0.00  0.00    +0.000 HD
BRANCH   9  11
ATOM     11  C   UNL     1       2.374   7.296  19.489  0.00  0.00    +0.000 A 
ATOM     12  C   UNL     1       2.537   7.840  18.210  0.00  0.00    +0.000 A 
ATOM     13  C   UNL     1       1.888   9.015  17.838  0.00  0.00    +0.000 A 
ATOM     14  C   UNL     1       1.052   9.655  18.741  0.00  0.00    +0.000 A 
ATOM     15  C   UNL     1       0.866   9.133  20.023  0.00  0.00    +0.000 A 
ATOM     16  C   UNL     1       1.565   7.982  20.413  0.00  0.00    +0.000 A 
BRANCH  15  17
ATOM     17  O   UNL     1       0.055   9.887  20.815  0.00  0.00    +0.000 OA
BRANCH  17  18
ATOM     18  C   UNL     1       0.309  11.274  20.968  0.00  0.00    +0.000 C 
ATOM     19  F   UNL     1      -0.198  12.046  19.984  0.00  0.00    +0.000 F 
ATOM     20  F   UNL     1      -0.214  11.682  22.144  0.00  0.00    +0.000 F 
ATOM     21  F   UNL     1       1.646  11.473  21.012  0.00  0.00    +0.000 F 
ENDBRANCH  17  18
ENDBRANCH  15  17
ENDBRANCH   9  11
ENDBRANCH   6   7
BRANCH   5  22
ATOM     22  N   UNL     1       5.541   3.419  18.907  0.00  0.00    +0.000 N 
ATOM     23  H   UNL     1       6.218   2.699  18.653  0.00  0.00    +0.000 HD
BRANCH  22  24
ATOM     24  C   UNL     1       6.044   4.765  18.696  0.00  0.00    +0.000 C 
BRANCH  24  25
ATOM     25  C   UNL     1       6.141   5.173  17.248  0.00  0.00    +0.000 A 
ATOM     26  C   UNL     1       7.153   4.603  16.460  0.00  0.00    +0.000 A 
ATOM     27  C   UNL     1       7.173   4.863  15.101  0.00  0.00    +0.000 A 
ATOM     28  N   UNL     1       6.269   5.644  14.479  0.00  0.00    +0.000 NA
ATOM     29  C   UNL     1       5.295   6.178  15.247  0.00  0.00    +0.000 A 
ATOM     30  C   UNL     1       5.186   5.972  16.615  0.00  0.00    +0.000 A 
ENDBRANCH  24  25
ENDBRANCH  22  24
ENDBRANCH   5  22
TORSDOF 7
ENDMDL
MODEL 4
REMARK VINA RESULT:      -8.0      2.158      4.507
REMARK  Name = 
REMARK  8 active torsions:
REMARK  status: ('A' for Active; 'I' for Inactive)
REMARK    1  A    between atoms: C_1  and  N_2
REMARK    2  A    between atoms: C_5  and  N_6
REMARK    3  A    between atoms: N_6  and  C_7
REMARK    4  A    between atoms: C_7  and  C_8
REMARK    5  A    between atoms: C_14  and  C_15
REMARK    6  A    between atoms: N_17  and  C_18
REMARK    7  A    between atoms: C_22  and  O_23
REMARK    8  A    between atoms: O_23  and  C_24
REMARK                            x       y       z     vdW  Elec       q    Type
REMARK                         _______ _______ _______ _____ _____    ______ ____
ROOT
ATOM      1  C   UNL     1       6.852   6.772  17.099  0.00  0.00    +0.000 C 
ATOM      2  N   UNL     1       6.171   5.529  16.794  0.00  0.00    +0.000 N 
ATOM      3  N   UNL     1       6.723   4.700  15.888  0.00  0.00    +0.000 NA
ATOM      4  C   UNL     1       5.857   3.690  15.828  0.00  0.00    +0.000 A 
ATOM      5  C   UNL     1       4.757   3.857  16.702  0.00  0.00    +0.000 A 
ATOM      6  C   UNL     1       5.008   5.047  17.371  0.00  0.00    +0.000 A 
ENDROOT
BRANCH   6   7
ATOM      7  C   UNL     1       4.322   5.806  18.396  0.00  0.00    +0.000 C 
ATOM      8  O   UNL     1       4.775   5.847  19.536  0.00  0.00    +0.000 OA
ATOM      9  N   UNL     1       3.168   6.475  18.004  0.00  0.00    +0.000 N 
ATOM     10  H   UNL     1       2.933   6.430  17.018  0.00  0.00    +0.000 HD
BRANCH   9  11
ATOM     11  C   UNL     1       2.394   7.319  18.843  0.00  0.00    +0.000 A 
ATOM     12  C   UNL     1       2.049   6.952  20.149  0.00  0.00    +0.000 A 
ATOM     13  C   UNL     1       1.323   7.810  20.972  0.00  0.00    +0.000 A 
ATOM     14  C   UNL     1       0.942   9.058  20.499  0.00  0.00    +0.000 A 
ATOM     15  C   UNL     1       1.276   9.453  19.201  0.00  0.00    +0.000 A 
ATOM     16  C   UNL     1       1.957   8.565  18.358  0.00  0.00    +0.000 A 
BRANCH  15  17
ATOM     17  O   UNL     1       0.801  10.682  18.858  0.00  0.00    +0.000 OA
BRANCH  17  18
ATOM     18  C   UNL     1      -0.574  10.847  18.553  0.00  0.00    +0.000 C 
ATOM     19  F   UNL     1      -0.872  12.007  17.929  0.00  0.00    +0.000 F 
ATOM     20  F   UNL     1      -0.969   9.824  17.765  0.00  0.00    +0.000 F 
ATOM     21  F   UNL     1      -1.288  10.793  19.700  0.00  0.00    +0.000 F 
ENDBRANCH  17  18
ENDBRANCH  15  17
ENDBRANCH   9  11
ENDBRANCH   6   7
BRANCH   5  22
ATOM     22  N   UNL     1       3.718   2.984  16.778  0.00  0.00    +0.000 N 
ATOM     23  H   UNL     1       2.843   3.223  16.312  0.00  0.00    +0.000 HD
BRANCH  22  24
ATOM     24  C   UNL     1       3.542   2.012  17.843  0.00  0.00    +0.000 C 
BRANCH  24  25
ATOM     25  C   UNL     1       2.703   2.499  18.996  0.00  0.00    +0.000 A 
ATOM     26  C   UNL     1       3.291   2.569  20.268  0.00  0.00    +0.000 A 
ATOM     27  C   UNL     1       2.578   3.139  21.309  0.00  0.00    +0.000 A 
ATOM     28  N   UNL     1       1.332   3.636  21.173  0.00  0.00    +0.000 NA
ATOM     29  C   UNL     1       0.783   3.571  19.941  0.00  0.00    +0.000 A 
ATOM     30  C   UNL     1       1.418   3.025  18.836  0.00  0.00    +0.000 A 
ENDBRANCH  24  25
ENDBRANCH  22  24
ENDBRANCH   5  22
TORSDOF 7
ENDMDL
MODEL 5
REMARK VINA RESULT:      -7.9      5.037      8.234
REMARK  Name = 
REMARK  8 active torsions:
REMARK  status: ('A' for Active; 'I' for Inactive)
REMARK    1  A    between atoms: C_1  and  N_2
REMARK    2  A    between atoms: C_5  and  N_6
REMARK    3  A    between atoms: N_6  and  C_7
REMARK    4  A    between atoms: C_7  and  C_8
REMARK    5  A    between atoms: C_14  and  C_15
REMARK    6  A    between atoms: N_17  and  C_18
REMARK    7  A    between atoms: C_22  and  O_23
REMARK    8  A    between atoms: O_23  and  C_24
REMARK                            x       y       z     vdW  Elec       q    Type
REMARK                         _______ _______ _______ _____ _____    ______ ____
ROOT
ATOM      1  C   UNL     1       2.352   2.149  19.244  0.00  0.00    +0.000 C 
ATOM      2  N   UNL     1       2.152   3.490  19.758  0.00  0.00    +0.000 N 
ATOM      3  N   UNL     1       1.103   3.717  20.571  0.00  0.00    +0.000 NA
ATOM      4  C   UNL     1       1.197   5.017  20.838  0.00  0.00    +0.000 A 
ATOM      5  C   UNL     1       2.310   5.628  20.213  0.00  0.00    +0.000 A 
ATOM      6  C   UNL     1       2.959   4.596  19.550  0.00  0.00    +0.000 A 
ENDROOT
BRANCH   6   7
ATOM      7  C   UNL     1       4.152   4.497  18.734  0.00  0.00    +0.000 C 
ATOM      8  O   UNL     1       5.129   3.879  19.147  0.00  0.00    +0.000 OA
ATOM      9  N   UNL     1       4.104   5.116  17.490  0.00  0.00    +0.000 N 
ATOM     10  H   UNL     1       3.216   5.531  17.227  0.00  0.00    +0.000 HD
BRANCH   9  11
ATOM     11  C   UNL     1       5.143   5.078  16.523  0.00  0.00    +0.000 A 
ATOM     12  C   UNL     1       6.179   6.019  16.510  0.00  0.00    +0.000 A 
ATOM     13  C   UNL     1       7.212   5.943  15.579  0.00  0.00    +0.000 A 
ATOM     14  C   UNL     1       7.228   4.910  14.653  0.00  0.00    +0.000 A 
ATOM     15  C   UNL     1       6.210   3.953  14.645  0.00  0.00    +0.000 A 
ATOM     16  C   UNL     1       5.143   4.066  15.547  0.00  0.00    +0.000 A 
BRANCH  15  17
ATOM     17  O   UNL     1       6.331   3.025  13.656  0.00  0.00    +0.000 OA
BRANCH  17  18
ATOM     18  C   UNL     1       5.836   3.308  12.358  0.00  0.00    +0.000 C 
ATOM     19  F   UNL     1       5.720   2.228  11.557  0.00  0.00    +0.000 F 
ATOM     20  F   UNL     1       4.622   3.887  12.474  0.00  0.00    +0.000 F 
ATOM     21  F   UNL     1       6.665   4.190  11.755  0.00  0.00    +0.000 F 
ENDBRANCH  17  18
ENDBRANCH  15  17
ENDBRANCH   9  11
ENDBRANCH   6   7
BRANCH   5  22
ATOM     22  N   UNL     1       2.582   6.957  20.294  0.00  0.00    +0.000 N 
ATOM     23  H   UNL     1       3.113   7.300  21.096  0.00  0.00    +0.000 HD
BRANCH  22  24
ATOM     24  C   UNL     1       1.790   7.995  19.657  0.00  0.00    +0.000 C 
BRANCH  24  25
ATOM     25  C   UNL     1       1.003   8.852  20.614  0.00  0.00    +0.000 A 
ATOM     26  C   UNL     1       1.282   8.752  21.986  0.00  0.00    +0.000 A 
ATOM     27  C   UNL     1       0.664   9.626  22.863  0.00  0.00    +0.000 A 
ATOM     28  N   UNL     1      -0.204  10.581  22.475  0.00  0.00    +0.000 NA
ATOM     29  C   UNL     1      -0.455  10.672  21.152  0.00  0.00    +0.000 A 
ATOM     30  C   UNL     1       0.117   9.848  20.194  0.00  0.00    +0.000 A 
ENDBRANCH  24  25
ENDBRANCH  22  24
ENDBRANCH   5  22
TORSDOF 7
ENDMDL
MODEL 6
REMARK VINA RESULT:      -7.9      1.460      2.163
REMARK  Name = 
REMARK  8 active torsions:
REMARK  status: ('A' for Active; 'I' for Inactive)
REMARK    1  A    between atoms: C_1  and  N_2
REMARK    2  A    between atoms: C_5  and  N_6
REMARK    3  A    between atoms: N_6  and  C_7
REMARK    4  A    between atoms: C_7  and  C_8
REMARK    5  A    between atoms: C_14  and  C_15
REMARK    6  A    between atoms: N_17  and  C_18
REMARK    7  A    between atoms: C_22  and  O_23
REMARK    8  A    between atoms: O_23  and  C_24
REMARK                            x       y       z     vdW  Elec       q    Type
REMARK                         _______ _______ _______ _____ _____    ______ ____
ROOT
ATOM      1  C   UNL     1       2.554   3.444  20.857  0.00  0.00    +0.000 C 
ATOM      2  N   UNL     1       3.090   3.254  19.524  0.00  0.00    +0.000 N 
ATOM      3  N   UNL     1       3.183   2.000  19.042  0.00  0.00    +0.000 NA
ATOM      4  C   UNL     1       3.721   2.173  17.836  0.00  0.00    +0.000 A 
ATOM      5  C   UNL     1       3.961   3.534  17.533  0.00  0.00    +0.000 A 
ATOM      6  C   UNL     1       3.490   4.236  18.633  0.00  0.00    +0.000 A 
ENDROOT
BRANCH   6   7
ATOM      7  C   UNL     1       3.405   5.636  18.991  0.00  0.00    +0.000 C 
ATOM      8  O   UNL     1       4.374   6.203  19.489  0.00  0.00    +0.000 OA
ATOM      9  N   UNL     1       2.198   6.272  18.724  0.00  0.00    +0.000 N 
ATOM     10  H   UNL     1       1.496   5.722  18.241  0.00  0.00    +0.000 HD
BRANCH   9  11
ATOM     11  C   UNL     1       1.940   7.652  18.942  0.00  0.00    +0.000 A 
ATOM     12  C   UNL     1       1.936   8.580  17.895  0.00  0.00    +0.000 A 
ATOM     13  C   UNL     1       1.642   9.922  18.123  0.00  0.00    +0.000 A 
ATOM     14  C   UNL     1       1.335  10.351  19.405  0.00  0.00    +0.000 A 
ATOM     15  C   UNL     1       1.326   9.446  20.470  0.00  0.00    +0.000 A 
ATOM     16  C   UNL     1       1.678   8.108  20.246  0.00  0.00    +0.000 A 
BRANCH  15  17
ATOM     17  O   UNL     1       1.051  10.013  21.676  0.00  0.00    +0.000 OA
BRANCH  17  18
ATOM     18  C   UNL     1      -0.280  10.015  22.168  0.00  0.00    +0.000 C 
ATOM     19  F   UNL     1      -0.453  10.718  23.307  0.00  0.00    +0.000 F 
ATOM     20  F   UNL     1      -1.091  10.529  21.220  0.00  0.00    +0.000 F 
ATOM     21  F   UNL     1      -0.663   8.739  22.401  0.00  0.00    +0.000 F 
ENDBRANCH  17  18
ENDBRANCH  15  17
ENDBRANCH   9  11
ENDBRANCH   6   7
BRANCH   5  22
ATOM     22  N   UNL     1       4.553   3.954  16.383  0.00  0.00    +0.000 N 
ATOM     23  H   UNL     1       4.013   3.930  15.518  0.00  0.00    +0.000 HD
BRANCH  22  24
ATOM     24  C   UNL     1       5.987   3.952  16.153  0.00  0.00    +0.000 C 
BRANCH  24  25
ATOM     25  C   UNL     1       6.750   4.963  16.971  0.00  0.00    +0.000 A 
ATOM     26  C   UNL     1       6.663   6.316  16.610  0.00  0.00    +0.000 A 
ATOM     27  C   UNL     1       7.247   7.269  17.428  0.00  0.00    +0.000 A 
ATOM     28  N   UNL     1       7.905   6.971  18.566  0.00  0.00    +0.000 NA
ATOM     29  C   UNL     1       7.971   5.666  18.906  0.00  0.00    +0.000 A 
ATOM     30  C   UNL     1       7.414   4.639  18.157  0.00  0.00    +0.000 A 
ENDBRANCH  24  25
ENDBRANCH  22  24
ENDBRANCH   5  22
TORSDOF 7
ENDMDL
MODEL 7
REMARK VINA RESULT:      -7.9      2.551      4.641
REMARK  Name = 
REMARK  8 active torsions:
REMARK  status: ('A' for Active; 'I' for Inactive)
REMARK    1  A    between atoms: C_1  and  N_2
REMARK    2  A    between atoms: C_5  and  N_6
REMARK    3  A    between atoms: N_6  and  C_7
REMARK    4  A    between atoms: C_7  and  C_8
REMARK    5  A    between atoms: C_14  and  C_15
REMARK    6  A    between atoms: N_17  and  C_18
REMARK    7  A    between atoms: C_22  and  O_23
REMARK    8  A    between atoms: O_23  and  C_24
REMARK                            x       y       z     vdW  Elec       q    Type
REMARK                         _______ _______ _______ _____ _____    ______ ____
ROOT
ATOM      1  C   UNL     1       6.772   6.426  17.787  0.00  0.00    +0.000 C 
ATOM      2  N   UNL     1       5.957   5.339  17.283  0.00  0.00    +0.000 N 
ATOM      3  N   UNL     1       6.509   4.469  16.415  0.00  0.00    +0.000 NA
ATOM      4  C   UNL     1       5.510   3.632  16.142  0.00  0.00    +0.000 A 
ATOM      5  C   UNL     1       4.321   3.949  16.841  0.00  0.00    +0.000 A 
ATOM      6  C   UNL     1       4.649   5.043  17.629  0.00  0.00    +0.000 A 
ENDROOT
BRANCH   6   7
ATOM      7  C   UNL     1       3.935   5.861  18.588  0.00  0.00    +0.000 C 
ATOM      8  O   UNL     1       4.148   5.726  19.789  0.00  0.00    +0.000 OA
ATOM      9  N   UNL     1       3.038   6.786  18.066  0.00  0.00    +0.000 N 
ATOM     10  H   UNL     1       3.002   6.858  17.054  0.00  0.00    +0.000 HD
BRANCH   9  11
ATOM     11  C   UNL     1       2.293   7.719  18.835  0.00  0.00    +0.000 A 
ATOM     12  C   UNL     1       1.930   7.462  20.162  0.00  0.00    +0.000 A 
ATOM     13  C   UNL     1       1.233   8.405  20.914  0.00  0.00    +0.000 A 
ATOM     14  C   UNL     1       0.903   9.628  20.349  0.00  0.00    +0.000 A 
ATOM     15  C   UNL     1       1.257   9.914  19.027  0.00  0.00    +0.000 A 
ATOM     16  C   UNL     1       1.907   8.941  18.257  0.00  0.00    +0.000 A 
BRANCH  15  17
ATOM     17  O   UNL     1       0.831  11.131  18.592  0.00  0.00    +0.000 OA
BRANCH  17  18
ATOM     18  C   UNL     1       1.737  12.221  18.544  0.00  0.00    +0.000 C 
ATOM     19  F   UNL     1       2.847  11.993  17.810  0.00  0.00    +0.000 F 
ATOM     20  F   UNL     1       1.098  13.294  18.031  0.00  0.00    +0.000 F 
ATOM     21  F   UNL     1       2.124  12.526  19.804  0.00  0.00    +0.000 F 
ENDBRANCH  17  18
ENDBRANCH  15  17
ENDBRANCH   9  11
ENDBRANCH   6   7
BRANCH   5  22
ATOM     22  N   UNL     1       3.154   3.270  16.683  0.00  0.00    +0.000 N 
ATOM     23  H   UNL     1       2.379   3.733  16.208  0.00  0.00    +0.000 HD
BRANCH  22  24
ATOM     24  C   UNL     1       2.720   2.179  17.539  0.00  0.00    +0.000 C 
BRANCH  24  25
ATOM     25  C   UNL     1       2.301   2.603  18.922  0.00  0.00    +0.000 A 
ATOM     26  C   UNL     1       3.132   2.272  20.003  0.00  0.00    +0.000 A 
ATOM     27  C   UNL     1       2.832   2.768  21.260  0.00  0.00    +0.000 A 
ATOM     28  N   UNL     1       1.771   3.560  21.513  0.00  0.00    +0.000 NA
ATOM     29  C   UNL     1       0.986   3.880  20.462  0.00  0.00    +0.000 A 
ATOM     30  C   UNL     1       1.207   3.438  19.166  0.00  0.00    +0.000 A 
ENDBRANCH  24  25
ENDBRANCH  22  24
ENDBRANCH   5  22
TORSDOF 7
ENDMDL
MODEL 8
REMARK VINA RESULT:      -7.8      4.946      7.506
REMARK  Name = 
REMARK  8 active torsions:
REMARK  status: ('A' for Active; 'I' for Inactive)
REMARK    1  A    between atoms: C_1  and  N_2
REMARK    2  A    between atoms: C_5  and  N_6
REMARK    3  A    between atoms: N_6  and  C_7
REMARK    4  A    between atoms: C_7  and  C_8
REMARK    5  A    between atoms: C_14  and  C_15
REMARK    6  A    between atoms: N_17  and  C_18
REMARK    7  A    between atoms: C_22  and  O_23
REMARK    8  A    between atoms: O_23  and  C_24
REMARK                            x       y       z     vdW  Elec       q    Type
REMARK                         _______ _______ _______ _____ _____    ______ ____
ROOT
ATOM      1  C   UNL     1       2.998   1.264  19.162  0.00  0.00    +0.000 C 
ATOM      2  N   UNL     1       2.383   2.369  19.870  0.00  0.00    +0.000 N 
ATOM      3  N   UNL     1       1.942   2.162  21.125  0.00  0.00    +0.000 NA
ATOM      4  C   UNL     1       1.427   3.340  21.469  0.00  0.00    +0.000 A 
ATOM      5  C   UNL     1       1.547   4.311  20.446  0.00  0.00    +0.000 A 
ATOM      6  C   UNL     1       2.228   3.670  19.421  0.00  0.00    +0.000 A 
ENDROOT
BRANCH   6   7
ATOM      7  C   UNL     1       2.695   4.058  18.106  0.00  0.00    +0.000 C 
ATOM      8  O   UNL     1       1.897   4.177  17.181  0.00  0.00    +0.000 OA
ATOM      9  N   UNL     1       4.059   4.294  17.978  0.00  0.00    +0.000 N 
ATOM     10  H   UNL     1       4.608   4.238  18.830  0.00  0.00    +0.000 HD
BRANCH   9  11
ATOM     11  C   UNL     1       4.698   4.743  16.793  0.00  0.00    +0.000 A 
ATOM     12  C   UNL     1       4.863   6.104  16.509  0.00  0.00    +0.000 A 
ATOM     13  C   UNL     1       5.527   6.526  15.360  0.00  0.00    +0.000 A 
ATOM     14  C   UNL     1       6.050   5.586  14.483  0.00  0.00    +0.000 A 
ATOM     15  C   UNL     1       5.906   4.221  14.743  0.00  0.00    +0.000 A 
ATOM     16  C   UNL     1       5.187   3.801  15.871  0.00  0.00    +0.000 A 
BRANCH  15  17
ATOM     17  O   UNL     1       6.429   3.416  13.778  0.00  0.00    +0.000 OA
BRANCH  17  18
ATOM     18  C   UNL     1       5.844   3.390  12.486  0.00  0.00    +0.000 C 
ATOM     19  F   UNL     1       4.555   3.789  12.449  0.00  0.00    +0.000 F 
ATOM     20  F   UNL     1       6.563   4.191  11.671  0.00  0.00    +0.000 F 
ATOM     21  F   UNL     1       5.908   2.130  12.000  0.00  0.00    +0.000 F 
ENDBRANCH  17  18
ENDBRANCH  15  17
ENDBRANCH   9  11
ENDBRANCH   6   7
BRANCH   5  22
ATOM     22  N   UNL     1       1.047   5.571  20.544  0.00  0.00    +0.000 N 
ATOM     23  H   UNL     1       0.226   5.816  19.990  0.00  0.00    +0.000 HD
BRANCH  22  24
ATOM     24  C   UNL     1       1.825   6.731  20.943  0.00  0.00    +0.000 C 
BRANCH  24  25
ATOM     25  C   UNL     1       1.773   7.879  19.969  0.00  0.00    +0.000 A 
ATOM     26  C   UNL     1       2.352   7.708  18.702  0.00  0.00    +0.000 A 
ATOM     27  C   UNL     1       2.195   8.701  17.751  0.00  0.00    +0.000 A 
ATOM     28  N   UNL     1       1.512   9.842  17.971  0.00  0.00    +0.000 NA
ATOM     29  C   UNL     1       0.951   9.989  19.191  0.00  0.00    +0.000 A 
ATOM     30  C   UNL     1       1.047   9.050  20.207  0.00  0.00    +0.000 A 
ENDBRANCH  24  25
ENDBRANCH  22  24
ENDBRANCH   5  22
TORSDOF 7
ENDMDL
MODEL 9
REMARK VINA RESULT:      -7.8      3.962      6.903
REMARK  Name = 
REMARK  8 active torsions:
REMARK  status: ('A' for Active; 'I' for Inactive)
REMARK    1  A    between atoms: C_1  and  N_2
REMARK    2  A    between atoms: C_5  and  N_6
REMARK    3  A    between atoms: N_6  and  C_7
REMARK    4  A    between atoms: C_7  and  C_8
REMARK    5  A    between atoms: C_14  and  C_15
REMARK    6  A    between atoms: N_17  and  C_18
REMARK    7  A    between atoms: C_22  and  O_23
REMARK    8  A    between atoms: O_23  and  C_24
REMARK                            x       y       z     vdW  Elec       q    Type
REMARK                         _______ _______ _______ _____ _____    ______ ____
ROOT
ATOM      1  C   UNL     1       2.286   1.570  18.564  0.00  0.00    +0.000 C 
ATOM      2  N   UNL     1       1.919   2.716  19.373  0.00  0.00    +0.000 N 
ATOM      3  N   UNL     1       0.759   2.676  20.055  0.00  0.00    +0.000 NA
ATOM      4  C   UNL     1       0.717   3.862  20.659  0.00  0.00    +0.000 A 
ATOM      5  C   UNL     1       1.853   4.660  20.382  0.00  0.00    +0.000 A 
ATOM      6  C   UNL     1       2.660   3.868  19.577  0.00  0.00    +0.000 A 
ENDROOT
BRANCH   6   7
ATOM      7  C   UNL     1       3.952   4.037  18.946  0.00  0.00    +0.000 C 
ATOM      8  O   UNL     1       4.969   3.658  19.519  0.00  0.00    +0.000 OA
ATOM      9  N   UNL     1       3.953   4.622  17.684  0.00  0.00    +0.000 N 
ATOM     10  H   UNL     1       3.045   4.825  17.280  0.00  0.00    +0.000 HD
BRANCH   9  11
ATOM     11  C   UNL     1       5.107   4.815  16.880  0.00  0.00    +0.000 A 
ATOM     12  C   UNL     1       5.399   3.986  15.790  0.00  0.00    +0.000 A 
ATOM     13  C   UNL     1       6.514   4.214  14.988  0.00  0.00    +0.000 A 
ATOM     14  C   UNL     1       7.349   5.288  15.260  0.00  0.00    +0.000 A 
ATOM     15  C   UNL     1       7.080   6.136  16.338  0.00  0.00    +0.000 A 
ATOM     16  C   UNL     1       5.989   5.870  17.176  0.00  0.00    +0.000 A 
BRANCH  15  17
ATOM     17  O   UNL     1       8.005   7.120  16.511  0.00  0.00    +0.000 OA
BRANCH  17  18
ATOM     18  C   UNL     1       7.937   7.959  17.653  0.00  0.00    +0.000 C 
ATOM     19  F   UNL     1       8.278   7.354  18.811  0.00  0.00    +0.000 F 
ATOM     20  F   UNL     1       8.758   9.014  17.464  0.00  0.00    +0.000 F 
ATOM     21  F   UNL     1       6.675   8.427  17.780  0.00  0.00    +0.000 F 
ENDBRANCH  17  18
ENDBRANCH  15  17
ENDBRANCH   9  11
ENDBRANCH   6   7
BRANCH   5  22
ATOM     22  N   UNL     1       2.010   5.929  20.843  0.00  0.00    +0.000 N 
ATOM     23  H   UNL     1       1.599   6.177  21.744  0.00  0.00    +0.000 HD
BRANCH  22  24
ATOM     24  C   UNL     1       2.246   7.084  19.995  0.00  0.00    +0.000 C 
BRANCH  24  25
ATOM     25  C   UNL     1       1.455   8.308  20.375  0.00  0.00    +0.000 A 
ATOM     26  C   UNL     1       1.156   9.248  19.378  0.00  0.00    +0.000 A 
ATOM     27  C   UNL     1       0.318  10.307  19.680  0.00  0.00    +0.000 A 
ATOM     28  N   UNL     1      -0.235  10.495  20.895  0.00  0.00    +0.000 NA
ATOM     29  C   UNL     1       0.052   9.577  21.842  0.00  0.00    +0.000 A 
ATOM     30  C   UNL     1       0.875   8.480  21.635  0.00  0.00    +0.000 A 
ENDBRANCH  24  25
ENDBRANCH  22  24
ENDBRANCH   5  22
TORSDOF 7
ENDMDL
