MODEL 1
REMARK VINA RESULT:      -8.0      0.000      0.000
REMARK  Name = 
REMARK  10 active torsions:
REMARK  status: ('A' for Active; 'I' for Inactive)
REMARK    1  A    between atoms: C_1  and  O_2
REMARK    2  A    between atoms: O_2  and  C_3
REMARK    3  A    between atoms: C_8  and  O_9
REMARK    4  A    between atoms: O_9  and  C_10
REMARK    5  A    between atoms: C_10  and  C_11
REMARK    6  A    between atoms: N_13  and  N_14
REMARK    7  A    between atoms: C_15  and  C_17
REMARK    8  A    between atoms: N_20  and  C_21
REMARK    9  A    between atoms: C_27  and  C_28
REMARK   10  A    between atoms: C_29  and  C_30
REMARK                            x       y       z     vdW  Elec       q    Type
REMARK                         _______ _______ _______ _____ _____    ______ ____
ROOT
ATOM      1  N   UNL     1       8.734   9.070  18.089  0.00  0.00    +0.000 N 
ATOM      2  C   UNL     1       9.184  10.230  18.669  0.00  0.00    +0.000 C 
ATOM      3  O   UNL     1       9.344  10.332  19.888  0.00  0.00    +0.000 OA
ATOM      4  H   UNL     1       8.746   8.878  17.090  0.00  0.00    +0.000 HD
ENDROOT
BRANCH   2   5
ATOM      5  C   UNL     1       9.512  11.365  17.710  0.00  0.00    +0.000 C 
ATOM      6  C   UNL     1      10.948  11.906  17.934  0.00  0.00    +0.000 C 
ATOM      7  C   UNL     1      11.052  12.972  19.044  0.00  0.00    +0.000 C 
ATOM      8  N   UNL     1       9.994  13.957  18.798  0.00  0.00    +0.000 N 
ATOM      9  C   UNL     1       8.671  13.390  18.955  0.00  0.00    +0.000 C 
ATOM     10  C   UNL     1       8.490  12.508  17.719  0.00  0.00    +0.000 C 
BRANCH   8  11
ATOM     11  C   UNL     1      10.174  15.288  19.149  0.00  0.00    +0.000 A 
ATOM     12  N   UNL     1      10.357  16.186  18.151  0.00  0.00    +0.000 NA
ATOM     13  C   UNL     1      10.522  17.485  18.448  0.00  0.00    +0.000 A 
ATOM     14  N   UNL     1      10.541  18.040  19.654  0.00  0.00    +0.000 NA
ATOM     15  C   UNL     1      10.334  17.144  20.638  0.00  0.00    +0.000 A 
ATOM     16  S   UNL     1      10.307  17.677  22.252  0.00  0.00    +0.000 S 
ATOM     17  C   UNL     1       9.986  16.116  22.837  0.00  0.00    +0.000 A 
ATOM     18  C   UNL     1       9.842  15.862  24.305  0.00  0.00    +0.000 C 
ATOM     19  C   UNL     1       9.859  15.187  21.820  0.00  0.00    +0.000 A 
ATOM     20  C   UNL     1       9.472  13.779  22.130  0.00  0.00    +0.000 C 
ATOM     21  C   UNL     1      10.127  15.775  20.494  0.00  0.00    +0.000 A 
ENDBRANCH   8  11
ENDBRANCH   2   5
BRANCH   1  24
ATOM     22  C   UNL     1       7.848   6.905  18.207  0.00  0.00    +0.000 C 
ATOM     23  O   UNL     1       7.741   6.871  16.981  0.00  0.00    +0.000 OA
ATOM     24  N   UNL     1       8.475   7.951  18.862  0.00  0.00    +0.000 N 
ATOM     25  H   UNL     1       8.483   8.067  19.873  0.00  0.00    +0.000 HD
BRANCH  22  26
ATOM     26  C   UNL     1       7.237   5.887  19.141  0.00  0.00    +0.000 C 
BRANCH  26  27
ATOM     27  O   UNL     1       6.925   4.702  18.439  0.00  0.00    +0.000 OA
BRANCH  27  33
ATOM     28  C   UNL     1       5.041   4.004  16.945  0.00  0.00    +0.000 A 
ATOM     29  C   UNL     1       3.659   3.805  16.868  0.00  0.00    +0.000 A 
ATOM     30  C   UNL     1       2.823   4.141  17.934  0.00  0.00    +0.000 A 
ATOM     31  C   UNL     1       3.371   4.642  19.108  0.00  0.00    +0.000 A 
ATOM     32  C   UNL     1       4.755   4.790  19.218  0.00  0.00    +0.000 A 
ATOM     33  C   UNL     1       5.602   4.475  18.151  0.00  0.00    +0.000 A 
BRANCH  28  35
ATOM     34  C   UNL     1       5.618   4.409  14.687  0.00  0.00    +0.000 C 
ATOM     35  O   UNL     1       5.852   3.685  15.892  0.00  0.00    +0.000 OA
ENDBRANCH  28  35
ENDBRANCH  27  33
ENDBRANCH  26  27
ENDBRANCH  22  26
ENDBRANCH   1  24
TORSDOF 7
ENDMDL
MODEL 2
REMARK VINA RESULT:      -8.0      1.085      1.597
REMARK  Name = 
REMARK  10 active torsions:
REMARK  status: ('A' for Active; 'I' for Inactive)
REMARK    1  A    between atoms: C_1  and  O_2
REMARK    2  A    between atoms: O_2  and  C_3
REMARK    3  A    between atoms: C_8  and  O_9
REMARK    4  A    between atoms: O_9  and  C_10
REMARK    5  A    between atoms: C_10  and  C_11
REMARK    6  A    between atoms: N_13  and  N_14
REMARK    7  A    between atoms: C_15  and  C_17
REMARK    8  A    between atoms: N_20  and  C_21
REMARK    9  A    between atoms: C_27  and  C_28
REMARK   10  A    between atoms: C_29  and  C_30
REMARK                            x       y       z     vdW  Elec       q    Type
REMARK                         _______ _______ _______ _____ _____    ______ ____
ROOT
ATOM      1  N   UNL     1       8.711   9.061  18.004  0.00  0.00    +0.000 N 
ATOM      2  C   UNL     1       9.173  10.148  18.702  0.00  0.00    +0.000 C 
ATOM      3  O   UNL     1       9.217  10.164  19.935  0.00  0.00    +0.000 OA
ATOM      4  H   UNL     1       8.810   8.930  17.000  0.00  0.00    +0.000 HD
ENDROOT
BRANCH   2   5
ATOM      5  C   UNL     1       9.668  11.314  17.858  0.00  0.00    +0.000 C 
ATOM      6  C   UNL     1      11.077  11.785  18.303  0.00  0.00    +0.000 C 
ATOM      7  C   UNL     1      11.064  12.790  19.472  0.00  0.00    +0.000 C 
ATOM      8  N   UNL     1      10.084  13.828  19.140  0.00  0.00    +0.000 N 
ATOM      9  C   UNL     1       8.734  13.310  19.086  0.00  0.00    +0.000 C 
ATOM     10  C   UNL     1       8.694  12.497  17.791  0.00  0.00    +0.000 C 
BRANCH   8  11
ATOM     11  C   UNL     1      10.260  15.132  19.583  0.00  0.00    +0.000 A 
ATOM     12  N   UNL     1      10.613  16.069  18.669  0.00  0.00    +0.000 NA
ATOM     13  C   UNL     1      10.779  17.343  19.055  0.00  0.00    +0.000 A 
ATOM     14  N   UNL     1      10.648  17.839  20.280  0.00  0.00    +0.000 NA
ATOM     15  C   UNL     1      10.274  16.906  21.176  0.00  0.00    +0.000 A 
ATOM     16  S   UNL     1      10.039  17.362  22.797  0.00  0.00    +0.000 S 
ATOM     17  C   UNL     1       9.583  15.790  23.248  0.00  0.00    +0.000 A 
ATOM     18  C   UNL     1       9.225  15.471  24.666  0.00  0.00    +0.000 C 
ATOM     19  C   UNL     1       9.569  14.917  22.174  0.00  0.00    +0.000 A 
ATOM     20  C   UNL     1       9.092  13.513  22.353  0.00  0.00    +0.000 C 
ATOM     21  C   UNL     1      10.041  15.556  20.932  0.00  0.00    +0.000 A 
ENDBRANCH   8  11
ENDBRANCH   2   5
BRANCH   1  24
ATOM     22  C   UNL     1       7.714   6.945  17.883  0.00  0.00    +0.000 C 
ATOM     23  O   UNL     1       7.757   6.984  16.652  0.00  0.00    +0.000 OA
ATOM     24  N   UNL     1       8.304   7.917  18.670  0.00  0.00    +0.000 N 
ATOM     25  H   UNL     1       8.193   7.977  19.680  0.00  0.00    +0.000 HD
BRANCH  22  26
ATOM     26  C   UNL     1       6.943   5.913  18.672  0.00  0.00    +0.000 C 
BRANCH  26  27
ATOM     27  O   UNL     1       6.072   5.195  17.823  0.00  0.00    +0.000 OA
BRANCH  27  33
ATOM     28  C   UNL     1       4.279   4.068  19.157  0.00  0.00    +0.000 A 
ATOM     29  C   UNL     1       2.921   4.090  19.493  0.00  0.00    +0.000 A 
ATOM     30  C   UNL     1       2.045   4.991  18.886  0.00  0.00    +0.000 A 
ATOM     31  C   UNL     1       2.530   5.911  17.966  0.00  0.00    +0.000 A 
ATOM     32  C   UNL     1       3.893   5.938  17.666  0.00  0.00    +0.000 A 
ATOM     33  C   UNL     1       4.779   5.027  18.251  0.00  0.00    +0.000 A 
BRANCH  28  35
ATOM     34  C   UNL     1       4.540   1.949  20.176  0.00  0.00    +0.000 C 
ATOM     35  O   UNL     1       5.128   3.173  19.745  0.00  0.00    +0.000 OA
ENDBRANCH  28  35
ENDBRANCH  27  33
ENDBRANCH  26  27
ENDBRANCH  22  26
ENDBRANCH   1  24
TORSDOF 7
ENDMDL
MODEL 3
REMARK VINA RESULT:      -7.9      6.453      7.821
REMARK  Name = 
REMARK  10 active torsions:
REMARK  status: ('A' for Active; 'I' for Inactive)
REMARK    1  A    between atoms: C_1  and  O_2
REMARK    2  A    between atoms: O_2  and  C_3
REMARK    3  A    between atoms: C_8  and  O_9
REMARK    4  A    between atoms: O_9  and  C_10
REMARK    5  A    between atoms: C_10  and  C_11
REMARK    6  A    between atoms: N_13  and  N_14
REMARK    7  A    between atoms: C_15  and  C_17
REMARK    8  A    between atoms: N_20  and  C_21
REMARK    9  A    between atoms: C_27  and  C_28
REMARK   10  A    between atoms: C_29  and  C_30
REMARK                            x       y       z     vdW  Elec       q    Type
REMARK                         _______ _______ _______ _____ _____    ______ ____
ROOT
ATOM      1  N   UNL     1       1.669   7.919  19.780  0.00  0.00    +0.000 N 
ATOM      2  C   UNL     1       1.090   8.663  20.778  0.00  0.00    +0.000 C 
ATOM      3  O   UNL     1       1.356   8.481  21.968  0.00  0.00    +0.000 OA
ATOM      4  H   UNL     1       1.615   8.136  18.787  0.00  0.00    +0.000 HD
ENDROOT
BRANCH   2   5
ATOM      5  C   UNL     1       0.132   9.753  20.318  0.00  0.00    +0.000 C 
ATOM      6  C   UNL     1       0.308  10.070  18.810  0.00  0.00    +0.000 C 
ATOM      7  C   UNL     1       1.426  11.090  18.509  0.00  0.00    +0.000 C 
ATOM      8  N   UNL     1       1.232  12.225  19.415  0.00  0.00    +0.000 N 
ATOM      9  C   UNL     1       1.432  11.859  20.802  0.00  0.00    +0.000 C 
ATOM     10  C   UNL     1       0.193  11.035  21.156  0.00  0.00    +0.000 C 
BRANCH   8  11
ATOM     11  C   UNL     1       1.591  13.508  19.026  0.00  0.00    +0.000 A 
ATOM     12  N   UNL     1       2.788  13.670  18.410  0.00  0.00    +0.000 NA
ATOM     13  C   UNL     1       3.166  14.893  18.006  0.00  0.00    +0.000 A 
ATOM     14  N   UNL     1       2.496  16.031  18.143  0.00  0.00    +0.000 NA
ATOM     15  C   UNL     1       1.298  15.856  18.734  0.00  0.00    +0.000 A 
ATOM     16  S   UNL     1       0.291  17.203  18.978  0.00  0.00    +0.000 S 
ATOM     17  C   UNL     1      -0.933  16.252  19.671  0.00  0.00    +0.000 A 
ATOM     18  C   UNL     1      -2.205  16.874  20.157  0.00  0.00    +0.000 C 
ATOM     19  C   UNL     1      -0.608  14.908  19.690  0.00  0.00    +0.000 A 
ATOM     20  C   UNL     1      -1.603  13.900  20.165  0.00  0.00    +0.000 C 
ATOM     21  C   UNL     1       0.755  14.658  19.188  0.00  0.00    +0.000 A 
ENDBRANCH   8  11
ENDBRANCH   2   5
BRANCH   1  24
ATOM     22  C   UNL     1       2.781   5.966  19.123  0.00  0.00    +0.000 C 
ATOM     23  O   UNL     1       2.313   6.068  17.988  0.00  0.00    +0.000 OA
ATOM     24  N   UNL     1       2.609   6.948  20.081  0.00  0.00    +0.000 N 
ATOM     25  H   UNL     1       2.884   6.848  21.056  0.00  0.00    +0.000 HD
BRANCH  22  26
ATOM     26  C   UNL     1       3.500   4.740  19.636  0.00  0.00    +0.000 C 
BRANCH  26  27
ATOM     27  O   UNL     1       4.361   4.223  18.643  0.00  0.00    +0.000 OA
BRANCH  27  33
ATOM     28  C   UNL     1       5.812   5.505  17.056  0.00  0.00    +0.000 A 
ATOM     29  C   UNL     1       6.967   6.285  16.941  0.00  0.00    +0.000 A 
ATOM     30  C   UNL     1       7.815   6.479  18.033  0.00  0.00    +0.000 A 
ATOM     31  C   UNL     1       7.490   5.928  19.265  0.00  0.00    +0.000 A 
ATOM     32  C   UNL     1       6.309   5.196  19.406  0.00  0.00    +0.000 A 
ATOM     33  C   UNL     1       5.461   4.977  18.317  0.00  0.00    +0.000 A 
BRANCH  28  35
ATOM     34  C   UNL     1       5.623   4.802  14.805  0.00  0.00    +0.000 C 
ATOM     35  O   UNL     1       4.994   5.308  15.980  0.00  0.00    +0.000 OA
ENDBRANCH  28  35
ENDBRANCH  27  33
ENDBRANCH  26  27
ENDBRANCH  22  26
ENDBRANCH   1  24
TORSDOF 7
ENDMDL
MODEL 4
REMARK VINA RESULT:      -7.9      6.942      7.848
REMARK  Name = 
REMARK  10 active torsions:
REMARK  status: ('A' for Active; 'I' for Inactive)
REMARK    1  A    between atoms: C_1  and  O_2
REMARK    2  A    between atoms: O_2  and  C_3
REMARK    3  A    between atoms: C_8  and  O_9
REMARK    4  A    between atoms: O_9  and  C_10
REMARK    5  A    between atoms: C_10  and  C_11
REMARK    6  A    between atoms: N_13  and  N_14
REMARK    7  A    between atoms: C_15  and  C_17
REMARK    8  A    between atoms: N_20  and  C_21
REMARK    9  A    between atoms: C_27  and  C_28
REMARK   10  A    between atoms: C_29  and  C_30
REMARK                            x       y       z     vdW  Elec       q    Type
REMARK                         _______ _______ _______ _____ _____    ______ ____
ROOT
ATOM      1  N   UNL     1       1.076   9.396  19.523  0.00  0.00    +0.000 N 
ATOM      2  C   UNL     1       0.772  10.050  20.692  0.00  0.00    +0.000 C 
ATOM      3  O   UNL     1       1.176   9.652  21.787  0.00  0.00    +0.000 OA
ATOM      4  H   UNL     1       0.914   9.769  18.590  0.00  0.00    +0.000 HD
ENDROOT
BRANCH   2   5
ATOM      5  C   UNL     1      -0.058  11.317  20.544  0.00  0.00    +0.000 C 
ATOM      6  C   UNL     1      -0.290  11.677  19.054  0.00  0.00    +0.000 C 
ATOM      7  C   UNL     1       0.854  12.494  18.419  0.00  0.00    +0.000 C 
ATOM      8  N   UNL     1       1.159  13.596  19.336  0.00  0.00    +0.000 N 
ATOM      9  C   UNL     1       1.697  13.127  20.596  0.00  0.00    +0.000 C 
ATOM     10  C   UNL     1       0.492  12.521  21.317  0.00  0.00    +0.000 C 
BRANCH   8  11
ATOM     11  C   UNL     1       1.617  14.813  18.850  0.00  0.00    +0.000 A 
ATOM     12  N   UNL     1       2.777  14.817  18.147  0.00  0.00    +0.000 NA
ATOM     13  C   UNL     1       3.246  15.971  17.648  0.00  0.00    +0.000 A 
ATOM     14  N   UNL     1       2.706  17.179  17.763  0.00  0.00    +0.000 NA
ATOM     15  C   UNL     1       1.543  17.161  18.441  0.00  0.00    +0.000 A 
ATOM     16  S   UNL     1       0.696  18.617  18.673  0.00  0.00    +0.000 S 
ATOM     17  C   UNL     1      -0.565  17.836  19.499  0.00  0.00    +0.000 A 
ATOM     18  C   UNL     1      -1.729  18.611  20.031  0.00  0.00    +0.000 C 
ATOM     19  C   UNL     1      -0.377  16.467  19.575  0.00  0.00    +0.000 A 
ATOM     20  C   UNL     1      -1.431  15.595  20.173  0.00  0.00    +0.000 C 
ATOM     21  C   UNL     1       0.915  16.051  18.999  0.00  0.00    +0.000 A 
ENDBRANCH   8  11
ENDBRANCH   2   5
BRANCH   1  24
ATOM     22  C   UNL     1       2.480   7.953  18.327  0.00  0.00    +0.000 C 
ATOM     23  O   UNL     1       2.485   8.732  17.373  0.00  0.00    +0.000 OA
ATOM     24  N   UNL     1       1.886   8.273  19.535  0.00  0.00    +0.000 N 
ATOM     25  H   UNL     1       1.766   7.617  20.303  0.00  0.00    +0.000 HD
BRANCH  22  26
ATOM     26  C   UNL     1       3.019   6.543  18.273  0.00  0.00    +0.000 C 
BRANCH  26  27
ATOM     27  O   UNL     1       1.978   5.628  18.005  0.00  0.00    +0.000 OA
BRANCH  27  33
ATOM     28  C   UNL     1       2.393   3.191  18.400  0.00  0.00    +0.000 A 
ATOM     29  C   UNL     1       2.302   2.154  19.335  0.00  0.00    +0.000 A 
ATOM     30  C   UNL     1       1.703   2.358  20.579  0.00  0.00    +0.000 A 
ATOM     31  C   UNL     1       1.226   3.618  20.916  0.00  0.00    +0.000 A 
ATOM     32  C   UNL     1       1.364   4.675  20.015  0.00  0.00    +0.000 A 
ATOM     33  C   UNL     1       1.945   4.481  18.758  0.00  0.00    +0.000 A 
BRANCH  28  35
ATOM     34  C   UNL     1       4.343   3.342  17.069  0.00  0.00    +0.000 C 
ATOM     35  O   UNL     1       2.969   2.981  17.179  0.00  0.00    +0.000 OA
ENDBRANCH  28  35
ENDBRANCH  27  33
ENDBRANCH  26  27
ENDBRANCH  22  26
ENDBRANCH   1  24
TORSDOF 7
ENDMDL
MODEL 5
REMARK VINA RESULT:      -7.8      1.592      2.268
REMARK  Name = 
REMARK  10 active torsions:
REMARK  status: ('A' for Active; 'I' for Inactive)
REMARK    1  A    between atoms: C_1  and  O_2
REMARK    2  A    between atoms: O_2  and  C_3
REMARK    3  A    between atoms: C_8  and  O_9
REMARK    4  A    between atoms: O_9  and  C_10
REMARK    5  A    between atoms: C_10  and  C_11
REMARK    6  A    between atoms: N_13  and  N_14
REMARK    7  A    between atoms: C_15  and  C_17
REMARK    8  A    between atoms: N_20  and  C_21
REMARK    9  A    between atoms: C_27  and  C_28
REMARK   10  A    between atoms: C_29  and  C_30
REMARK                            x       y       z     vdW  Elec       q    Type
REMARK                         _______ _______ _______ _____ _____    ______ ____
ROOT
ATOM      1  N   UNL     1       8.662   8.748  18.433  0.00  0.00    +0.000 N 
ATOM      2  C   UNL     1       8.730  10.114  18.325  0.00  0.00    +0.000 C 
ATOM      3  O   UNL     1       8.013  10.746  17.546  0.00  0.00    +0.000 OA
ATOM      4  H   UNL     1       9.102   8.200  19.169  0.00  0.00    +0.000 HD
ENDROOT
BRANCH   2   5
ATOM      5  C   UNL     1       9.718  10.802  19.257  0.00  0.00    +0.000 C 
ATOM      6  C   UNL     1       9.069  12.006  19.989  0.00  0.00    +0.000 C 
ATOM      7  C   UNL     1       9.097  13.320  19.183  0.00  0.00    +0.000 C 
ATOM      8  N   UNL     1      10.464  13.495  18.686  0.00  0.00    +0.000 N 
ATOM      9  C   UNL     1      10.835  12.471  17.732  0.00  0.00    +0.000 C 
ATOM     10  C   UNL     1      11.032  11.216  18.584  0.00  0.00    +0.000 C 
BRANCH   8  11
ATOM     11  C   UNL     1      10.994  14.766  18.510  0.00  0.00    +0.000 A 
ATOM     12  N   UNL     1      11.286  15.161  17.246  0.00  0.00    +0.000 NA
ATOM     13  C   UNL     1      11.787  16.387  17.032  0.00  0.00    +0.000 A 
ATOM     14  N   UNL     1      12.061  17.316  17.941  0.00  0.00    +0.000 NA
ATOM     15  C   UNL     1      11.745  16.925  19.190  0.00  0.00    +0.000 A 
ATOM     16  S   UNL     1      12.010  17.993  20.485  0.00  0.00    +0.000 S 
ATOM     17  C   UNL     1      11.383  16.893  21.616  0.00  0.00    +0.000 A 
ATOM     18  C   UNL     1      11.330  17.235  23.072  0.00  0.00    +0.000 C 
ATOM     19  C   UNL     1      10.934  15.726  21.022  0.00  0.00    +0.000 A 
ATOM     20  C   UNL     1      10.252  14.680  21.841  0.00  0.00    +0.000 C 
ATOM     21  C   UNL     1      11.201  15.702  19.573  0.00  0.00    +0.000 A 
ENDBRANCH   8  11
ENDBRANCH   2   5
BRANCH   1  24
ATOM     22  C   UNL     1       7.575   6.707  18.059  0.00  0.00    +0.000 C 
ATOM     23  O   UNL     1       8.018   6.265  19.120  0.00  0.00    +0.000 OA
ATOM     24  N   UNL     1       7.746   8.028  17.684  0.00  0.00    +0.000 N 
ATOM     25  H   UNL     1       7.493   8.398  16.771  0.00  0.00    +0.000 HD
BRANCH  22  26
ATOM     26  C   UNL     1       6.891   5.864  17.009  0.00  0.00    +0.000 C 
BRANCH  26  27
ATOM     27  O   UNL     1       6.260   4.751  17.606  0.00  0.00    +0.000 OA
BRANCH  27  33
ATOM     28  C   UNL     1       4.419   4.223  19.218  0.00  0.00    +0.000 A 
ATOM     29  C   UNL     1       3.172   4.633  19.702  0.00  0.00    +0.000 A 
ATOM     30  C   UNL     1       2.497   5.711  19.127  0.00  0.00    +0.000 A 
ATOM     31  C   UNL     1       3.087   6.418  18.087  0.00  0.00    +0.000 A 
ATOM     32  C   UNL     1       4.357   6.056  17.635  0.00  0.00    +0.000 A 
ATOM     33  C   UNL     1       5.035   4.965  18.189  0.00  0.00    +0.000 A 
BRANCH  28  35
ATOM     34  C   UNL     1       4.329   1.940  19.833  0.00  0.00    +0.000 C 
ATOM     35  O   UNL     1       5.068   3.158  19.777  0.00  0.00    +0.000 OA
ENDBRANCH  28  35
ENDBRANCH  27  33
ENDBRANCH  26  27
ENDBRANCH  22  26
ENDBRANCH   1  24
TORSDOF 7
ENDMDL
MODEL 6
REMARK VINA RESULT:      -7.8     10.153     11.429
REMARK  Name = 
REMARK  10 active torsions:
REMARK  status: ('A' for Active; 'I' for Inactive)
REMARK    1  A    between atoms: C_1  and  O_2
REMARK    2  A    between atoms: O_2  and  C_3
REMARK    3  A    between atoms: C_8  and  O_9
REMARK    4  A    between atoms: O_9  and  C_10
REMARK    5  A    between atoms: C_10  and  C_11
REMARK    6  A    between atoms: N_13  and  N_14
REMARK    7  A    between atoms: C_15  and  C_17
REMARK    8  A    between atoms: N_20  and  C_21
REMARK    9  A    between atoms: C_27  and  C_28
REMARK   10  A    between atoms: C_29  and  C_30
REMARK                            x       y       z     vdW  Elec       q    Type
REMARK                         _______ _______ _______ _____ _____    ______ ____
ROOT
ATOM      1  N   UNL     1       0.397  10.903  19.955  0.00  0.00    +0.000 N 
ATOM      2  C   UNL     1       0.226  11.116  21.300  0.00  0.00    +0.000 C 
ATOM      3  O   UNL     1       0.535  10.268  22.140  0.00  0.00    +0.000 OA
ATOM      4  H   UNL     1       0.320  11.622  19.238  0.00  0.00    +0.000 HD
ENDROOT
BRANCH   2   5
ATOM      5  C   UNL     1      -0.329  12.479  21.689  0.00  0.00    +0.000 C 
ATOM      6  C   UNL     1      -1.019  12.440  23.077  0.00  0.00    +0.000 C 
ATOM      7  C   UNL     1      -2.492  11.984  23.034  0.00  0.00    +0.000 C 
ATOM      8  N   UNL     1      -3.153  12.755  21.977  0.00  0.00    +0.000 N 
ATOM      9  C   UNL     1      -2.633  12.442  20.663  0.00  0.00    +0.000 C 
ATOM     10  C   UNL     1      -1.253  13.103  20.637  0.00  0.00    +0.000 C 
BRANCH   8  11
ATOM     11  C   UNL     1      -4.498  13.084  22.080  0.00  0.00    +0.000 A 
ATOM     12  N   UNL     1      -5.397  12.261  21.486  0.00  0.00    +0.000 NA
ATOM     13  C   UNL     1      -6.707  12.536  21.573  0.00  0.00    +0.000 A 
ATOM     14  N   UNL     1      -7.276  13.567  22.188  0.00  0.00    +0.000 NA
ATOM     15  C   UNL     1      -6.377  14.365  22.795  0.00  0.00    +0.000 A 
ATOM     16  S   UNL     1      -6.924  15.729  23.649  0.00  0.00    +0.000 S 
ATOM     17  C   UNL     1      -5.350  16.158  24.116  0.00  0.00    +0.000 A 
ATOM     18  C   UNL     1      -5.101  17.376  24.949  0.00  0.00    +0.000 C 
ATOM     19  C   UNL     1      -4.402  15.256  23.664  0.00  0.00    +0.000 A 
ATOM     20  C   UNL     1      -2.971  15.405  24.063  0.00  0.00    +0.000 C 
ATOM     21  C   UNL     1      -4.995  14.206  22.815  0.00  0.00    +0.000 A 
ENDBRANCH   8  11
ENDBRANCH   2   5
BRANCH   1  24
ATOM     22  C   UNL     1       1.773   9.848  18.380  0.00  0.00    +0.000 C 
ATOM     23  O   UNL     1       2.158  10.943  17.968  0.00  0.00    +0.000 OA
ATOM     24  N   UNL     1       0.962   9.726  19.494  0.00  0.00    +0.000 N 
ATOM     25  H   UNL     1       0.536   8.852  19.796  0.00  0.00    +0.000 HD
BRANCH  22  26
ATOM     26  C   UNL     1       2.045   8.536  17.683  0.00  0.00    +0.000 C 
BRANCH  26  27
ATOM     27  O   UNL     1       2.803   7.685  18.516  0.00  0.00    +0.000 OA
BRANCH  27  33
ATOM     28  C   UNL     1       2.958   5.233  18.036  0.00  0.00    +0.000 A 
ATOM     29  C   UNL     1       3.654   4.250  17.324  0.00  0.00    +0.000 A 
ATOM     30  C   UNL     1       4.791   4.571  16.581  0.00  0.00    +0.000 A 
ATOM     31  C   UNL     1       5.218   5.890  16.509  0.00  0.00    +0.000 A 
ATOM     32  C   UNL     1       4.497   6.888  17.167  0.00  0.00    +0.000 A 
ATOM     33  C   UNL     1       3.368   6.579  17.931  0.00  0.00    +0.000 A 
BRANCH  28  35
ATOM     34  C   UNL     1       1.407   3.560  18.665  0.00  0.00    +0.000 C 
ATOM     35  O   UNL     1       1.853   4.909  18.773  0.00  0.00    +0.000 OA
ENDBRANCH  28  35
ENDBRANCH  27  33
ENDBRANCH  26  27
ENDBRANCH  22  26
ENDBRANCH   1  24
TORSDOF 7
ENDMDL
MODEL 7
REMARK VINA RESULT:      -7.8      6.445      8.087
REMARK  Name = 
REMARK  10 active torsions:
REMARK  status: ('A' for Active; 'I' for Inactive)
REMARK    1  A    between atoms: C_1  and  O_2
REMARK    2  A    between atoms: O_2  and  C_3
REMARK    3  A    between atoms: C_8  and  O_9
REMARK    4  A    between atoms: O_9  and  C_10
REMARK    5  A    between atoms: C_10  and  C_11
REMARK    6  A    between atoms: N_13  and  N_14
REMARK    7  A    between atoms: C_15  and  C_17
REMARK    8  A    between atoms: N_20  and  C_21
REMARK    9  A    between atoms: C_27  and  C_28
REMARK   10  A    between atoms: C_29  and  C_30
REMARK                            x       y       z     vdW  Elec       q    Type
REMARK                         _______ _______ _______ _____ _____    ______ ____
ROOT
ATOM      1  N   UNL     1       1.812   7.599  20.485  0.00  0.00    +0.000 N 
ATOM      2  C   UNL     1       1.332   8.686  19.798  0.00  0.00    +0.000 C 
ATOM      3  O   UNL     1       1.783   9.017  18.699  0.00  0.00    +0.000 OA
ATOM      4  H   UNL     1       1.370   7.186  21.303  0.00  0.00    +0.000 HD
ENDROOT
BRANCH   2   5
ATOM      5  C   UNL     1       0.181   9.430  20.461  0.00  0.00    +0.000 C 
ATOM      6  C   UNL     1      -0.750  10.091  19.411  0.00  0.00    +0.000 C 
ATOM      7  C   UNL     1      -0.279  11.482  18.940  0.00  0.00    +0.000 C 
ATOM      8  N   UNL     1       0.040  12.261  20.139  0.00  0.00    +0.000 N 
ATOM      9  C   UNL     1       1.170  11.715  20.863  0.00  0.00    +0.000 C 
ATOM     10  C   UNL     1       0.619  10.448  21.520  0.00  0.00    +0.000 C 
BRANCH   8  11
ATOM     11  C   UNL     1      -0.133  13.638  20.153  0.00  0.00    +0.000 A 
ATOM     12  N   UNL     1      -1.142  14.142  20.905  0.00  0.00    +0.000 NA
ATOM     13  C   UNL     1      -1.335  15.469  20.956  0.00  0.00    +0.000 A 
ATOM     14  N   UNL     1      -0.639  16.409  20.327  0.00  0.00    +0.000 NA
ATOM     15  C   UNL     1       0.377  15.902  19.602  0.00  0.00    +0.000 A 
ATOM     16  S   UNL     1       1.390  16.960  18.741  0.00  0.00    +0.000 S 
ATOM     17  C   UNL     1       2.355  15.686  18.169  0.00  0.00    +0.000 A 
ATOM     18  C   UNL     1       3.521  15.951  17.269  0.00  0.00    +0.000 C 
ATOM     19  C   UNL     1       1.945  14.456  18.652  0.00  0.00    +0.000 A 
ATOM     20  C   UNL     1       2.734  13.226  18.345  0.00  0.00    +0.000 C 
ATOM     21  C   UNL     1       0.719  14.560  19.465  0.00  0.00    +0.000 A 
ENDBRANCH   8  11
ENDBRANCH   2   5
BRANCH   1  24
ATOM     22  C   UNL     1       2.574   5.445  19.970  0.00  0.00    +0.000 C 
ATOM     23  O   UNL     1       1.466   4.978  20.239  0.00  0.00    +0.000 OA
ATOM     24  N   UNL     1       2.810   6.808  19.941  0.00  0.00    +0.000 N 
ATOM     25  H   UNL     1       3.732   7.224  19.833  0.00  0.00    +0.000 HD
BRANCH  22  26
ATOM     26  C   UNL     1       3.813   4.611  19.742  0.00  0.00    +0.000 C 
BRANCH  26  27
ATOM     27  O   UNL     1       4.895   5.433  19.360  0.00  0.00    +0.000 OA
BRANCH  27  33
ATOM     28  C   UNL     1       6.588   5.804  17.553  0.00  0.00    +0.000 A 
ATOM     29  C   UNL     1       6.996   5.416  16.273  0.00  0.00    +0.000 A 
ATOM     30  C   UNL     1       6.237   4.521  15.518  0.00  0.00    +0.000 A 
ATOM     31  C   UNL     1       5.081   3.970  16.057  0.00  0.00    +0.000 A 
ATOM     32  C   UNL     1       4.696   4.305  17.356  0.00  0.00    +0.000 A 
ATOM     33  C   UNL     1       5.436   5.216  18.117  0.00  0.00    +0.000 A 
BRANCH  28  35
ATOM     34  C   UNL     1       7.702   7.891  17.607  0.00  0.00    +0.000 C 
ATOM     35  O   UNL     1       7.329   6.692  18.281  0.00  0.00    +0.000 OA
ENDBRANCH  28  35
ENDBRANCH  27  33
ENDBRANCH  26  27
ENDBRANCH  22  26
ENDBRANCH   1  24
TORSDOF 7
ENDMDL
MODEL 8
REMARK VINA RESULT:      -7.8      6.632      7.679
REMARK  Name = 
REMARK  10 active torsions:
REMARK  status: ('A' for Active; 'I' for Inactive)
REMARK    1  A    between atoms: C_1  and  O_2
REMARK    2  A    between atoms: O_2  and  C_3
REMARK    3  A    between atoms: C_8  and  O_9
REMARK    4  A    between atoms: O_9  and  C_10
REMARK    5  A    between atoms: C_10  and  C_11
REMARK    6  A    between atoms: N_13  and  N_14
REMARK    7  A    between atoms: C_15  and  C_17
REMARK    8  A    between atoms: N_20  and  C_21
REMARK    9  A    between atoms: C_27  and  C_28
REMARK   10  A    between atoms: C_29  and  C_30
REMARK                            x       y       z     vdW  Elec       q    Type
REMARK                         _______ _______ _______ _____ _____    ______ ____
ROOT
ATOM      1  N   UNL     1       1.090   8.868  20.302  0.00  0.00    +0.000 N 
ATOM      2  C   UNL     1       0.878   9.869  21.216  0.00  0.00    +0.000 C 
ATOM      3  O   UNL     1       1.353   9.827  22.354  0.00  0.00    +0.000 OA
ATOM      4  H   UNL     1       0.868   8.930  19.311  0.00  0.00    +0.000 HD
ENDROOT
BRANCH   2   5
ATOM      5  C   UNL     1       0.057  11.052  20.723  0.00  0.00    +0.000 C 
ATOM      6  C   UNL     1       0.098  11.171  19.178  0.00  0.00    +0.000 C 
ATOM      7  C   UNL     1       1.318  11.945  18.638  0.00  0.00    +0.000 C 
ATOM      8  N   UNL     1       1.419  13.187  19.410  0.00  0.00    +0.000 N 
ATOM      9  C   UNL     1       1.725  12.943  20.804  0.00  0.00    +0.000 C 
ATOM     10  C   UNL     1       0.422  12.387  21.383  0.00  0.00    +0.000 C 
BRANCH   8  11
ATOM     11  C   UNL     1       1.927  14.340  18.828  0.00  0.00    +0.000 A 
ATOM     12  N   UNL     1       3.133  14.259  18.214  0.00  0.00    +0.000 NA
ATOM     13  C   UNL     1       3.654  15.348  17.627  0.00  0.00    +0.000 A 
ATOM     14  N   UNL     1       3.124  16.565  17.571  0.00  0.00    +0.000 NA
ATOM     15  C   UNL     1       1.916  16.629  18.161  0.00  0.00    +0.000 A 
ATOM     16  S   UNL     1       1.076  18.107  18.171  0.00  0.00    +0.000 S 
ATOM     17  C   UNL     1      -0.251  17.430  18.985  0.00  0.00    +0.000 A 
ATOM     18  C   UNL     1      -1.438  18.267  19.345  0.00  0.00    +0.000 C 
ATOM     19  C   UNL     1      -0.088  16.077  19.224  0.00  0.00    +0.000 A 
ATOM     20  C   UNL     1      -1.195  15.283  19.836  0.00  0.00    +0.000 C 
ATOM     21  C   UNL     1       1.235  15.592  18.791  0.00  0.00    +0.000 A 
ENDBRANCH   8  11
ENDBRANCH   2   5
BRANCH   1  24
ATOM     22  C   UNL     1       2.348   7.043  19.546  0.00  0.00    +0.000 C 
ATOM     23  O   UNL     1       2.267   7.453  18.388  0.00  0.00    +0.000 OA
ATOM     24  N   UNL     1       1.883   7.778  20.622  0.00  0.00    +0.000 N 
ATOM     25  H   UNL     1       1.832   7.425  21.574  0.00  0.00    +0.000 HD
BRANCH  22  26
ATOM     26  C   UNL     1       2.862   5.674  19.926  0.00  0.00    +0.000 C 
BRANCH  26  27
ATOM     27  O   UNL     1       4.239   5.566  19.630  0.00  0.00    +0.000 OA
BRANCH  27  33
ATOM     28  C   UNL     1       4.145   4.087  17.613  0.00  0.00    +0.000 A 
ATOM     29  C   UNL     1       4.582   3.925  16.294  0.00  0.00    +0.000 A 
ATOM     30  C   UNL     1       5.496   4.814  15.726  0.00  0.00    +0.000 A 
ATOM     31  C   UNL     1       5.951   5.900  16.462  0.00  0.00    +0.000 A 
ATOM     32  C   UNL     1       5.477   6.104  17.759  0.00  0.00    +0.000 A 
ATOM     33  C   UNL     1       4.576   5.212  18.348  0.00  0.00    +0.000 A 
BRANCH  28  35
ATOM     34  C   UNL     1       3.618   1.829  18.082  0.00  0.00    +0.000 C 
ATOM     35  O   UNL     1       3.260   3.206  18.168  0.00  0.00    +0.000 OA
ENDBRANCH  28  35
ENDBRANCH  27  33
ENDBRANCH  26  27
ENDBRANCH  22  26
ENDBRANCH   1  24
TORSDOF 7
ENDMDL
MODEL 9
REMARK VINA RESULT:      -7.8     10.080     11.345
REMARK  Name = 
REMARK  10 active torsions:
REMARK  status: ('A' for Active; 'I' for Inactive)
REMARK    1  A    between atoms: C_1  and  O_2
REMARK    2  A    between atoms: O_2  and  C_3
REMARK    3  A    between atoms: C_8  and  O_9
REMARK    4  A    between atoms: O_9  and  C_10
REMARK    5  A    between atoms: C_10  and  C_11
REMARK    6  A    between atoms: N_13  and  N_14
REMARK    7  A    between atoms: C_15  and  C_17
REMARK    8  A    between atoms: N_20  and  C_21
REMARK    9  A    between atoms: C_27  and  C_28
REMARK   10  A    between atoms: C_29  and  C_30
REMARK                            x       y       z     vdW  Elec       q    Type
REMARK                         _______ _______ _______ _____ _____    ______ ____
ROOT
ATOM      1  N   UNL     1       0.113  10.758  19.798  0.00  0.00    +0.000 N 
ATOM      2  C   UNL     1       0.290  11.201  21.085  0.00  0.00    +0.000 C 
ATOM      3  O   UNL     1       0.927  10.552  21.918  0.00  0.00    +0.000 OA
ATOM      4  H   UNL     1      -0.253  11.322  19.035  0.00  0.00    +0.000 HD
ENDROOT
BRANCH   2   5
ATOM      5  C   UNL     1      -0.314  12.561  21.405  0.00  0.00    +0.000 C 
ATOM      6  C   UNL     1      -0.942  12.588  22.823  0.00  0.00    +0.000 C 
ATOM      7  C   UNL     1      -2.391  12.064  22.879  0.00  0.00    +0.000 C 
ATOM      8  N   UNL     1      -3.133  12.728  21.804  0.00  0.00    +0.000 N 
ATOM      9  C   UNL     1      -2.655  12.346  20.491  0.00  0.00    +0.000 C 
ATOM     10  C   UNL     1      -1.312  13.067  20.357  0.00  0.00    +0.000 C 
BRANCH   8  11
ATOM     11  C   UNL     1      -4.487  13.000  21.945  0.00  0.00    +0.000 A 
ATOM     12  N   UNL     1      -5.368  12.148  21.367  0.00  0.00    +0.000 NA
ATOM     13  C   UNL     1      -6.686  12.369  21.491  0.00  0.00    +0.000 A 
ATOM     14  N   UNL     1      -7.278  13.370  22.131  0.00  0.00    +0.000 NA
ATOM     15  C   UNL     1      -6.397  14.198  22.723  0.00  0.00    +0.000 A 
ATOM     16  S   UNL     1      -6.975  15.531  23.605  0.00  0.00    +0.000 S 
ATOM     17  C   UNL     1      -5.407  16.018  24.035  0.00  0.00    +0.000 A 
ATOM     18  C   UNL     1      -5.185  17.238  24.873  0.00  0.00    +0.000 C 
ATOM     19  C   UNL     1      -4.436  15.160  23.549  0.00  0.00    +0.000 A 
ATOM     20  C   UNL     1      -3.002  15.363  23.912  0.00  0.00    +0.000 C 
ATOM     21  C   UNL     1      -5.009  14.095  22.705  0.00  0.00    +0.000 A 
ENDBRANCH   8  11
ENDBRANCH   2   5
BRANCH   1  24
ATOM     22  C   UNL     1       1.658   9.682  18.406  0.00  0.00    +0.000 C 
ATOM     23  O   UNL     1       2.156  10.766  18.103  0.00  0.00    +0.000 OA
ATOM     24  N   UNL     1       0.681   9.567  19.379  0.00  0.00    +0.000 N 
ATOM     25  H   UNL     1       0.171   8.709  19.577  0.00  0.00    +0.000 HD
BRANCH  22  26
ATOM     26  C   UNL     1       1.967   8.381  17.704  0.00  0.00    +0.000 C 
BRANCH  26  27
ATOM     27  O   UNL     1       2.843   7.596  18.486  0.00  0.00    +0.000 OA
BRANCH  27  33
ATOM     28  C   UNL     1       4.251   5.693  17.671  0.00  0.00    +0.000 A 
ATOM     29  C   UNL     1       4.251   4.335  17.335  0.00  0.00    +0.000 A 
ATOM     30  C   UNL     1       3.067   3.596  17.327  0.00  0.00    +0.000 A 
ATOM     31  C   UNL     1       1.874   4.202  17.698  0.00  0.00    +0.000 A 
ATOM     32  C   UNL     1       1.870   5.541  18.092  0.00  0.00    +0.000 A 
ATOM     33  C   UNL     1       3.045   6.298  18.086  0.00  0.00    +0.000 A 
BRANCH  28  35
ATOM     34  C   UNL     1       6.297   6.153  16.578  0.00  0.00    +0.000 C 
ATOM     35  O   UNL     1       5.411   6.413  17.664  0.00  0.00    +0.000 OA
ENDBRANCH  28  35
ENDBRANCH  27  33
ENDBRANCH  26  27
ENDBRANCH  22  26
ENDBRANCH   1  24
TORSDOF 7
ENDMDL
