MODEL 1
REMARK VINA RESULT:      -8.1      0.000      0.000
REMARK  Name = 
REMARK  5 active torsions:
REMARK  status: ('A' for Active; 'I' for Inactive)
REMARK    1  A    between atoms: C_1  and  C_2
REMARK    2  A    between atoms: C_9  and  C_10
REMARK    3  A    between atoms: C_10  and  N_11
REMARK    4  A    between atoms: C_12  and  C_14
REMARK    5  A    between atoms: C_14  and  C_15
REMARK                            x       y       z     vdW  Elec       q    Type
REMARK                         _______ _______ _______ _____ _____    ______ ____
ROOT
ATOM      1  C   UNL     1       0.987   8.431  21.324  0.00  0.00    +0.000 C 
ATOM      2  C   UNL     1       1.426   8.528  19.905  0.00  0.00    +0.000 A 
ATOM      3  N   UNL     1       1.274   9.604  19.155  0.00  0.00    +0.000 NA
ATOM      4  C   UNL     1       1.926   9.339  17.986  0.00  0.00    +0.000 A 
ATOM      5  C   UNL     1       2.502   8.094  18.025  0.00  0.00    +0.000 A 
ATOM      6  N   UNL     1       2.145   7.544  19.240  0.00  0.00    +0.000 N 
ATOM      7  C   UNL     1       2.447   6.228  19.694  0.00  0.00    +0.000 A 
ATOM      8  C   UNL     1       3.556   5.558  19.175  0.00  0.00    +0.000 A 
ATOM      9  C   UNL     1       3.847   4.263  19.626  0.00  0.00    +0.000 A 
ATOM     10  C   UNL     1       2.956   3.652  20.510  0.00  0.00    +0.000 A 
ATOM     11  C   UNL     1       1.875   4.384  20.971  0.00  0.00    +0.000 A 
ATOM     12  N   UNL     1       1.622   5.661  20.609  0.00  0.00    +0.000 NA
ENDROOT
BRANCH   9  13
ATOM     13  C   UNL     1       5.104   3.561  19.190  0.00  0.00    +0.000 C 
BRANCH  13  14
ATOM     14  N   UNL     1       5.939   4.385  18.356  0.00  0.00    +0.000 N 
ATOM     15  C   UNL     1       6.844   5.246  18.933  0.00  0.00    +0.000 C 
ATOM     16  O   UNL     1       7.076   5.269  20.138  0.00  0.00    +0.000 OA
ATOM     17  H   UNL     1       5.644   4.600  17.405  0.00  0.00    +0.000 HD
BRANCH  15  18
ATOM     18  C   UNL     1       7.566   6.152  17.957  0.00  0.00    +0.000 C 
BRANCH  18  19
ATOM     19  C   UNL     1       7.150   5.939  16.507  0.00  0.00    +0.000 C 
ATOM     20  C   UNL     1       5.663   6.099  16.230  0.00  0.00    +0.000 C 
ATOM     21  C   UNL     1       5.475   5.225  15.014  0.00  0.00    +0.000 C 
ATOM     22  C   UNL     1       6.428   4.084  15.288  0.00  0.00    +0.000 C 
ATOM     23  O   UNL     1       7.520   4.621  16.052  0.00  0.00    +0.000 OA
ENDBRANCH  18  19
ENDBRANCH  15  18
ENDBRANCH  13  14
ENDBRANCH   9  13
TORSDOF 4
ENDMDL
MODEL 2
REMARK VINA RESULT:      -7.9      4.233      7.621
REMARK  Name = 
REMARK  5 active torsions:
REMARK  status: ('A' for Active; 'I' for Inactive)
REMARK    1  A    between atoms: C_1  and  C_2
REMARK    2  A    between atoms: C_9  and  C_10
REMARK    3  A    between atoms: C_10  and  N_11
REMARK    4  A    between atoms: C_12  and  C_14
REMARK    5  A    between atoms: C_14  and  C_15
REMARK                            x       y       z     vdW  Elec       q    Type
REMARK                         _______ _______ _______ _____ _____    ______ ____
ROOT
ATOM      1  C   UNL     1       3.688   3.180  17.468  0.00  0.00    +0.000 C 
ATOM      2  C   UNL     1       4.625   4.143  16.828  0.00  0.00    +0.000 A 
ATOM      3  N   UNL     1       5.593   3.796  15.999  0.00  0.00    +0.000 NA
ATOM      4  C   UNL     1       6.120   4.964  15.532  0.00  0.00    +0.000 A 
ATOM      5  C   UNL     1       5.457   6.042  16.063  0.00  0.00    +0.000 A 
ATOM      6  N   UNL     1       4.522   5.524  16.937  0.00  0.00    +0.000 N 
ATOM      7  C   UNL     1       3.651   6.268  17.783  0.00  0.00    +0.000 A 
ATOM      8  C   UNL     1       3.306   7.576  17.435  0.00  0.00    +0.000 A 
ATOM      9  C   UNL     1       2.449   8.304  18.272  0.00  0.00    +0.000 A 
ATOM     10  C   UNL     1       2.049   7.724  19.477  0.00  0.00    +0.000 A 
ATOM     11  C   UNL     1       2.442   6.425  19.750  0.00  0.00    +0.000 A 
ATOM     12  N   UNL     1       3.202   5.679  18.918  0.00  0.00    +0.000 NA
ENDROOT
BRANCH   9  13
ATOM     13  C   UNL     1       1.950   9.664  17.867  0.00  0.00    +0.000 C 
BRANCH  13  14
ATOM     14  N   UNL     1       0.516   9.766  17.919  0.00  0.00    +0.000 N 
ATOM     15  C   UNL     1      -0.074  10.717  18.720  0.00  0.00    +0.000 C 
ATOM     16  O   UNL     1       0.561  11.583  19.314  0.00  0.00    +0.000 OA
ATOM     17  H   UNL     1      -0.056   8.961  17.668  0.00  0.00    +0.000 HD
BRANCH  15  18
ATOM     18  C   UNL     1      -1.585  10.636  18.790  0.00  0.00    +0.000 C 
BRANCH  18  19
ATOM     19  C   UNL     1      -2.280  11.148  17.535  0.00  0.00    +0.000 C 
ATOM     20  C   UNL     1      -3.795  11.256  17.632  0.00  0.00    +0.000 C 
ATOM     21  C   UNL     1      -4.211  11.112  16.188  0.00  0.00    +0.000 C 
ATOM     22  C   UNL     1      -3.208  10.110  15.662  0.00  0.00    +0.000 C 
ATOM     23  O   UNL     1      -1.992  10.303  16.402  0.00  0.00    +0.000 OA
ENDBRANCH  18  19
ENDBRANCH  15  18
ENDBRANCH  13  14
ENDBRANCH   9  13
TORSDOF 4
ENDMDL
MODEL 3
REMARK VINA RESULT:      -7.9      2.562      5.574
REMARK  Name = 
REMARK  5 active torsions:
REMARK  status: ('A' for Active; 'I' for Inactive)
REMARK    1  A    between atoms: C_1  and  C_2
REMARK    2  A    between atoms: C_9  and  C_10
REMARK    3  A    between atoms: C_10  and  N_11
REMARK    4  A    between atoms: C_12  and  C_14
REMARK    5  A    between atoms: C_14  and  C_15
REMARK                            x       y       z     vdW  Elec       q    Type
REMARK                         _______ _______ _______ _____ _____    ______ ____
ROOT
ATOM      1  C   UNL     1       7.100   7.974  17.225  0.00  0.00    +0.000 C 
ATOM      2  C   UNL     1       6.908   6.502  17.352  0.00  0.00    +0.000 A 
ATOM      3  N   UNL     1       7.843   5.608  17.087  0.00  0.00    +0.000 NA
ATOM      4  C   UNL     1       7.322   4.404  17.461  0.00  0.00    +0.000 A 
ATOM      5  C   UNL     1       6.062   4.561  17.981  0.00  0.00    +0.000 A 
ATOM      6  N   UNL     1       5.767   5.905  17.871  0.00  0.00    +0.000 N 
ATOM      7  C   UNL     1       4.533   6.531  18.209  0.00  0.00    +0.000 A 
ATOM      8  C   UNL     1       3.695   5.934  19.153  0.00  0.00    +0.000 A 
ATOM      9  C   UNL     1       2.482   6.554  19.481  0.00  0.00    +0.000 A 
ATOM     10  C   UNL     1       2.111   7.701  18.776  0.00  0.00    +0.000 A 
ATOM     11  C   UNL     1       2.996   8.224  17.851  0.00  0.00    +0.000 A 
ATOM     12  N   UNL     1       4.206   7.685  17.578  0.00  0.00    +0.000 NA
ENDROOT
BRANCH   9  13
ATOM     13  C   UNL     1       1.615   6.014  20.586  0.00  0.00    +0.000 C 
BRANCH  13  14
ATOM     14  N   UNL     1       1.156   4.675  20.325  0.00  0.00    +0.000 N 
ATOM     15  C   UNL     1       1.642   3.628  21.075  0.00  0.00    +0.000 C 
ATOM     16  O   UNL     1       2.366   3.782  22.054  0.00  0.00    +0.000 OA
ATOM     17  H   UNL     1       0.772   4.443  19.411  0.00  0.00    +0.000 HD
BRANCH  15  18
ATOM     18  C   UNL     1       1.186   2.258  20.619  0.00  0.00    +0.000 C 
BRANCH  18  19
ATOM     19  C   UNL     1       1.728   1.861  19.251  0.00  0.00    +0.000 C 
ATOM     20  C   UNL     1       3.245   1.846  19.135  0.00  0.00    +0.000 C 
ATOM     21  C   UNL     1       3.448   2.096  17.660  0.00  0.00    +0.000 C 
ATOM     22  C   UNL     1       2.327   3.059  17.339  0.00  0.00    +0.000 C 
ATOM     23  O   UNL     1       1.238   2.748  18.224  0.00  0.00    +0.000 OA
ENDBRANCH  18  19
ENDBRANCH  15  18
ENDBRANCH  13  14
ENDBRANCH   9  13
TORSDOF 4
ENDMDL
MODEL 4
REMARK VINA RESULT:      -7.9      2.111      3.927
REMARK  Name = 
REMARK  5 active torsions:
REMARK  status: ('A' for Active; 'I' for Inactive)
REMARK    1  A    between atoms: C_1  and  C_2
REMARK    2  A    between atoms: C_9  and  C_10
REMARK    3  A    between atoms: C_10  and  N_11
REMARK    4  A    between atoms: C_12  and  C_14
REMARK    5  A    between atoms: C_14  and  C_15
REMARK                            x       y       z     vdW  Elec       q    Type
REMARK                         _______ _______ _______ _____ _____    ______ ____
ROOT
ATOM      1  C   UNL     1      -1.163  11.386  19.844  0.00  0.00    +0.000 C 
ATOM      2  C   UNL     1      -0.595  10.737  21.058  0.00  0.00    +0.000 A 
ATOM      3  N   UNL     1      -1.020  10.965  22.287  0.00  0.00    +0.000 NA
ATOM      4  C   UNL     1      -0.350  10.083  23.083  0.00  0.00    +0.000 A 
ATOM      5  C   UNL     1       0.480   9.289  22.333  0.00  0.00    +0.000 A 
ATOM      6  N   UNL     1       0.366   9.735  21.031  0.00  0.00    +0.000 N 
ATOM      7  C   UNL     1       1.102   9.264  19.907  0.00  0.00    +0.000 A 
ATOM      8  C   UNL     1       1.631   7.972  19.923  0.00  0.00    +0.000 A 
ATOM      9  C   UNL     1       2.356   7.514  18.815  0.00  0.00    +0.000 A 
ATOM     10  C   UNL     1       2.605   8.407  17.771  0.00  0.00    +0.000 A 
ATOM     11  C   UNL     1       2.051   9.673  17.836  0.00  0.00    +0.000 A 
ATOM     12  N   UNL     1       1.283  10.106  18.861  0.00  0.00    +0.000 NA
ENDROOT
BRANCH   9  13
ATOM     13  C   UNL     1       2.828   6.088  18.739  0.00  0.00    +0.000 C 
BRANCH  13  14
ATOM     14  N   UNL     1       3.757   5.868  17.662  0.00  0.00    +0.000 N 
ATOM     15  C   UNL     1       4.239   4.601  17.422  0.00  0.00    +0.000 C 
ATOM     16  O   UNL     1       3.824   3.603  18.004  0.00  0.00    +0.000 OA
ATOM     17  H   UNL     1       4.318   6.644  17.315  0.00  0.00    +0.000 HD
BRANCH  15  18
ATOM     18  C   UNL     1       5.307   4.523  16.352  0.00  0.00    +0.000 C 
BRANCH  18  19
ATOM     19  C   UNL     1       6.609   5.212  16.741  0.00  0.00    +0.000 C 
ATOM     20  C   UNL     1       6.981   5.110  18.213  0.00  0.00    +0.000 C 
ATOM     21  C   UNL     1       7.827   6.345  18.407  0.00  0.00    +0.000 C 
ATOM     22  C   UNL     1       7.140   7.350  17.511  0.00  0.00    +0.000 C 
ATOM     23  O   UNL     1       6.568   6.617  16.416  0.00  0.00    +0.000 OA
ENDBRANCH  18  19
ENDBRANCH  15  18
ENDBRANCH  13  14
ENDBRANCH   9  13
TORSDOF 4
ENDMDL
MODEL 5
REMARK VINA RESULT:      -7.7      2.947      5.239
REMARK  Name = 
REMARK  5 active torsions:
REMARK  status: ('A' for Active; 'I' for Inactive)
REMARK    1  A    between atoms: C_1  and  C_2
REMARK    2  A    between atoms: C_9  and  C_10
REMARK    3  A    between atoms: C_10  and  N_11
REMARK    4  A    between atoms: C_12  and  C_14
REMARK    5  A    between atoms: C_14  and  C_15
REMARK                            x       y       z     vdW  Elec       q    Type
REMARK                         _______ _______ _______ _____ _____    ______ ____
ROOT
ATOM      1  C   UNL     1      -1.272  10.808  20.101  0.00  0.00    +0.000 C 
ATOM      2  C   UNL     1      -0.475  10.264  21.235  0.00  0.00    +0.000 A 
ATOM      3  N   UNL     1      -0.790  10.424  22.507  0.00  0.00    +0.000 NA
ATOM      4  C   UNL     1       0.099   9.665  23.210  0.00  0.00    +0.000 A 
ATOM      5  C   UNL     1       0.958   9.014  22.360  0.00  0.00    +0.000 A 
ATOM      6  N   UNL     1       0.627   9.432  21.086  0.00  0.00    +0.000 N 
ATOM      7  C   UNL     1       1.300   9.084  19.880  0.00  0.00    +0.000 A 
ATOM      8  C   UNL     1       2.029   7.895  19.818  0.00  0.00    +0.000 A 
ATOM      9  C   UNL     1       2.690   7.558  18.629  0.00  0.00    +0.000 A 
ATOM     10  C   UNL     1       2.673   8.476  17.577  0.00  0.00    +0.000 A 
ATOM     11  C   UNL     1       1.931   9.635  17.723  0.00  0.00    +0.000 A 
ATOM     12  N   UNL     1       1.222   9.940  18.833  0.00  0.00    +0.000 NA
ENDROOT
BRANCH   9  13
ATOM     13  C   UNL     1       3.376   6.227  18.479  0.00  0.00    +0.000 C 
BRANCH  13  14
ATOM     14  N   UNL     1       2.484   5.118  18.688  0.00  0.00    +0.000 N 
ATOM     15  C   UNL     1       2.521   4.040  17.833  0.00  0.00    +0.000 C 
ATOM     16  O   UNL     1       3.368   3.908  16.955  0.00  0.00    +0.000 OA
ATOM     17  H   UNL     1       1.622   5.256  19.212  0.00  0.00    +0.000 HD
BRANCH  15  18
ATOM     18  C   UNL     1       1.446   3.001  18.077  0.00  0.00    +0.000 C 
BRANCH  18  19
ATOM     19  C   UNL     1       1.534   2.347  19.451  0.00  0.00    +0.000 C 
ATOM     20  C   UNL     1       0.768   3.058  20.557  0.00  0.00    +0.000 C 
ATOM     21  C   UNL     1       1.539   2.643  21.787  0.00  0.00    +0.000 C 
ATOM     22  C   UNL     1       2.962   2.609  21.278  0.00  0.00    +0.000 C 
ATOM     23  O   UNL     1       2.905   2.247  19.889  0.00  0.00    +0.000 OA
ENDBRANCH  18  19
ENDBRANCH  15  18
ENDBRANCH  13  14
ENDBRANCH   9  13
TORSDOF 4
ENDMDL
MODEL 6
REMARK VINA RESULT:      -7.6      3.376      4.982
REMARK  Name = 
REMARK  5 active torsions:
REMARK  status: ('A' for Active; 'I' for Inactive)
REMARK    1  A    between atoms: C_1  and  C_2
REMARK    2  A    between atoms: C_9  and  C_10
REMARK    3  A    between atoms: C_10  and  N_11
REMARK    4  A    between atoms: C_12  and  C_14
REMARK    5  A    between atoms: C_14  and  C_15
REMARK                            x       y       z     vdW  Elec       q    Type
REMARK                         _______ _______ _______ _____ _____    ______ ____
ROOT
ATOM      1  C   UNL     1      -0.952  11.332  18.424  0.00  0.00    +0.000 C 
ATOM      2  C   UNL     1      -0.598  11.388  19.870  0.00  0.00    +0.000 A 
ATOM      3  N   UNL     1      -1.080  12.279  20.716  0.00  0.00    +0.000 NA
ATOM      4  C   UNL     1      -0.629  11.905  21.948  0.00  0.00    +0.000 A 
ATOM      5  C   UNL     1       0.122  10.760  21.861  0.00  0.00    +0.000 A 
ATOM      6  N   UNL     1       0.187  10.445  20.518  0.00  0.00    +0.000 N 
ATOM      7  C   UNL     1       0.928   9.377  19.935  0.00  0.00    +0.000 A 
ATOM      8  C   UNL     1       1.238   8.254  20.704  0.00  0.00    +0.000 A 
ATOM      9  C   UNL     1       1.968   7.207  20.124  0.00  0.00    +0.000 A 
ATOM     10  C   UNL     1       2.443   7.372  18.822  0.00  0.00    +0.000 A 
ATOM     11  C   UNL     1       2.097   8.519  18.131  0.00  0.00    +0.000 A 
ATOM     12  N   UNL     1       1.327   9.504  18.646  0.00  0.00    +0.000 NA
ENDROOT
BRANCH   9  13
ATOM     13  C   UNL     1       2.209   5.927  20.877  0.00  0.00    +0.000 C 
BRANCH  13  14
ATOM     14  N   UNL     1       1.533   4.802  20.287  0.00  0.00    +0.000 N 
ATOM     15  C   UNL     1       1.586   3.572  20.903  0.00  0.00    +0.000 C 
ATOM     16  O   UNL     1       2.082   3.397  22.012  0.00  0.00    +0.000 OA
ATOM     17  H   UNL     1       1.326   4.805  19.290  0.00  0.00    +0.000 HD
BRANCH  15  18
ATOM     18  C   UNL     1       0.951   2.444  20.119  0.00  0.00    +0.000 C 
BRANCH  18  19
ATOM     19  C   UNL     1       1.673   2.128  18.815  0.00  0.00    +0.000 C 
ATOM     20  C   UNL     1       3.177   1.934  18.938  0.00  0.00    +0.000 C 
ATOM     21  C   UNL     1       3.655   2.310  17.557  0.00  0.00    +0.000 C 
ATOM     22  C   UNL     1       2.715   3.435  17.185  0.00  0.00    +0.000 C 
ATOM     23  O   UNL     1       1.464   3.172  17.842  0.00  0.00    +0.000 OA
ENDBRANCH  18  19
ENDBRANCH  15  18
ENDBRANCH  13  14
ENDBRANCH   9  13
TORSDOF 4
ENDMDL
MODEL 7
REMARK VINA RESULT:      -7.6      3.388      7.004
REMARK  Name = 
REMARK  5 active torsions:
REMARK  status: ('A' for Active; 'I' for Inactive)
REMARK    1  A    between atoms: C_1  and  C_2
REMARK    2  A    between atoms: C_9  and  C_10
REMARK    3  A    between atoms: C_10  and  N_11
REMARK    4  A    between atoms: C_12  and  C_14
REMARK    5  A    between atoms: C_14  and  C_15
REMARK                            x       y       z     vdW  Elec       q    Type
REMARK                         _______ _______ _______ _____ _____    ______ ____
ROOT
ATOM      1  C   UNL     1       5.387   4.173  15.576  0.00  0.00    +0.000 C 
ATOM      2  C   UNL     1       6.158   4.502  16.806  0.00  0.00    +0.000 A 
ATOM      3  N   UNL     1       7.471   4.637  16.844  0.00  0.00    +0.000 NA
ATOM      4  C   UNL     1       7.765   5.073  18.103  0.00  0.00    +0.000 A 
ATOM      5  C   UNL     1       6.619   5.228  18.842  0.00  0.00    +0.000 A 
ATOM      6  N   UNL     1       5.581   4.816  18.030  0.00  0.00    +0.000 N 
ATOM      7  C   UNL     1       4.207   4.723  18.395  0.00  0.00    +0.000 A 
ATOM      8  C   UNL     1       3.716   5.518  19.432  0.00  0.00    +0.000 A 
ATOM      9  C   UNL     1       2.363   5.421  19.787  0.00  0.00    +0.000 A 
ATOM     10  C   UNL     1       1.578   4.459  19.151  0.00  0.00    +0.000 A 
ATOM     11  C   UNL     1       2.145   3.706  18.138  0.00  0.00    +0.000 A 
ATOM     12  N   UNL     1       3.426   3.840  17.727  0.00  0.00    +0.000 NA
ENDROOT
BRANCH   9  13
ATOM     13  C   UNL     1       1.767   6.352  20.807  0.00  0.00    +0.000 C 
BRANCH  13  14
ATOM     14  N   UNL     1       1.816   7.730  20.396  0.00  0.00    +0.000 N 
ATOM     15  C   UNL     1       0.801   8.588  20.755  0.00  0.00    +0.000 C 
ATOM     16  O   UNL     1      -0.104   8.274  21.523  0.00  0.00    +0.000 OA
ATOM     17  H   UNL     1       2.373   7.994  19.585  0.00  0.00    +0.000 HD
BRANCH  15  18
ATOM     18  C   UNL     1       0.900   9.973  20.151  0.00  0.00    +0.000 C 
BRANCH  18  19
ATOM     19  C   UNL     1      -0.441  10.535  19.696  0.00  0.00    +0.000 C 
ATOM     20  C   UNL     1      -0.799  10.261  18.243  0.00  0.00    +0.000 C 
ATOM     21  C   UNL     1      -1.719  11.414  17.925  0.00  0.00    +0.000 C 
ATOM     22  C   UNL     1      -1.101  12.547  18.712  0.00  0.00    +0.000 C 
ATOM     23  O   UNL     1      -0.489  11.966  19.875  0.00  0.00    +0.000 OA
ENDBRANCH  18  19
ENDBRANCH  15  18
ENDBRANCH  13  14
ENDBRANCH   9  13
TORSDOF 4
ENDMDL
MODEL 8
REMARK VINA RESULT:      -7.6      2.999      4.639
REMARK  Name = 
REMARK  5 active torsions:
REMARK  status: ('A' for Active; 'I' for Inactive)
REMARK    1  A    between atoms: C_1  and  C_2
REMARK    2  A    between atoms: C_9  and  C_10
REMARK    3  A    between atoms: C_10  and  N_11
REMARK    4  A    between atoms: C_12  and  C_14
REMARK    5  A    between atoms: C_14  and  C_15
REMARK                            x       y       z     vdW  Elec       q    Type
REMARK                         _______ _______ _______ _____ _____    ______ ____
ROOT
ATOM      1  C   UNL     1       2.553   3.587  21.471  0.00  0.00    +0.000 C 
ATOM      2  C   UNL     1       2.050   3.128  20.147  0.00  0.00    +0.000 A 
ATOM      3  N   UNL     1       0.978   2.374  19.982  0.00  0.00    +0.000 NA
ATOM      4  C   UNL     1       0.780   2.298  18.635  0.00  0.00    +0.000 A 
ATOM      5  C   UNL     1       1.728   3.029  17.964  0.00  0.00    +0.000 A 
ATOM      6  N   UNL     1       2.581   3.529  18.928  0.00  0.00    +0.000 N 
ATOM      7  C   UNL     1       3.766   4.285  18.700  0.00  0.00    +0.000 A 
ATOM      8  C   UNL     1       3.896   5.021  17.521  0.00  0.00    +0.000 A 
ATOM      9  C   UNL     1       5.065   5.762  17.301  0.00  0.00    +0.000 A 
ATOM     10  C   UNL     1       6.101   5.659  18.232  0.00  0.00    +0.000 A 
ATOM     11  C   UNL     1       5.893   4.902  19.372  0.00  0.00    +0.000 A 
ATOM     12  N   UNL     1       4.742   4.244  19.639  0.00  0.00    +0.000 NA
ENDROOT
BRANCH   9  13
ATOM     13  C   UNL     1       5.189   6.669  16.108  0.00  0.00    +0.000 C 
BRANCH  13  14
ATOM     14  N   UNL     1       5.528   5.958  14.904  0.00  0.00    +0.000 N 
ATOM     15  C   UNL     1       6.811   5.491  14.723  0.00  0.00    +0.000 C 
ATOM     16  O   UNL     1       7.672   5.539  15.596  0.00  0.00    +0.000 OA
ATOM     17  H   UNL     1       4.969   6.093  14.064  0.00  0.00    +0.000 HD
BRANCH  15  18
ATOM     18  C   UNL     1       7.076   4.879  13.364  0.00  0.00    +0.000 C 
BRANCH  18  19
ATOM     19  C   UNL     1       6.260   3.620  13.095  0.00  0.00    +0.000 C 
ATOM     20  C   UNL     1       6.720   2.793  11.904  0.00  0.00    +0.000 C 
ATOM     21  C   UNL     1       5.445   2.095  11.497  0.00  0.00    +0.000 C 
ATOM     22  C   UNL     1       4.399   3.152  11.766  0.00  0.00    +0.000 C 
ATOM     23  O   UNL     1       4.872   3.942  12.870  0.00  0.00    +0.000 OA
ENDBRANCH  18  19
ENDBRANCH  15  18
ENDBRANCH  13  14
ENDBRANCH   9  13
TORSDOF 4
ENDMDL
MODEL 9
REMARK VINA RESULT:      -7.6      3.157      5.445
REMARK  Name = 
REMARK  5 active torsions:
REMARK  status: ('A' for Active; 'I' for Inactive)
REMARK    1  A    between atoms: C_1  and  C_2
REMARK    2  A    between atoms: C_9  and  C_10
REMARK    3  A    between atoms: C_10  and  N_11
REMARK    4  A    between atoms: C_12  and  C_14
REMARK    5  A    between atoms: C_14  and  C_15
REMARK                            x       y       z     vdW  Elec       q    Type
REMARK                         _______ _______ _______ _____ _____    ______ ____
ROOT
ATOM      1  C   UNL     1       1.125   4.027  18.022  0.00  0.00    +0.000 C 
ATOM      2  C   UNL     1       2.237   3.098  18.369  0.00  0.00    +0.000 A 
ATOM      3  N   UNL     1       2.063   1.890  18.872  0.00  0.00    +0.000 NA
ATOM      4  C   UNL     1       3.301   1.321  18.911  0.00  0.00    +0.000 A 
ATOM      5  C   UNL     1       4.245   2.179  18.406  0.00  0.00    +0.000 A 
ATOM      6  N   UNL     1       3.576   3.347  18.098  0.00  0.00    +0.000 N 
ATOM      7  C   UNL     1       4.158   4.555  17.618  0.00  0.00    +0.000 A 
ATOM      8  C   UNL     1       5.374   4.508  16.934  0.00  0.00    +0.000 A 
ATOM      9  C   UNL     1       5.943   5.700  16.465  0.00  0.00    +0.000 A 
ATOM     10  C   UNL     1       5.316   6.905  16.786  0.00  0.00    +0.000 A 
ATOM     11  C   UNL     1       4.116   6.864  17.474  0.00  0.00    +0.000 A 
ATOM     12  N   UNL     1       3.512   5.720  17.865  0.00  0.00    +0.000 NA
ENDROOT
BRANCH   9  13
ATOM     13  C   UNL     1       7.182   5.678  15.612  0.00  0.00    +0.000 C 
BRANCH  13  14
ATOM     14  N   UNL     1       6.976   5.018  14.351  0.00  0.00    +0.000 N 
ATOM     15  C   UNL     1       7.809   5.292  13.290  0.00  0.00    +0.000 C 
ATOM     16  O   UNL     1       8.814   5.989  13.389  0.00  0.00    +0.000 OA
ATOM     17  H   UNL     1       6.058   4.639  14.126  0.00  0.00    +0.000 HD
BRANCH  15  18
ATOM     18  C   UNL     1       7.408   4.636  11.985  0.00  0.00    +0.000 C 
BRANCH  18  19
ATOM     19  C   UNL     1       6.745   3.277  12.166  0.00  0.00    +0.000 C 
ATOM     20  C   UNL     1       7.170   2.210  11.168  0.00  0.00    +0.000 C 
ATOM     21  C   UNL     1       5.962   1.305  11.144  0.00  0.00    +0.000 C 
ATOM     22  C   UNL     1       4.821   2.287  11.290  0.00  0.00    +0.000 C 
ATOM     23  O   UNL     1       5.309   3.386  12.075  0.00  0.00    +0.000 OA
ENDBRANCH  18  19
ENDBRANCH  15  18
ENDBRANCH  13  14
ENDBRANCH   9  13
TORSDOF 4
ENDMDL
