MODEL 1
REMARK VINA RESULT:      -7.2      0.000      0.000
REMARK  Name = 
REMARK  7 active torsions:
REMARK  status: ('A' for Active; 'I' for Inactive)
REMARK    1  A    between atoms: C_1  and  C_2
REMARK    2  A    between atoms: C_2  and  N_3
REMARK    3  A    between atoms: C_5  and  C_6
REMARK    4  A    between atoms: C_8  and  C_9
REMARK    5  A    between atoms: C_12  and  C_13
REMARK    6  A    between atoms: C_14  and  O_15
REMARK    7  A    between atoms: O_15  and  C_16
REMARK                            x       y       z     vdW  Elec       q    Type
REMARK                         _______ _______ _______ _____ _____    ______ ____
ROOT
ATOM      1  C   UNL     1       1.660   7.518  20.466  0.00  0.00    +0.000 A 
ATOM      2  N   UNL     1       2.450   7.548  19.410  0.00  0.00    +0.000 NA
ATOM      3  C   UNL     1       2.766   6.213  19.221  0.00  0.00    +0.000 A 
ATOM      4  N   UNL     1       2.201   5.394  20.122  0.00  0.00    +0.000 NA
ATOM      5  O   UNL     1       1.478   6.246  20.940  0.00  0.00    +0.000 OA
ENDROOT
BRANCH   3   6
ATOM      6  C   UNL     1       3.594   5.729  18.117  0.00  0.00    +0.000 A 
ATOM      7  C   UNL     1       3.358   4.492  17.523  0.00  0.00    +0.000 A 
ATOM      8  C   UNL     1       4.214   4.020  16.521  0.00  0.00    +0.000 A 
ATOM      9  C   UNL     1       5.335   4.759  16.081  0.00  0.00    +0.000 A 
ATOM     10  C   UNL     1       6.214   4.098  15.057  0.00  0.00    +0.000 C 
ATOM     11  C   UNL     1       5.554   6.025  16.644  0.00  0.00    +0.000 A 
ATOM     12  C   UNL     1       4.677   6.488  17.645  0.00  0.00    +0.000 A 
BRANCH  11  13
ATOM     13  O   UNL     1       6.528   6.948  16.390  0.00  0.00    +0.000 OA
ATOM     14  C   UNL     1       7.397   7.411  17.403  0.00  0.00    +0.000 C 
ENDBRANCH  11  13
ENDBRANCH   3   6
BRANCH   1  17
ATOM     15  N   UNL     1      -0.157  10.481  21.552  0.00  0.00    +0.000 N 
ATOM     16  C   UNL     1       0.137   9.596  20.553  0.00  0.00    +0.000 A 
ATOM     17  C   UNL     1       1.017   8.691  21.106  0.00  0.00    +0.000 A 
ATOM     18  C   UNL     1       1.183   9.113  22.439  0.00  0.00    +0.000 A 
ATOM     19  N   UNL     1       0.470  10.209  22.714  0.00  0.00    +0.000 NA
BRANCH  15  21
ATOM     20  C   UNL     1      -0.904  12.558  22.661  0.00  0.00    +0.000 C 
ATOM     21  C   UNL     1      -1.067  11.611  21.485  0.00  0.00    +0.000 C 
ENDBRANCH  15  21
ENDBRANCH   1  17
TORSDOF 4
ENDMDL
MODEL 2
REMARK VINA RESULT:      -7.1      1.503      1.844
REMARK  Name = 
REMARK  7 active torsions:
REMARK  status: ('A' for Active; 'I' for Inactive)
REMARK    1  A    between atoms: C_1  and  C_2
REMARK    2  A    between atoms: C_2  and  N_3
REMARK    3  A    between atoms: C_5  and  C_6
REMARK    4  A    between atoms: C_8  and  C_9
REMARK    5  A    between atoms: C_12  and  C_13
REMARK    6  A    between atoms: C_14  and  O_15
REMARK    7  A    between atoms: O_15  and  C_16
REMARK                            x       y       z     vdW  Elec       q    Type
REMARK                         _______ _______ _______ _____ _____    ______ ____
ROOT
ATOM      1  C   UNL     1       1.106   9.210  19.998  0.00  0.00    +0.000 A 
ATOM      2  N   UNL     1       1.734   8.055  19.888  0.00  0.00    +0.000 NA
ATOM      3  C   UNL     1       2.148   8.051  18.566  0.00  0.00    +0.000 A 
ATOM      4  N   UNL     1       1.790   9.152  17.887  0.00  0.00    +0.000 NA
ATOM      5  O   UNL     1       1.105   9.911  18.821  0.00  0.00    +0.000 OA
ENDROOT
BRANCH   3   6
ATOM      6  C   UNL     1       2.944   6.977  17.974  0.00  0.00    +0.000 A 
ATOM      7  C   UNL     1       2.499   5.658  17.978  0.00  0.00    +0.000 A 
ATOM      8  C   UNL     1       3.316   4.639  17.474  0.00  0.00    +0.000 A 
ATOM      9  C   UNL     1       4.604   4.898  16.954  0.00  0.00    +0.000 A 
ATOM     10  C   UNL     1       5.405   3.702  16.521  0.00  0.00    +0.000 C 
ATOM     11  C   UNL     1       5.042   6.229  16.906  0.00  0.00    +0.000 A 
ATOM     12  C   UNL     1       4.202   7.244  17.409  0.00  0.00    +0.000 A 
BRANCH  11  13
ATOM     13  O   UNL     1       6.210   6.759  16.436  0.00  0.00    +0.000 OA
ATOM     14  C   UNL     1       7.217   7.230  17.308  0.00  0.00    +0.000 C 
ENDBRANCH  11  13
ENDBRANCH   3   6
BRANCH   1  17
ATOM     15  N   UNL     1      -0.760  10.831  22.670  0.00  0.00    +0.000 N 
ATOM     16  C   UNL     1      -0.507  10.713  21.333  0.00  0.00    +0.000 A 
ATOM     17  C   UNL     1       0.461   9.738  21.224  0.00  0.00    +0.000 A 
ATOM     18  C   UNL     1       0.716   9.329  22.547  0.00  0.00    +0.000 A 
ATOM     19  N   UNL     1      -0.026   9.998  23.434  0.00  0.00    +0.000 NA
BRANCH  15  21
ATOM     20  C   UNL     1      -2.618  12.418  22.302  0.00  0.00    +0.000 C 
ATOM     21  C   UNL     1      -1.729  11.706  23.307  0.00  0.00    +0.000 C 
ENDBRANCH  15  21
ENDBRANCH   1  17
TORSDOF 4
ENDMDL
MODEL 3
REMARK VINA RESULT:      -7.1      1.911      2.748
REMARK  Name = 
REMARK  7 active torsions:
REMARK  status: ('A' for Active; 'I' for Inactive)
REMARK    1  A    between atoms: C_1  and  C_2
REMARK    2  A    between atoms: C_2  and  N_3
REMARK    3  A    between atoms: C_5  and  C_6
REMARK    4  A    between atoms: C_8  and  C_9
REMARK    5  A    between atoms: C_12  and  C_13
REMARK    6  A    between atoms: C_14  and  O_15
REMARK    7  A    between atoms: O_15  and  C_16
REMARK                            x       y       z     vdW  Elec       q    Type
REMARK                         _______ _______ _______ _____ _____    ______ ____
ROOT
ATOM      1  C   UNL     1       1.172   9.076  19.986  0.00  0.00    +0.000 A 
ATOM      2  N   UNL     1       1.916   7.988  19.926  0.00  0.00    +0.000 NA
ATOM      3  C   UNL     1       2.266   7.924  18.588  0.00  0.00    +0.000 A 
ATOM      4  N   UNL     1       1.759   8.925  17.851  0.00  0.00    +0.000 NA
ATOM      5  O   UNL     1       1.040   9.679  18.763  0.00  0.00    +0.000 OA
ENDROOT
BRANCH   3   6
ATOM      6  C   UNL     1       3.146   6.896  18.033  0.00  0.00    +0.000 A 
ATOM      7  C   UNL     1       4.147   7.216  17.119  0.00  0.00    +0.000 A 
ATOM      8  C   UNL     1       4.924   6.202  16.546  0.00  0.00    +0.000 A 
ATOM      9  C   UNL     1       4.727   4.838  16.858  0.00  0.00    +0.000 A 
ATOM     10  C   UNL     1       5.576   3.850  16.110  0.00  0.00    +0.000 C 
ATOM     11  C   UNL     1       3.751   4.512  17.811  0.00  0.00    +0.000 A 
ATOM     12  C   UNL     1       2.985   5.546  18.385  0.00  0.00    +0.000 A 
BRANCH  11  13
ATOM     13  O   UNL     1       3.376   3.298  18.313  0.00  0.00    +0.000 OA
ATOM     14  C   UNL     1       2.388   2.506  17.686  0.00  0.00    +0.000 C 
ENDBRANCH  11  13
ENDBRANCH   3   6
BRANCH   1  17
ATOM     15  N   UNL     1      -0.676  10.759  22.633  0.00  0.00    +0.000 N 
ATOM     16  C   UNL     1      -0.418  10.623  21.298  0.00  0.00    +0.000 A 
ATOM     17  C   UNL     1       0.531   9.628  21.204  0.00  0.00    +0.000 A 
ATOM     18  C   UNL     1       0.771   9.227  22.531  0.00  0.00    +0.000 A 
ATOM     19  N   UNL     1       0.038   9.919  23.408  0.00  0.00    +0.000 NA
BRANCH  15  21
ATOM     20  C   UNL     1      -2.537  12.337  22.243  0.00  0.00    +0.000 C 
ATOM     21  C   UNL     1      -1.630  11.659  23.256  0.00  0.00    +0.000 C 
ENDBRANCH  15  21
ENDBRANCH   1  17
TORSDOF 4
ENDMDL
MODEL 4
REMARK VINA RESULT:      -6.9      2.942      8.284
REMARK  Name = 
REMARK  7 active torsions:
REMARK  status: ('A' for Active; 'I' for Inactive)
REMARK    1  A    between atoms: C_1  and  C_2
REMARK    2  A    between atoms: C_2  and  N_3
REMARK    3  A    between atoms: C_5  and  C_6
REMARK    4  A    between atoms: C_8  and  C_9
REMARK    5  A    between atoms: C_12  and  C_13
REMARK    6  A    between atoms: C_14  and  O_15
REMARK    7  A    between atoms: O_15  and  C_16
REMARK                            x       y       z     vdW  Elec       q    Type
REMARK                         _______ _______ _______ _____ _____    ______ ____
ROOT
ATOM      1  C   UNL     1       4.757   5.734  17.067  0.00  0.00    +0.000 A 
ATOM      2  N   UNL     1       3.924   6.755  16.985  0.00  0.00    +0.000 NA
ATOM      3  C   UNL     1       3.339   6.779  18.240  0.00  0.00    +0.000 A 
ATOM      4  N   UNL     1       3.785   5.815  19.061  0.00  0.00    +0.000 NA
ATOM      5  O   UNL     1       4.711   5.128  18.295  0.00  0.00    +0.000 OA
ENDROOT
BRANCH   3   6
ATOM      6  C   UNL     1       2.364   7.787  18.656  0.00  0.00    +0.000 A 
ATOM      7  C   UNL     1       1.956   8.799  17.791  0.00  0.00    +0.000 A 
ATOM      8  C   UNL     1       1.081   9.796  18.240  0.00  0.00    +0.000 A 
ATOM      9  C   UNL     1       0.588   9.820  19.565  0.00  0.00    +0.000 A 
ATOM     10  C   UNL     1      -0.279  10.991  19.935  0.00  0.00    +0.000 C 
ATOM     11  C   UNL     1       0.960   8.780  20.428  0.00  0.00    +0.000 A 
ATOM     12  C   UNL     1       1.834   7.780  19.956  0.00  0.00    +0.000 A 
BRANCH  11  13
ATOM     13  O   UNL     1       0.614   8.545  21.728  0.00  0.00    +0.000 OA
ATOM     14  C   UNL     1       1.104   9.345  22.785  0.00  0.00    +0.000 C 
ENDBRANCH  11  13
ENDBRANCH   3   6
BRANCH   1  17
ATOM     15  N   UNL     1       6.511   4.425  14.158  0.00  0.00    +0.000 N 
ATOM     16  C   UNL     1       5.324   4.689  14.781  0.00  0.00    +0.000 A 
ATOM     17  C   UNL     1       5.658   5.257  15.991  0.00  0.00    +0.000 A 
ATOM     18  C   UNL     1       7.065   5.296  15.998  0.00  0.00    +0.000 A 
ATOM     19  N   UNL     1       7.590   4.786  14.881  0.00  0.00    +0.000 NA
BRANCH  15  21
ATOM     20  C   UNL     1       5.414   3.305  12.249  0.00  0.00    +0.000 C 
ATOM     21  C   UNL     1       6.702   3.854  12.837  0.00  0.00    +0.000 C 
ENDBRANCH  15  21
ENDBRANCH   1  17
TORSDOF 4
ENDMDL
MODEL 5
REMARK VINA RESULT:      -6.8      2.889      8.124
REMARK  Name = 
REMARK  7 active torsions:
REMARK  status: ('A' for Active; 'I' for Inactive)
REMARK    1  A    between atoms: C_1  and  C_2
REMARK    2  A    between atoms: C_2  and  N_3
REMARK    3  A    between atoms: C_5  and  C_6
REMARK    4  A    between atoms: C_8  and  C_9
REMARK    5  A    between atoms: C_12  and  C_13
REMARK    6  A    between atoms: C_14  and  O_15
REMARK    7  A    between atoms: O_15  and  C_16
REMARK                            x       y       z     vdW  Elec       q    Type
REMARK                         _______ _______ _______ _____ _____    ______ ____
ROOT
ATOM      1  C   UNL     1       4.206   5.672  17.312  0.00  0.00    +0.000 A 
ATOM      2  N   UNL     1       3.783   6.870  17.671  0.00  0.00    +0.000 NA
ATOM      3  C   UNL     1       2.819   6.586  18.624  0.00  0.00    +0.000 A 
ATOM      4  N   UNL     1       2.650   5.272  18.843  0.00  0.00    +0.000 NA
ATOM      5  O   UNL     1       3.555   4.672  17.984  0.00  0.00    +0.000 OA
ENDROOT
BRANCH   3   6
ATOM      6  C   UNL     1       2.087   7.614  19.362  0.00  0.00    +0.000 A 
ATOM      7  C   UNL     1       1.849   7.494  20.729  0.00  0.00    +0.000 A 
ATOM      8  C   UNL     1       1.079   8.455  21.394  0.00  0.00    +0.000 A 
ATOM      9  C   UNL     1       0.518   9.565  20.722  0.00  0.00    +0.000 A 
ATOM     10  C   UNL     1      -0.352  10.475  21.542  0.00  0.00    +0.000 C 
ATOM     11  C   UNL     1       0.790   9.716  19.355  0.00  0.00    +0.000 A 
ATOM     12  C   UNL     1       1.575   8.743  18.703  0.00  0.00    +0.000 A 
BRANCH  11  13
ATOM     13  O   UNL     1       0.406  10.692  18.480  0.00  0.00    +0.000 OA
ATOM     14  C   UNL     1      -0.923  10.788  18.010  0.00  0.00    +0.000 C 
ENDBRANCH  11  13
ENDBRANCH   3   6
BRANCH   1  17
ATOM     15  N   UNL     1       6.408   4.671  14.590  0.00  0.00    +0.000 N 
ATOM     16  C   UNL     1       5.168   4.624  15.163  0.00  0.00    +0.000 A 
ATOM     17  C   UNL     1       5.259   5.385  16.308  0.00  0.00    +0.000 A 
ATOM     18  C   UNL     1       6.587   5.850  16.331  0.00  0.00    +0.000 A 
ATOM     19  N   UNL     1       7.293   5.413  15.285  0.00  0.00    +0.000 NA
BRANCH  15  21
ATOM     20  C   UNL     1       5.650   3.534  12.532  0.00  0.00    +0.000 C 
ATOM     21  C   UNL     1       6.824   4.054  13.344  0.00  0.00    +0.000 C 
ENDBRANCH  15  21
ENDBRANCH   1  17
TORSDOF 4
ENDMDL
MODEL 6
REMARK VINA RESULT:      -6.8      2.345      3.493
REMARK  Name = 
REMARK  7 active torsions:
REMARK  status: ('A' for Active; 'I' for Inactive)
REMARK    1  A    between atoms: C_1  and  C_2
REMARK    2  A    between atoms: C_2  and  N_3
REMARK    3  A    between atoms: C_5  and  C_6
REMARK    4  A    between atoms: C_8  and  C_9
REMARK    5  A    between atoms: C_12  and  C_13
REMARK    6  A    between atoms: C_14  and  O_15
REMARK    7  A    between atoms: O_15  and  C_16
REMARK                            x       y       z     vdW  Elec       q    Type
REMARK                         _______ _______ _______ _____ _____    ______ ____
ROOT
ATOM      1  C   UNL     1       1.151   8.757  20.505  0.00  0.00    +0.000 A 
ATOM      2  N   UNL     1       1.353   7.460  20.634  0.00  0.00    +0.000 NA
ATOM      3  C   UNL     1       1.991   7.126  19.451  0.00  0.00    +0.000 A 
ATOM      4  N   UNL     1       2.173   8.168  18.625  0.00  0.00    +0.000 NA
ATOM      5  O   UNL     1       1.621   9.237  19.311  0.00  0.00    +0.000 OA
ENDROOT
BRANCH   3   6
ATOM      6  C   UNL     1       2.471   5.778  19.147  0.00  0.00    +0.000 A 
ATOM      7  C   UNL     1       3.428   5.556  18.160  0.00  0.00    +0.000 A 
ATOM      8  C   UNL     1       3.812   4.249  17.837  0.00  0.00    +0.000 A 
ATOM      9  C   UNL     1       3.252   3.121  18.480  0.00  0.00    +0.000 A 
ATOM     10  C   UNL     1       3.696   1.776  17.978  0.00  0.00    +0.000 C 
ATOM     11  C   UNL     1       2.321   3.339  19.504  0.00  0.00    +0.000 A 
ATOM     12  C   UNL     1       1.953   4.662  19.824  0.00  0.00    +0.000 A 
BRANCH  11  13
ATOM     13  O   UNL     1       1.655   2.448  20.298  0.00  0.00    +0.000 OA
ATOM     14  C   UNL     1       1.514   2.652  21.689  0.00  0.00    +0.000 C 
ENDBRANCH  11  13
ENDBRANCH   3   6
BRANCH   1  17
ATOM     15  N   UNL     1      -0.525  11.275  22.533  0.00  0.00    +0.000 N 
ATOM     16  C   UNL     1      -0.063  10.885  21.307  0.00  0.00    +0.000 A 
ATOM     17  C   UNL     1       0.498   9.641  21.501  0.00  0.00    +0.000 A 
ATOM     18  C   UNL     1       0.317   9.369  22.870  0.00  0.00    +0.000 A 
ATOM     19  N   UNL     1      -0.305  10.367  23.505  0.00  0.00    +0.000 NA
BRANCH  15  21
ATOM     20  C   UNL     1      -2.694  12.454  22.457  0.00  0.00    +0.000 C 
ATOM     21  C   UNL     1      -1.230  12.502  22.856  0.00  0.00    +0.000 C 
ENDBRANCH  15  21
ENDBRANCH   1  17
TORSDOF 4
ENDMDL
MODEL 7
REMARK VINA RESULT:      -6.7      2.102      2.615
REMARK  Name = 
REMARK  7 active torsions:
REMARK  status: ('A' for Active; 'I' for Inactive)
REMARK    1  A    between atoms: C_1  and  C_2
REMARK    2  A    between atoms: C_2  and  N_3
REMARK    3  A    between atoms: C_5  and  C_6
REMARK    4  A    between atoms: C_8  and  C_9
REMARK    5  A    between atoms: C_12  and  C_13
REMARK    6  A    between atoms: C_14  and  O_15
REMARK    7  A    between atoms: O_15  and  C_16
REMARK                            x       y       z     vdW  Elec       q    Type
REMARK                         _______ _______ _______ _____ _____    ______ ____
ROOT
ATOM      1  C   UNL     1       1.132   8.703  20.657  0.00  0.00    +0.000 A 
ATOM      2  N   UNL     1       1.442   7.451  20.935  0.00  0.00    +0.000 NA
ATOM      3  C   UNL     1       2.106   7.035  19.792  0.00  0.00    +0.000 A 
ATOM      4  N   UNL     1       2.198   7.985  18.848  0.00  0.00    +0.000 NA
ATOM      5  O   UNL     1       1.559   9.077  19.411  0.00  0.00    +0.000 OA
ENDROOT
BRANCH   3   6
ATOM      6  C   UNL     1       2.696   5.706  19.642  0.00  0.00    +0.000 A 
ATOM      7  C   UNL     1       1.918   4.554  19.727  0.00  0.00    +0.000 A 
ATOM      8  C   UNL     1       2.522   3.293  19.657  0.00  0.00    +0.000 A 
ATOM      9  C   UNL     1       3.919   3.137  19.505  0.00  0.00    +0.000 A 
ATOM     10  C   UNL     1       4.441   1.728  19.525  0.00  0.00    +0.000 C 
ATOM     11  C   UNL     1       4.703   4.291  19.374  0.00  0.00    +0.000 A 
ATOM     12  C   UNL     1       4.077   5.553  19.438  0.00  0.00    +0.000 A 
BRANCH  11  13
ATOM     13  O   UNL     1       6.049   4.429  19.192  0.00  0.00    +0.000 OA
ATOM     14  C   UNL     1       6.600   5.548  18.526  0.00  0.00    +0.000 C 
ENDBRANCH  11  13
ENDBRANCH   3   6
BRANCH   1  17
ATOM     15  N   UNL     1      -0.716  11.311  22.402  0.00  0.00    +0.000 N 
ATOM     16  C   UNL     1      -0.194  10.838  21.231  0.00  0.00    +0.000 A 
ATOM     17  C   UNL     1       0.408   9.640  21.551  0.00  0.00    +0.000 A 
ATOM     18  C   UNL     1       0.188   9.479  22.931  0.00  0.00    +0.000 A 
ATOM     19  N   UNL     1      -0.495  10.500  23.456  0.00  0.00    +0.000 NA
BRANCH  15  21
ATOM     20  C   UNL     1      -2.834  12.273  23.235  0.00  0.00    +0.000 C 
ATOM     21  C   UNL     1      -1.480  12.530  22.594  0.00  0.00    +0.000 C 
ENDBRANCH  15  21
ENDBRANCH   1  17
TORSDOF 4
ENDMDL
MODEL 8
REMARK VINA RESULT:      -6.7      1.411      2.236
REMARK  Name = 
REMARK  7 active torsions:
REMARK  status: ('A' for Active; 'I' for Inactive)
REMARK    1  A    between atoms: C_1  and  C_2
REMARK    2  A    between atoms: C_2  and  N_3
REMARK    3  A    between atoms: C_5  and  C_6
REMARK    4  A    between atoms: C_8  and  C_9
REMARK    5  A    between atoms: C_12  and  C_13
REMARK    6  A    between atoms: C_14  and  O_15
REMARK    7  A    between atoms: O_15  and  C_16
REMARK                            x       y       z     vdW  Elec       q    Type
REMARK                         _______ _______ _______ _____ _____    ______ ____
ROOT
ATOM      1  C   UNL     1       1.397   7.690  20.663  0.00  0.00    +0.000 A 
ATOM      2  N   UNL     1       2.220   7.667  19.632  0.00  0.00    +0.000 NA
ATOM      3  C   UNL     1       2.539   6.324  19.519  0.00  0.00    +0.000 A 
ATOM      4  N   UNL     1       1.943   5.551  20.440  0.00  0.00    +0.000 NA
ATOM      5  O   UNL     1       1.197   6.442  21.192  0.00  0.00    +0.000 OA
ENDROOT
BRANCH   3   6
ATOM      6  C   UNL     1       3.401   5.786  18.467  0.00  0.00    +0.000 A 
ATOM      7  C   UNL     1       4.086   6.625  17.592  0.00  0.00    +0.000 A 
ATOM      8  C   UNL     1       4.842   6.082  16.546  0.00  0.00    +0.000 A 
ATOM      9  C   UNL     1       4.937   4.688  16.334  0.00  0.00    +0.000 A 
ATOM     10  C   UNL     1       5.716   4.246  15.127  0.00  0.00    +0.000 C 
ATOM     11  C   UNL     1       4.287   3.836  17.237  0.00  0.00    +0.000 A 
ATOM     12  C   UNL     1       3.537   4.400  18.290  0.00  0.00    +0.000 A 
BRANCH  11  13
ATOM     13  O   UNL     1       4.236   2.472  17.285  0.00  0.00    +0.000 OA
ATOM     14  C   UNL     1       3.377   1.790  18.177  0.00  0.00    +0.000 C 
ENDBRANCH  11  13
ENDBRANCH   3   6
BRANCH   1  17
ATOM     15  N   UNL     1      -0.437  10.710  21.541  0.00  0.00    +0.000 N 
ATOM     16  C   UNL     1      -0.103   9.785  20.593  0.00  0.00    +0.000 A 
ATOM     17  C   UNL     1       0.736   8.893  21.224  0.00  0.00    +0.000 A 
ATOM     18  C   UNL     1       0.840   9.364  22.547  0.00  0.00    +0.000 A 
ATOM     19  N   UNL     1       0.127  10.477  22.743  0.00  0.00    +0.000 NA
BRANCH  15  21
ATOM     20  C   UNL     1      -0.868  12.801  20.298  0.00  0.00    +0.000 C 
ATOM     21  C   UNL     1      -1.328  11.846  21.385  0.00  0.00    +0.000 C 
ENDBRANCH  15  21
ENDBRANCH   1  17
TORSDOF 4
ENDMDL
MODEL 9
REMARK VINA RESULT:      -6.7      2.481      8.161
REMARK  Name = 
REMARK  7 active torsions:
REMARK  status: ('A' for Active; 'I' for Inactive)
REMARK    1  A    between atoms: C_1  and  C_2
REMARK    2  A    between atoms: C_2  and  N_3
REMARK    3  A    between atoms: C_5  and  C_6
REMARK    4  A    between atoms: C_8  and  C_9
REMARK    5  A    between atoms: C_12  and  C_13
REMARK    6  A    between atoms: C_14  and  O_15
REMARK    7  A    between atoms: O_15  and  C_16
REMARK                            x       y       z     vdW  Elec       q    Type
REMARK                         _______ _______ _______ _____ _____    ______ ____
ROOT
ATOM      1  C   UNL     1       3.657   6.648  18.093  0.00  0.00    +0.000 A 
ATOM      2  N   UNL     1       3.008   7.786  17.929  0.00  0.00    +0.000 NA
ATOM      3  C   UNL     1       2.184   7.837  19.041  0.00  0.00    +0.000 A 
ATOM      4  N   UNL     1       2.313   6.777  19.854  0.00  0.00    +0.000 NA
ATOM      5  O   UNL     1       3.274   5.996  19.235  0.00  0.00    +0.000 OA
ENDROOT
BRANCH   3   6
ATOM      6  C   UNL     1       1.294   8.959  19.333  0.00  0.00    +0.000 A 
ATOM      7  C   UNL     1       0.675   9.678  18.313  0.00  0.00    +0.000 A 
ATOM      8  C   UNL     1      -0.110  10.796  18.619  0.00  0.00    +0.000 A 
ATOM      9  C   UNL     1      -0.302  11.238  19.948  0.00  0.00    +0.000 A 
ATOM     10  C   UNL     1      -1.102  12.497  20.126  0.00  0.00    +0.000 C 
ATOM     11  C   UNL     1       0.282  10.493  20.983  0.00  0.00    +0.000 A 
ATOM     12  C   UNL     1       1.061   9.365  20.657  0.00  0.00    +0.000 A 
BRANCH  11  13
ATOM     13  O   UNL     1       0.236  10.674  22.336  0.00  0.00    +0.000 OA
ATOM     14  C   UNL     1      -0.869  10.249  23.107  0.00  0.00    +0.000 C 
ENDBRANCH  11  13
ENDBRANCH   3   6
BRANCH   1  17
ATOM     15  N   UNL     1       5.877   4.832  15.850  0.00  0.00    +0.000 N 
ATOM     16  C   UNL     1       4.728   4.849  16.591  0.00  0.00    +0.000 A 
ATOM     17  C   UNL     1       4.687   6.093  17.182  0.00  0.00    +0.000 A 
ATOM     18  C   UNL     1       5.847   6.749  16.731  0.00  0.00    +0.000 A 
ATOM     19  N   UNL     1       6.579   5.980  15.920  0.00  0.00    +0.000 NA
BRANCH  15  21
ATOM     20  C   UNL     1       5.953   3.919  13.556  0.00  0.00    +0.000 C 
ATOM     21  C   UNL     1       6.364   3.754  15.009  0.00  0.00    +0.000 C 
ENDBRANCH  15  21
ENDBRANCH   1  17
TORSDOF 4
ENDMDL
