MODEL 1
REMARK VINA RESULT:      -9.1      0.000      0.000
REMARK  Name = 
REMARK  6 active torsions:
REMARK  status: ('A' for Active; 'I' for Inactive)
REMARK    1  A    between atoms: C_2  and  C_3
REMARK    2  A    between atoms: C_3  and  C_4
REMARK    3  A    between atoms: C_4  and  C_5
REMARK    4  A    between atoms: N_11  and  C_12
REMARK    5  A    between atoms: C_14  and  C_15
REMARK    6  A    between atoms: C_15  and  C_16
REMARK                            x       y       z     vdW  Elec       q    Type
REMARK                         _______ _______ _______ _____ _____    ______ ____
ROOT
ATOM      1  C   UNL     1       2.394   6.952  19.140  0.00  0.00    +0.000 A 
ATOM      2  C   UNL     1       2.155   8.176  18.506  0.00  0.00    +0.000 A 
ATOM      3  C   UNL     1       1.426   9.195  19.151  0.00  0.00    +0.000 A 
ATOM      4  C   UNL     1       0.899   8.961  20.428  0.00  0.00    +0.000 A 
ATOM      5  C   UNL     1       1.139   7.750  21.078  0.00  0.00    +0.000 A 
ATOM      6  C   UNL     1       1.886   6.762  20.430  0.00  0.00    +0.000 A 
ATOM      7  F   UNL     1       2.124   5.612  21.080  0.00  0.00    +0.000 F 
ENDROOT
BRANCH   1  10
ATOM      8  O   UNL     1       1.383   4.632  17.572  0.00  0.00    +0.000 OA
ATOM      9  C   UNL     1       2.563   4.781  17.871  0.00  0.00    +0.000 C 
ATOM     10  N   UNL     1       3.098   5.878  18.539  0.00  0.00    +0.000 N 
ATOM     11  H   UNL     1       4.109   5.961  18.576  0.00  0.00    +0.000 HD
BRANCH   9  12
ATOM     12  C   UNL     1       3.632   3.736  17.559  0.00  0.00    +0.000 C 
BRANCH  12  13
ATOM     13  C   UNL     1       5.066   4.042  18.021  0.00  0.00    +0.000 C 
BRANCH  13  14
ATOM     14  C   UNL     1       6.094   4.445  16.936  0.00  0.00    +0.000 C 
ATOM     15  C   UNL     1       5.751   5.723  16.157  0.00  0.00    +0.000 C 
ATOM     16  C   UNL     1       5.955   7.014  16.949  0.00  0.00    +0.000 C 
ATOM     17  C   UNL     1       7.330   7.102  17.607  0.00  0.00    +0.000 C 
ATOM     18  C   UNL     1       7.693   5.840  18.379  0.00  0.00    +0.000 C 
ATOM     19  C   UNL     1       7.512   4.583  17.529  0.00  0.00    +0.000 C 
ENDBRANCH  13  14
ENDBRANCH  12  13
ENDBRANCH   9  12
ENDBRANCH   1  10
BRANCH   3  20
ATOM     20  C   UNL     1       1.228  10.536  18.475  0.00  0.00    +0.000 C 
BRANCH  20  21
ATOM     21  C   UNL     1       0.044  11.332  19.021  0.00  0.00    +0.000 A 
ATOM     22  N   UNL     1       0.317  12.253  19.901  0.00  0.00    +0.000 NA
ATOM     23  N   UNL     1      -0.723  12.980  20.388  0.00  0.00    +0.000 N 
ATOM     24  C   UNL     1      -2.041  12.825  20.057  0.00  0.00    +0.000 A 
ATOM     25  O   UNL     1      -2.931  13.484  20.585  0.00  0.00    +0.000 OA
ATOM     26  C   UNL     1      -2.331  11.818  19.005  0.00  0.00    +0.000 A 
ATOM     27  C   UNL     1      -1.336  11.072  18.495  0.00  0.00    +0.000 A 
ATOM     28  C   UNL     1      -1.580  10.038  17.427  0.00  0.00    +0.000 C 
ATOM     29  C   UNL     1      -3.063   9.717  17.208  0.00  0.00    +0.000 C 
ATOM     30  C   UNL     1      -3.909  10.983  17.216  0.00  0.00    +0.000 C 
ATOM     31  C   UNL     1      -3.761  11.723  18.547  0.00  0.00    +0.000 C 
ATOM     32  H   UNL     1      -0.503  13.671  21.097  0.00  0.00    +0.000 HD
ENDBRANCH  20  21
ENDBRANCH   3  20
TORSDOF 6
ENDMDL
MODEL 2
REMARK VINA RESULT:      -8.7      1.684      2.987
REMARK  Name = 
REMARK  6 active torsions:
REMARK  status: ('A' for Active; 'I' for Inactive)
REMARK    1  A    between atoms: C_2  and  C_3
REMARK    2  A    between atoms: C_3  and  C_4
REMARK    3  A    between atoms: C_4  and  C_5
REMARK    4  A    between atoms: N_11  and  C_12
REMARK    5  A    between atoms: C_14  and  C_15
REMARK    6  A    between atoms: C_15  and  C_16
REMARK                            x       y       z     vdW  Elec       q    Type
REMARK                         _______ _______ _______ _____ _____    ______ ____
ROOT
ATOM      1  C   UNL     1       2.071   7.031  19.154  0.00  0.00    +0.000 A 
ATOM      2  C   UNL     1       1.852   8.243  18.491  0.00  0.00    +0.000 A 
ATOM      3  C   UNL     1       1.377   9.373  19.187  0.00  0.00    +0.000 A 
ATOM      4  C   UNL     1       1.083   9.266  20.553  0.00  0.00    +0.000 A 
ATOM      5  C   UNL     1       1.307   8.067  21.230  0.00  0.00    +0.000 A 
ATOM      6  C   UNL     1       1.802   6.966  20.525  0.00  0.00    +0.000 A 
ATOM      7  F   UNL     1       2.031   5.827  21.198  0.00  0.00    +0.000 F 
ENDROOT
BRANCH   1  10
ATOM      8  O   UNL     1       4.818   6.214  18.350  0.00  0.00    +0.000 OA
ATOM      9  C   UNL     1       3.817   5.553  18.097  0.00  0.00    +0.000 C 
ATOM     10  N   UNL     1       2.523   5.852  18.509  0.00  0.00    +0.000 N 
ATOM     11  H   UNL     1       1.810   5.141  18.380  0.00  0.00    +0.000 HD
BRANCH   9  12
ATOM     12  C   UNL     1       3.859   4.284  17.248  0.00  0.00    +0.000 C 
BRANCH  12  13
ATOM     13  C   UNL     1       2.549   3.489  17.113  0.00  0.00    +0.000 C 
BRANCH  13  14
ATOM     14  C   UNL     1       2.441   2.156  17.892  0.00  0.00    +0.000 C 
ATOM     15  C   UNL     1       3.590   1.881  18.873  0.00  0.00    +0.000 C 
ATOM     16  C   UNL     1       3.546   2.727  20.145  0.00  0.00    +0.000 C 
ATOM     17  C   UNL     1       2.186   2.692  20.839  0.00  0.00    +0.000 C 
ATOM     18  C   UNL     1       1.030   2.955  19.882  0.00  0.00    +0.000 C 
ATOM     19  C   UNL     1       1.099   2.055  18.648  0.00  0.00    +0.000 C 
ENDBRANCH  13  14
ENDBRANCH  12  13
ENDBRANCH   9  12
ENDBRANCH   1  10
BRANCH   3  20
ATOM     20  C   UNL     1       1.203  10.695  18.468  0.00  0.00    +0.000 C 
BRANCH  20  21
ATOM     21  C   UNL     1       0.035  11.531  18.990  0.00  0.00    +0.000 A 
ATOM     22  N   UNL     1       0.336  12.537  19.759  0.00  0.00    +0.000 NA
ATOM     23  N   UNL     1      -0.690  13.300  20.221  0.00  0.00    +0.000 N 
ATOM     24  C   UNL     1      -2.020  13.099  19.972  0.00  0.00    +0.000 A 
ATOM     25  O   UNL     1      -2.893  13.799  20.475  0.00  0.00    +0.000 OA
ATOM     26  C   UNL     1      -2.345  11.989  19.041  0.00  0.00    +0.000 A 
ATOM     27  C   UNL     1      -1.364  11.206  18.560  0.00  0.00    +0.000 A 
ATOM     28  C   UNL     1      -1.644  10.068  17.613  0.00  0.00    +0.000 C 
ATOM     29  C   UNL     1      -3.131   9.713  17.499  0.00  0.00    +0.000 C 
ATOM     30  C   UNL     1      -3.993  10.965  17.422  0.00  0.00    +0.000 C 
ATOM     31  C   UNL     1      -3.793  11.835  18.665  0.00  0.00    +0.000 C 
ATOM     32  H   UNL     1      -0.446  14.060  20.847  0.00  0.00    +0.000 HD
ENDBRANCH  20  21
ENDBRANCH   3  20
TORSDOF 6
ENDMDL
MODEL 3
REMARK VINA RESULT:      -8.6      1.352      2.120
REMARK  Name = 
REMARK  6 active torsions:
REMARK  status: ('A' for Active; 'I' for Inactive)
REMARK    1  A    between atoms: C_2  and  C_3
REMARK    2  A    between atoms: C_3  and  C_4
REMARK    3  A    between atoms: C_4  and  C_5
REMARK    4  A    between atoms: N_11  and  C_12
REMARK    5  A    between atoms: C_14  and  C_15
REMARK    6  A    between atoms: C_15  and  C_16
REMARK                            x       y       z     vdW  Elec       q    Type
REMARK                         _______ _______ _______ _____ _____    ______ ____
ROOT
ATOM      1  C   UNL     1       2.403   6.783  19.096  0.00  0.00    +0.000 A 
ATOM      2  C   UNL     1       2.100   8.021  18.520  0.00  0.00    +0.000 A 
ATOM      3  C   UNL     1       1.398   9.005  19.244  0.00  0.00    +0.000 A 
ATOM      4  C   UNL     1       0.963   8.722  20.546  0.00  0.00    +0.000 A 
ATOM      5  C   UNL     1       1.267   7.496  21.138  0.00  0.00    +0.000 A 
ATOM      6  C   UNL     1       1.986   6.543  20.410  0.00  0.00    +0.000 A 
ATOM      7  F   UNL     1       2.288   5.379  21.006  0.00  0.00    +0.000 F 
ENDROOT
BRANCH   1  10
ATOM      8  O   UNL     1       1.331   4.513  17.496  0.00  0.00    +0.000 OA
ATOM      9  C   UNL     1       2.524   4.666  17.736  0.00  0.00    +0.000 C 
ATOM     10  N   UNL     1       3.083   5.742  18.415  0.00  0.00    +0.000 N 
ATOM     11  H   UNL     1       4.094   5.837  18.399  0.00  0.00    +0.000 HD
BRANCH   9  12
ATOM     12  C   UNL     1       3.584   3.647  17.323  0.00  0.00    +0.000 C 
BRANCH  12  13
ATOM     13  C   UNL     1       5.028   3.916  17.781  0.00  0.00    +0.000 C 
BRANCH  13  14
ATOM     14  C   UNL     1       6.040   4.383  16.706  0.00  0.00    +0.000 C 
ATOM     15  C   UNL     1       5.667   5.687  15.985  0.00  0.00    +0.000 C 
ATOM     16  C   UNL     1       5.852   6.947  16.829  0.00  0.00    +0.000 C 
ATOM     17  C   UNL     1       7.231   7.033  17.482  0.00  0.00    +0.000 C 
ATOM     18  C   UNL     1       7.623   5.747  18.197  0.00  0.00    +0.000 C 
ATOM     19  C   UNL     1       7.460   4.524  17.297  0.00  0.00    +0.000 C 
ENDBRANCH  13  14
ENDBRANCH  12  13
ENDBRANCH   9  12
ENDBRANCH   1  10
BRANCH   3  20
ATOM     20  C   UNL     1       1.131  10.362  18.626  0.00  0.00    +0.000 C 
BRANCH  20  21
ATOM     21  C   UNL     1      -0.353  10.704  18.508  0.00  0.00    +0.000 A 
ATOM     22  N   UNL     1      -1.024  10.080  17.582  0.00  0.00    +0.000 NA
ATOM     23  N   UNL     1      -2.349  10.362  17.472  0.00  0.00    +0.000 N 
ATOM     24  C   UNL     1      -3.048  11.261  18.230  0.00  0.00    +0.000 A 
ATOM     25  O   UNL     1      -4.234  11.503  18.030  0.00  0.00    +0.000 OA
ATOM     26  C   UNL     1      -2.288  11.917  19.323  0.00  0.00    +0.000 A 
ATOM     27  C   UNL     1      -0.974  11.671  19.471  0.00  0.00    +0.000 A 
ATOM     28  C   UNL     1      -0.160  12.312  20.564  0.00  0.00    +0.000 C 
ATOM     29  C   UNL     1      -0.881  13.464  21.274  0.00  0.00    +0.000 C 
ATOM     30  C   UNL     1      -2.339  13.120  21.545  0.00  0.00    +0.000 C 
ATOM     31  C   UNL     1      -3.074  12.815  20.238  0.00  0.00    +0.000 C 
ATOM     32  H   UNL     1      -2.853   9.895  16.726  0.00  0.00    +0.000 HD
ENDBRANCH  20  21
ENDBRANCH   3  20
TORSDOF 6
ENDMDL
MODEL 4
REMARK VINA RESULT:      -8.4      1.065      1.168
REMARK  Name = 
REMARK  6 active torsions:
REMARK  status: ('A' for Active; 'I' for Inactive)
REMARK    1  A    between atoms: C_2  and  C_3
REMARK    2  A    between atoms: C_3  and  C_4
REMARK    3  A    between atoms: C_4  and  C_5
REMARK    4  A    between atoms: N_11  and  C_12
REMARK    5  A    between atoms: C_14  and  C_15
REMARK    6  A    between atoms: C_15  and  C_16
REMARK                            x       y       z     vdW  Elec       q    Type
REMARK                         _______ _______ _______ _____ _____    ______ ____
ROOT
ATOM      1  C   UNL     1       2.436   6.614  19.169  0.00  0.00    +0.000 A 
ATOM      2  C   UNL     1       2.269   7.809  18.461  0.00  0.00    +0.000 A 
ATOM      3  C   UNL     1       1.610   8.909  19.045  0.00  0.00    +0.000 A 
ATOM      4  C   UNL     1       1.081   8.788  20.337  0.00  0.00    +0.000 A 
ATOM      5  C   UNL     1       1.249   7.607  21.058  0.00  0.00    +0.000 A 
ATOM      6  C   UNL     1       1.927   6.536  20.470  0.00  0.00    +0.000 A 
ATOM      7  F   UNL     1       2.098   5.415  21.189  0.00  0.00    +0.000 F 
ENDROOT
BRANCH   1  10
ATOM      8  O   UNL     1       5.032   5.340  19.874  0.00  0.00    +0.000 OA
ATOM      9  C   UNL     1       4.317   4.950  18.958  0.00  0.00    +0.000 C 
ATOM     10  N   UNL     1       3.066   5.463  18.632  0.00  0.00    +0.000 N 
ATOM     11  H   UNL     1       2.503   4.945  17.964  0.00  0.00    +0.000 HD
BRANCH   9  12
ATOM     12  C   UNL     1       4.731   3.828  18.009  0.00  0.00    +0.000 C 
BRANCH  12  13
ATOM     13  C   UNL     1       4.341   3.983  16.529  0.00  0.00    +0.000 C 
BRANCH  13  14
ATOM     14  C   UNL     1       5.372   4.651  15.587  0.00  0.00    +0.000 C 
ATOM     15  C   UNL     1       5.311   6.184  15.540  0.00  0.00    +0.000 C 
ATOM     16  C   UNL     1       5.873   6.874  16.783  0.00  0.00    +0.000 C 
ATOM     17  C   UNL     1       7.263   6.372  17.168  0.00  0.00    +0.000 C 
ATOM     18  C   UNL     1       7.347   4.852  17.214  0.00  0.00    +0.000 C 
ATOM     19  C   UNL     1       6.812   4.215  15.932  0.00  0.00    +0.000 C 
ENDBRANCH  13  14
ENDBRANCH  12  13
ENDBRANCH   9  12
ENDBRANCH   1  10
BRANCH   3  20
ATOM     20  C   UNL     1       1.491  10.216  18.288  0.00  0.00    +0.000 C 
BRANCH  20  21
ATOM     21  C   UNL     1       0.429  11.159  18.851  0.00  0.00    +0.000 A 
ATOM     22  N   UNL     1       0.850  12.115  19.629  0.00  0.00    +0.000 NA
ATOM     23  N   UNL     1      -0.081  12.971  20.127  0.00  0.00    +0.000 N 
ATOM     24  C   UNL     1      -1.430  12.914  19.906  0.00  0.00    +0.000 A 
ATOM     25  O   UNL     1      -2.214  13.692  20.441  0.00  0.00    +0.000 OA
ATOM     26  C   UNL     1      -1.889  11.862  18.966  0.00  0.00    +0.000 A 
ATOM     27  C   UNL     1      -1.006  10.990  18.449  0.00  0.00    +0.000 A 
ATOM     28  C   UNL     1      -1.423   9.904  17.491  0.00  0.00    +0.000 C 
ATOM     29  C   UNL     1      -2.941   9.707  17.407  0.00  0.00    +0.000 C 
ATOM     30  C   UNL     1      -3.670  11.044  17.371  0.00  0.00    +0.000 C 
ATOM     31  C   UNL     1      -3.353  11.866  18.622  0.00  0.00    +0.000 C 
ATOM     32  H   UNL     1       0.255  13.691  20.759  0.00  0.00    +0.000 HD
ENDBRANCH  20  21
ENDBRANCH   3  20
TORSDOF 6
ENDMDL
MODEL 5
REMARK VINA RESULT:      -8.3      2.797      9.345
REMARK  Name = 
REMARK  6 active torsions:
REMARK  status: ('A' for Active; 'I' for Inactive)
REMARK    1  A    between atoms: C_2  and  C_3
REMARK    2  A    between atoms: C_3  and  C_4
REMARK    3  A    between atoms: C_4  and  C_5
REMARK    4  A    between atoms: N_11  and  C_12
REMARK    5  A    between atoms: C_14  and  C_15
REMARK    6  A    between atoms: C_15  and  C_16
REMARK                            x       y       z     vdW  Elec       q    Type
REMARK                         _______ _______ _______ _____ _____    ______ ____
ROOT
ATOM      1  C   UNL     1       1.636   8.451  20.152  0.00  0.00    +0.000 A 
ATOM      2  C   UNL     1       2.054   7.125  20.004  0.00  0.00    +0.000 A 
ATOM      3  C   UNL     1       2.433   6.622  18.743  0.00  0.00    +0.000 A 
ATOM      4  C   UNL     1       2.351   7.454  17.618  0.00  0.00    +0.000 A 
ATOM      5  C   UNL     1       1.947   8.782  17.752  0.00  0.00    +0.000 A 
ATOM      6  C   UNL     1       1.599   9.267  19.016  0.00  0.00    +0.000 A 
ATOM      7  F   UNL     1       1.234  10.554  19.128  0.00  0.00    +0.000 F 
ENDROOT
BRANCH   1  10
ATOM      8  O   UNL     1      -0.877   8.042  21.695  0.00  0.00    +0.000 OA
ATOM      9  C   UNL     1      -0.002   8.833  22.029  0.00  0.00    +0.000 C 
ATOM     10  N   UNL     1       1.219   9.012  21.386  0.00  0.00    +0.000 N 
ATOM     11  H   UNL     1       1.923   9.571  21.857  0.00  0.00    +0.000 HD
BRANCH   9  12
ATOM     12  C   UNL     1      -0.152   9.773  23.223  0.00  0.00    +0.000 C 
BRANCH  12  13
ATOM     13  C   UNL     1      -1.371  10.710  23.227  0.00  0.00    +0.000 C 
BRANCH  13  14
ATOM     14  C   UNL     1      -1.124  12.203  22.896  0.00  0.00    +0.000 C 
ATOM     15  C   UNL     1      -0.532  12.470  21.504  0.00  0.00    +0.000 C 
ATOM     16  C   UNL     1      -1.524  12.292  20.355  0.00  0.00    +0.000 C 
ATOM     17  C   UNL     1      -2.832  13.049  20.571  0.00  0.00    +0.000 C 
ATOM     18  C   UNL     1      -3.433  12.803  21.949  0.00  0.00    +0.000 C 
ATOM     19  C   UNL     1      -2.413  13.035  23.062  0.00  0.00    +0.000 C 
ENDBRANCH  13  14
ENDBRANCH  12  13
ENDBRANCH   9  12
ENDBRANCH   1  10
BRANCH   3  20
ATOM     20  C   UNL     1       2.940   5.201  18.609  0.00  0.00    +0.000 C 
BRANCH  20  21
ATOM     21  C   UNL     1       4.463   5.093  18.560  0.00  0.00    +0.000 A 
ATOM     22  N   UNL     1       5.092   5.176  19.697  0.00  0.00    +0.000 NA
ATOM     23  N   UNL     1       6.447   5.068  19.672  0.00  0.00    +0.000 N 
ATOM     24  C   UNL     1       7.222   4.900  18.558  0.00  0.00    +0.000 A 
ATOM     25  O   UNL     1       8.448   4.870  18.613  0.00  0.00    +0.000 OA
ATOM     26  C   UNL     1       6.491   4.742  17.276  0.00  0.00    +0.000 A 
ATOM     27  C   UNL     1       5.151   4.843  17.250  0.00  0.00    +0.000 A 
ATOM     28  C   UNL     1       4.363   4.690  15.975  0.00  0.00    +0.000 C 
ATOM     29  C   UNL     1       5.230   4.713  14.710  0.00  0.00    +0.000 C 
ATOM     30  C   UNL     1       6.500   3.894  14.896  0.00  0.00    +0.000 C 
ATOM     31  C   UNL     1       7.326   4.437  16.063  0.00  0.00    +0.000 C 
ATOM     32  H   UNL     1       6.927   5.167  20.560  0.00  0.00    +0.000 HD
ENDBRANCH  20  21
ENDBRANCH   3  20
TORSDOF 6
ENDMDL
MODEL 6
REMARK VINA RESULT:      -8.2      0.870      1.024
REMARK  Name = 
REMARK  6 active torsions:
REMARK  status: ('A' for Active; 'I' for Inactive)
REMARK    1  A    between atoms: C_2  and  C_3
REMARK    2  A    between atoms: C_3  and  C_4
REMARK    3  A    between atoms: C_4  and  C_5
REMARK    4  A    between atoms: N_11  and  C_12
REMARK    5  A    between atoms: C_14  and  C_15
REMARK    6  A    between atoms: C_15  and  C_16
REMARK                            x       y       z     vdW  Elec       q    Type
REMARK                         _______ _______ _______ _____ _____    ______ ____
ROOT
ATOM      1  C   UNL     1       2.152   7.530  19.505  0.00  0.00    +0.000 A 
ATOM      2  C   UNL     1       1.830   8.746  18.894  0.00  0.00    +0.000 A 
ATOM      3  C   UNL     1       0.884   9.617  19.471  0.00  0.00    +0.000 A 
ATOM      4  C   UNL     1       0.230   9.239  20.651  0.00  0.00    +0.000 A 
ATOM      5  C   UNL     1       0.549   8.034  21.277  0.00  0.00    +0.000 A 
ATOM      6  C   UNL     1       1.508   7.196  20.701  0.00  0.00    +0.000 A 
ATOM      7  F   UNL     1       1.817   6.052  21.331  0.00  0.00    +0.000 F 
ENDROOT
BRANCH   1  10
ATOM      8  O   UNL     1       1.678   5.063  17.908  0.00  0.00    +0.000 OA
ATOM      9  C   UNL     1       2.789   5.421  18.280  0.00  0.00    +0.000 C 
ATOM     10  N   UNL     1       3.075   6.598  18.965  0.00  0.00    +0.000 N 
ATOM     11  H   UNL     1       4.050   6.861  19.066  0.00  0.00    +0.000 HD
BRANCH   9  12
ATOM     12  C   UNL     1       4.046   4.584  18.052  0.00  0.00    +0.000 C 
BRANCH  12  13
ATOM     13  C   UNL     1       4.285   4.055  16.627  0.00  0.00    +0.000 C 
BRANCH  13  14
ATOM     14  C   UNL     1       5.274   4.841  15.732  0.00  0.00    +0.000 C 
ATOM     15  C   UNL     1       5.294   6.359  15.962  0.00  0.00    +0.000 C 
ATOM     16  C   UNL     1       5.988   6.789  17.254  0.00  0.00    +0.000 C 
ATOM     17  C   UNL     1       7.375   6.171  17.423  0.00  0.00    +0.000 C 
ATOM     18  C   UNL     1       7.378   4.665  17.192  0.00  0.00    +0.000 C 
ATOM     19  C   UNL     1       6.711   4.293  15.868  0.00  0.00    +0.000 C 
ENDBRANCH  13  14
ENDBRANCH  12  13
ENDBRANCH   9  12
ENDBRANCH   1  10
BRANCH   3  20
ATOM     20  C   UNL     1       0.591  10.958  18.829  0.00  0.00    +0.000 C 
BRANCH  20  21
ATOM     21  C   UNL     1      -0.791  11.514  19.168  0.00  0.00    +0.000 A 
ATOM     22  N   UNL     1      -0.860  12.328  20.182  0.00  0.00    +0.000 NA
ATOM     23  N   UNL     1      -2.080  12.843  20.488  0.00  0.00    +0.000 N 
ATOM     24  C   UNL     1      -3.256  12.570  19.844  0.00  0.00    +0.000 A 
ATOM     25  O   UNL     1      -4.329  13.031  20.219  0.00  0.00    +0.000 OA
ATOM     26  C   UNL     1      -3.153  11.694  18.650  0.00  0.00    +0.000 A 
ATOM     27  C   UNL     1      -1.968  11.159  18.309  0.00  0.00    +0.000 A 
ATOM     28  C   UNL     1      -1.813  10.263  17.107  0.00  0.00    +0.000 C 
ATOM     29  C   UNL     1      -3.146   9.792  16.515  0.00  0.00    +0.000 C 
ATOM     30  C   UNL     1      -4.159  10.928  16.463  0.00  0.00    +0.000 C 
ATOM     31  C   UNL     1      -4.418  11.485  17.864  0.00  0.00    +0.000 C 
ATOM     32  H   UNL     1      -2.127  13.449  21.300  0.00  0.00    +0.000 HD
ENDBRANCH  20  21
ENDBRANCH   3  20
TORSDOF 6
ENDMDL
MODEL 7
REMARK VINA RESULT:      -8.1      4.933      7.852
REMARK  Name = 
REMARK  6 active torsions:
REMARK  status: ('A' for Active; 'I' for Inactive)
REMARK    1  A    between atoms: C_2  and  C_3
REMARK    2  A    between atoms: C_3  and  C_4
REMARK    3  A    between atoms: C_4  and  C_5
REMARK    4  A    between atoms: N_11  and  C_12
REMARK    5  A    between atoms: C_14  and  C_15
REMARK    6  A    between atoms: C_15  and  C_16
REMARK                            x       y       z     vdW  Elec       q    Type
REMARK                         _______ _______ _______ _____ _____    ______ ____
ROOT
ATOM      1  C   UNL     1       6.783   5.811  15.934  0.00  0.00    +0.000 A 
ATOM      2  C   UNL     1       5.702   5.261  16.631  0.00  0.00    +0.000 A 
ATOM      3  C   UNL     1       5.067   4.088  16.173  0.00  0.00    +0.000 A 
ATOM      4  C   UNL     1       5.501   3.491  14.982  0.00  0.00    +0.000 A 
ATOM      5  C   UNL     1       6.585   4.022  14.283  0.00  0.00    +0.000 A 
ATOM      6  C   UNL     1       7.216   5.171  14.768  0.00  0.00    +0.000 A 
ATOM      7  F   UNL     1       8.271   5.654  14.093  0.00  0.00    +0.000 F 
ENDROOT
BRANCH   1  10
ATOM      8  O   UNL     1       7.680   6.712  18.626  0.00  0.00    +0.000 OA
ATOM      9  C   UNL     1       7.785   7.398  17.615  0.00  0.00    +0.000 C 
ATOM     10  N   UNL     1       7.449   7.000  16.326  0.00  0.00    +0.000 N 
ATOM     11  H   UNL     1       7.741   7.594  15.557  0.00  0.00    +0.000 HD
BRANCH   9  12
ATOM     12  C   UNL     1       8.297   8.837  17.645  0.00  0.00    +0.000 C 
BRANCH  12  13
ATOM     13  C   UNL     1       8.957   9.318  18.948  0.00  0.00    +0.000 C 
BRANCH  13  14
ATOM     14  C   UNL     1       8.889  10.832  19.264  0.00  0.00    +0.000 C 
ATOM     15  C   UNL     1       9.825  11.304  20.386  0.00  0.00    +0.000 C 
ATOM     16  C   UNL     1      11.299  11.367  19.989  0.00  0.00    +0.000 C 
ATOM     17  C   UNL     1      11.537  12.135  18.690  0.00  0.00    +0.000 C 
ATOM     18  C   UNL     1      10.613  11.686  17.565  0.00  0.00    +0.000 C 
ATOM     19  C   UNL     1       9.148  11.681  18.002  0.00  0.00    +0.000 C 
ENDBRANCH  13  14
ENDBRANCH  12  13
ENDBRANCH   9  12
ENDBRANCH   1  10
BRANCH   3  20
ATOM     20  C   UNL     1       3.937   3.472  16.971  0.00  0.00    +0.000 C 
BRANCH  20  21
ATOM     21  C   UNL     1       3.316   4.421  17.995  0.00  0.00    +0.000 A 
ATOM     22  N   UNL     1       3.051   5.628  17.585  0.00  0.00    +0.000 NA
ATOM     23  N   UNL     1       2.486   6.482  18.480  0.00  0.00    +0.000 N 
ATOM     24  C   UNL     1       2.185   6.200  19.785  0.00  0.00    +0.000 A 
ATOM     25  O   UNL     1       1.728   7.046  20.548  0.00  0.00    +0.000 OA
ATOM     26  C   UNL     1       2.431   4.803  20.220  0.00  0.00    +0.000 A 
ATOM     27  C   UNL     1       2.991   3.923  19.372  0.00  0.00    +0.000 A 
ATOM     28  C   UNL     1       3.261   2.494  19.767  0.00  0.00    +0.000 C 
ATOM     29  C   UNL     1       3.123   2.235  21.272  0.00  0.00    +0.000 C 
ATOM     30  C   UNL     1       1.901   2.941  21.844  0.00  0.00    +0.000 C 
ATOM     31  C   UNL     1       1.993   4.451  21.615  0.00  0.00    +0.000 C 
ATOM     32  H   UNL     1       2.314   7.429  18.159  0.00  0.00    +0.000 HD
ENDBRANCH  20  21
ENDBRANCH   3  20
TORSDOF 6
ENDMDL
MODEL 8
REMARK VINA RESULT:      -8.1      2.522      3.783
REMARK  Name = 
REMARK  6 active torsions:
REMARK  status: ('A' for Active; 'I' for Inactive)
REMARK    1  A    between atoms: C_2  and  C_3
REMARK    2  A    between atoms: C_3  and  C_4
REMARK    3  A    between atoms: C_4  and  C_5
REMARK    4  A    between atoms: N_11  and  C_12
REMARK    5  A    between atoms: C_14  and  C_15
REMARK    6  A    between atoms: C_15  and  C_16
REMARK                            x       y       z     vdW  Elec       q    Type
REMARK                         _______ _______ _______ _____ _____    ______ ____
ROOT
ATOM      1  C   UNL     1       0.960   9.407  20.360  0.00  0.00    +0.000 A 
ATOM      2  C   UNL     1       0.292  10.521  19.842  0.00  0.00    +0.000 A 
ATOM      3  C   UNL     1      -0.496  11.343  20.672  0.00  0.00    +0.000 A 
ATOM      4  C   UNL     1      -0.643  11.014  22.026  0.00  0.00    +0.000 A 
ATOM      5  C   UNL     1       0.027   9.913  22.560  0.00  0.00    +0.000 A 
ATOM      6  C   UNL     1       0.823   9.125  21.723  0.00  0.00    +0.000 A 
ATOM      7  F   UNL     1       1.477   8.083  22.260  0.00  0.00    +0.000 F 
ENDROOT
BRANCH   1  10
ATOM      8  O   UNL     1       2.003   9.715  17.588  0.00  0.00    +0.000 OA
ATOM      9  C   UNL     1       2.151   8.697  18.255  0.00  0.00    +0.000 C 
ATOM     10  N   UNL     1       1.748   8.527  19.575  0.00  0.00    +0.000 N 
ATOM     11  H   UNL     1       2.078   7.703  20.068  0.00  0.00    +0.000 HD
BRANCH   9  12
ATOM     12  C   UNL     1       2.801   7.432  17.697  0.00  0.00    +0.000 C 
BRANCH  12  13
ATOM     13  C   UNL     1       2.665   6.149  18.533  0.00  0.00    +0.000 C 
BRANCH  13  14
ATOM     14  C   UNL     1       2.758   4.797  17.784  0.00  0.00    +0.000 C 
ATOM     15  C   UNL     1       3.908   3.884  18.233  0.00  0.00    +0.000 C 
ATOM     16  C   UNL     1       3.685   3.214  19.588  0.00  0.00    +0.000 C 
ATOM     17  C   UNL     1       2.331   2.516  19.696  0.00  0.00    +0.000 C 
ATOM     18  C   UNL     1       1.176   3.404  19.248  0.00  0.00    +0.000 C 
ATOM     19  C   UNL     1       1.431   4.014  17.871  0.00  0.00    +0.000 C 
ENDBRANCH  13  14
ENDBRANCH  12  13
ENDBRANCH   9  12
ENDBRANCH   1  10
BRANCH   3  20
ATOM     20  C   UNL     1      -1.164  12.580  20.108  0.00  0.00    +0.000 C 
BRANCH  20  21
ATOM     21  C   UNL     1      -2.643  12.385  19.777  0.00  0.00    +0.000 A 
ATOM     22  N   UNL     1      -3.500  12.825  20.653  0.00  0.00    +0.000 NA
ATOM     23  N   UNL     1      -4.821  12.671  20.368  0.00  0.00    +0.000 N 
ATOM     24  C   UNL     1      -5.340  12.075  19.251  0.00  0.00    +0.000 A 
ATOM     25  O   UNL     1      -6.548  11.922  19.093  0.00  0.00    +0.000 OA
ATOM     26  C   UNL     1      -4.355  11.638  18.231  0.00  0.00    +0.000 A 
ATOM     27  C   UNL     1      -3.038  11.767  18.469  0.00  0.00    +0.000 A 
ATOM     28  C   UNL     1      -2.000  11.337  17.466  0.00  0.00    +0.000 C 
ATOM     29  C   UNL     1      -2.564  10.489  16.320  0.00  0.00    +0.000 C 
ATOM     30  C   UNL     1      -3.888  11.049  15.818  0.00  0.00    +0.000 C 
ATOM     31  C   UNL     1      -4.919  11.092  16.948  0.00  0.00    +0.000 C 
ATOM     32  H   UNL     1      -5.478  12.987  21.072  0.00  0.00    +0.000 HD
ENDBRANCH  20  21
ENDBRANCH   3  20
TORSDOF 6
ENDMDL
MODEL 9
REMARK VINA RESULT:      -8.0      2.832      4.460
REMARK  Name = 
REMARK  6 active torsions:
REMARK  status: ('A' for Active; 'I' for Inactive)
REMARK    1  A    between atoms: C_2  and  C_3
REMARK    2  A    between atoms: C_3  and  C_4
REMARK    3  A    between atoms: C_4  and  C_5
REMARK    4  A    between atoms: N_11  and  C_12
REMARK    5  A    between atoms: C_14  and  C_15
REMARK    6  A    between atoms: C_15  and  C_16
REMARK                            x       y       z     vdW  Elec       q    Type
REMARK                         _______ _______ _______ _____ _____    ______ ____
ROOT
ATOM      1  C   UNL     1       0.836   9.414  20.084  0.00  0.00    +0.000 A 
ATOM      2  C   UNL     1       0.076  10.345  19.368  0.00  0.00    +0.000 A 
ATOM      3  C   UNL     1      -0.784  11.242  20.032  0.00  0.00    +0.000 A 
ATOM      4  C   UNL     1      -0.909  11.171  21.426  0.00  0.00    +0.000 A 
ATOM      5  C   UNL     1      -0.150  10.256  22.155  0.00  0.00    +0.000 A 
ATOM      6  C   UNL     1       0.717   9.392  21.478  0.00  0.00    +0.000 A 
ATOM      7  F   UNL     1       1.455   8.534  22.199  0.00  0.00    +0.000 F 
ENDROOT
BRANCH   1  10
ATOM      8  O   UNL     1       2.179   9.469  17.428  0.00  0.00    +0.000 OA
ATOM      9  C   UNL     1       2.248   8.518  18.199  0.00  0.00    +0.000 C 
ATOM     10  N   UNL     1       1.701   8.469  19.477  0.00  0.00    +0.000 N 
ATOM     11  H   UNL     1       1.971   7.696  20.077  0.00  0.00    +0.000 HD
BRANCH   9  12
ATOM     12  C   UNL     1       2.949   7.211  17.836  0.00  0.00    +0.000 C 
BRANCH  12  13
ATOM     13  C   UNL     1       2.296   5.908  18.325  0.00  0.00    +0.000 C 
BRANCH  13  14
ATOM     14  C   UNL     1       2.962   5.181  19.519  0.00  0.00    +0.000 C 
ATOM     15  C   UNL     1       2.043   4.936  20.725  0.00  0.00    +0.000 C 
ATOM     16  C   UNL     1       1.014   3.826  20.515  0.00  0.00    +0.000 C 
ATOM     17  C   UNL     1       1.630   2.528  19.997  0.00  0.00    +0.000 C 
ATOM     18  C   UNL     1       2.551   2.751  18.804  0.00  0.00    +0.000 C 
ATOM     19  C   UNL     1       3.587   3.839  19.082  0.00  0.00    +0.000 C 
ENDBRANCH  13  14
ENDBRANCH  12  13
ENDBRANCH   9  12
ENDBRANCH   1  10
BRANCH   3  20
ATOM     20  C   UNL     1      -1.554  12.283  19.247  0.00  0.00    +0.000 C 
BRANCH  20  21
ATOM     21  C   UNL     1      -3.014  11.910  18.994  0.00  0.00    +0.000 A 
ATOM     22  N   UNL     1      -3.242  11.075  18.021  0.00  0.00    +0.000 NA
ATOM     23  N   UNL     1      -4.535  10.722  17.791  0.00  0.00    +0.000 N 
ATOM     24  C   UNL     1      -5.629  11.177  18.473  0.00  0.00    +0.000 A 
ATOM     25  O   UNL     1      -6.773  10.854  18.167  0.00  0.00    +0.000 OA
ATOM     26  C   UNL     1      -5.350  12.076  19.621  0.00  0.00    +0.000 A 
ATOM     27  C   UNL     1      -4.088  12.456  19.886  0.00  0.00    +0.000 A 
ATOM     28  C   UNL     1      -3.754  13.366  21.039  0.00  0.00    +0.000 C 
ATOM     29  C   UNL     1      -4.981  14.038  21.668  0.00  0.00    +0.000 C 
ATOM     30  C   UNL     1      -6.134  13.055  21.815  0.00  0.00    +0.000 C 
ATOM     31  C   UNL     1      -6.535  12.486  20.452  0.00  0.00    +0.000 C 
ATOM     32  H   UNL     1      -4.703  10.097  17.009  0.00  0.00    +0.000 HD
ENDBRANCH  20  21
ENDBRANCH   3  20
TORSDOF 6
ENDMDL
