MODEL 1
REMARK VINA RESULT:      -7.1      0.000      0.000
REMARK  Name = 
REMARK  10 active torsions:
REMARK  status: ('A' for Active; 'I' for Inactive)
REMARK    1  A    between atoms: N_1  and  C_2
REMARK    2  A    between atoms: C_2  and  C_3
REMARK    3  A    between atoms: C_3  and  C_4
REMARK    4  A    between atoms: C_4  and  C_5
REMARK    5  A    between atoms: C_5  and  C_6
REMARK    6  A    between atoms: C_6  and  C_7
REMARK    7  A    between atoms: C_7  and  C_8
REMARK    8  A    between atoms: C_8  and  C_9
REMARK    9  A    between atoms: C_9  and  N_10
REMARK   10  A    between atoms: N_10  and  C_11
REMARK                            x       y       z     vdW  Elec       q    Type
REMARK                         _______ _______ _______ _____ _____    ______ ____
ROOT
ATOM      1  C   UNL     1       3.470   5.648  18.743  0.00  0.00    +0.000 A 
ATOM      2  C   UNL     1       4.248   5.483  17.571  0.00  0.00    +0.000 A 
ATOM      3  C   UNL     1       4.395   4.186  17.065  0.00  0.00    +0.000 A 
ATOM      4  N   UNL     1       3.755   3.110  17.572  0.00  0.00    +0.000 NA
ATOM      5  C   UNL     1       2.938   3.273  18.610  0.00  0.00    +0.000 A 
ATOM      6  C   UNL     1       2.260   2.150  19.072  0.00  0.00    +0.000 A 
ATOM      7  C   UNL     1       1.369   2.210  20.143  0.00  0.00    +0.000 A 
ATOM      8  C   UNL     1       1.151   3.423  20.777  0.00  0.00    +0.000 A 
ATOM      9  C   UNL     1       1.834   4.562  20.335  0.00  0.00    +0.000 A 
ATOM     10  C   UNL     1       2.738   4.519  19.239  0.00  0.00    +0.000 A 
ATOM     11  C   UNL     1       5.239   3.882  15.852  0.00  0.00    +0.000 C 
ATOM     12  C   UNL     1       6.170   5.011  15.439  0.00  0.00    +0.000 C 
ATOM     13  C   UNL     1       5.408   6.323  15.445  0.00  0.00    +0.000 C 
ATOM     14  C   UNL     1       4.937   6.627  16.861  0.00  0.00    +0.000 C 
ENDROOT
BRANCH   1  15
ATOM     15  N   UNL     1       3.291   6.885  19.412  0.00  0.00    +0.000 N 
ATOM     16  H   UNL     1       3.485   6.778  20.407  0.00  0.00    +0.000 HD
BRANCH  15  17
ATOM     17  C   UNL     1       2.118   7.713  19.148  0.00  0.00    +0.000 C 
BRANCH  17  18
ATOM     18  C   UNL     1       2.293   8.569  17.897  0.00  0.00    +0.000 C 
BRANCH  18  19
ATOM     19  C   UNL     1       1.714   9.980  18.023  0.00  0.00    +0.000 C 
BRANCH  19  20
ATOM     20  C   UNL     1       0.222   9.989  18.359  0.00  0.00    +0.000 C 
BRANCH  20  21
ATOM     21  C   UNL     1      -0.162  11.206  19.192  0.00  0.00    +0.000 C 
BRANCH  21  22
ATOM     22  C   UNL     1       0.341  11.044  20.625  0.00  0.00    +0.000 C 
BRANCH  22  23
ATOM     23  C   UNL     1      -0.161   9.742  21.243  0.00  0.00    +0.000 C 
BRANCH  23  24
ATOM     24  C   UNL     1       0.768   9.276  22.360  0.00  0.00    +0.000 C 
BRANCH  24  25
ATOM     25  N   UNL     1       0.249   9.698  23.654  0.00  0.00    +0.000 NA
ATOM     26  H   UNL     1      -0.435  10.440  23.517  0.00  0.00    +0.000 HD
ATOM     27  H   UNL     1       1.002  10.105  24.206  0.00  0.00    +0.000 HD
ENDBRANCH  24  25
ENDBRANCH  23  24
ENDBRANCH  22  23
ENDBRANCH  21  22
ENDBRANCH  20  21
ENDBRANCH  19  20
ENDBRANCH  18  19
ENDBRANCH  17  18
ENDBRANCH  15  17
ENDBRANCH   1  15
TORSDOF 10
ENDMDL
MODEL 2
REMARK VINA RESULT:      -7.1      2.354      2.901
REMARK  Name = 
REMARK  10 active torsions:
REMARK  status: ('A' for Active; 'I' for Inactive)
REMARK    1  A    between atoms: N_1  and  C_2
REMARK    2  A    between atoms: C_2  and  C_3
REMARK    3  A    between atoms: C_3  and  C_4
REMARK    4  A    between atoms: C_4  and  C_5
REMARK    5  A    between atoms: C_5  and  C_6
REMARK    6  A    between atoms: C_6  and  C_7
REMARK    7  A    between atoms: C_7  and  C_8
REMARK    8  A    between atoms: C_8  and  C_9
REMARK    9  A    between atoms: C_9  and  N_10
REMARK   10  A    between atoms: N_10  and  C_11
REMARK                            x       y       z     vdW  Elec       q    Type
REMARK                         _______ _______ _______ _____ _____    ______ ____
ROOT
ATOM      1  C   UNL     1       3.382   5.736  18.358  0.00  0.00    +0.000 A 
ATOM      2  C   UNL     1       4.238   5.442  17.268  0.00  0.00    +0.000 A 
ATOM      3  C   UNL     1       4.470   4.094  16.969  0.00  0.00    +0.000 A 
ATOM      4  N   UNL     1       3.847   3.072  17.596  0.00  0.00    +0.000 NA
ATOM      5  C   UNL     1       2.961   3.344  18.551  0.00  0.00    +0.000 A 
ATOM      6  C   UNL     1       2.304   2.266  19.137  0.00  0.00    +0.000 A 
ATOM      7  C   UNL     1       1.346   2.437  20.136  0.00  0.00    +0.000 A 
ATOM      8  C   UNL     1       1.037   3.716  20.569  0.00  0.00    +0.000 A 
ATOM      9  C   UNL     1       1.697   4.812  20.001  0.00  0.00    +0.000 A 
ATOM     10  C   UNL     1       2.669   4.656  18.975  0.00  0.00    +0.000 A 
ATOM     11  C   UNL     1       5.400   3.659  15.864  0.00  0.00    +0.000 C 
ATOM     12  C   UNL     1       6.307   4.762  15.339  0.00  0.00    +0.000 C 
ATOM     13  C   UNL     1       5.491   6.020  15.108  0.00  0.00    +0.000 C 
ATOM     14  C   UNL     1       4.920   6.504  16.435  0.00  0.00    +0.000 C 
ENDROOT
BRANCH   1  15
ATOM     15  N   UNL     1       3.108   7.047  18.824  0.00  0.00    +0.000 N 
ATOM     16  H   UNL     1       2.889   7.028  19.819  0.00  0.00    +0.000 HD
BRANCH  15  17
ATOM     17  C   UNL     1       2.237   7.942  18.068  0.00  0.00    +0.000 C 
BRANCH  17  18
ATOM     18  C   UNL     1       1.501   8.923  18.976  0.00  0.00    +0.000 C 
BRANCH  18  19
ATOM     19  C   UNL     1       0.654   9.950  18.221  0.00  0.00    +0.000 C 
BRANCH  19  20
ATOM     20  C   UNL     1      -0.552  10.441  19.025  0.00  0.00    +0.000 C 
BRANCH  20  21
ATOM     21  C   UNL     1      -1.662  10.958  18.118  0.00  0.00    +0.000 C 
BRANCH  21  22
ATOM     22  C   UNL     1      -1.978   9.930  17.033  0.00  0.00    +0.000 C 
BRANCH  22  23
ATOM     23  C   UNL     1      -3.339  10.198  16.398  0.00  0.00    +0.000 C 
BRANCH  23  24
ATOM     24  C   UNL     1      -3.984  11.444  17.000  0.00  0.00    +0.000 C 
BRANCH  24  25
ATOM     25  N   UNL     1      -5.429  11.398  16.820  0.00  0.00    +0.000 NA
ATOM     26  H   UNL     1      -5.697  10.475  16.483  0.00  0.00    +0.000 HD
ATOM     27  H   UNL     1      -5.702  12.057  16.092  0.00  0.00    +0.000 HD
ENDBRANCH  24  25
ENDBRANCH  23  24
ENDBRANCH  22  23
ENDBRANCH  21  22
ENDBRANCH  20  21
ENDBRANCH  19  20
ENDBRANCH  18  19
ENDBRANCH  17  18
ENDBRANCH  15  17
ENDBRANCH   1  15
TORSDOF 10
ENDMDL
MODEL 3
REMARK VINA RESULT:      -7.0      1.952      2.468
REMARK  Name = 
REMARK  10 active torsions:
REMARK  status: ('A' for Active; 'I' for Inactive)
REMARK    1  A    between atoms: N_1  and  C_2
REMARK    2  A    between atoms: C_2  and  C_3
REMARK    3  A    between atoms: C_3  and  C_4
REMARK    4  A    between atoms: C_4  and  C_5
REMARK    5  A    between atoms: C_5  and  C_6
REMARK    6  A    between atoms: C_6  and  C_7
REMARK    7  A    between atoms: C_7  and  C_8
REMARK    8  A    between atoms: C_8  and  C_9
REMARK    9  A    between atoms: C_9  and  N_10
REMARK   10  A    between atoms: N_10  and  C_11
REMARK                            x       y       z     vdW  Elec       q    Type
REMARK                         _______ _______ _______ _____ _____    ______ ____
ROOT
ATOM      1  C   UNL     1       3.444   5.612  18.683  0.00  0.00    +0.000 A 
ATOM      2  C   UNL     1       4.227   5.427  17.518  0.00  0.00    +0.000 A 
ATOM      3  C   UNL     1       4.373   4.121  17.033  0.00  0.00    +0.000 A 
ATOM      4  N   UNL     1       3.729   3.054  17.556  0.00  0.00    +0.000 NA
ATOM      5  C   UNL     1       2.908   3.237  18.587  0.00  0.00    +0.000 A 
ATOM      6  C   UNL     1       2.226   2.122  19.064  0.00  0.00    +0.000 A 
ATOM      7  C   UNL     1       1.330   2.201  20.130  0.00  0.00    +0.000 A 
ATOM      8  C   UNL     1       1.112   3.425  20.743  0.00  0.00    +0.000 A 
ATOM      9  C   UNL     1       1.798   4.555  20.285  0.00  0.00    +0.000 A 
ATOM     10  C   UNL     1       2.707   4.493  19.195  0.00  0.00    +0.000 A 
ATOM     11  C   UNL     1       5.222   3.795  15.829  0.00  0.00    +0.000 C 
ATOM     12  C   UNL     1       6.158   4.916  15.402  0.00  0.00    +0.000 C 
ATOM     13  C   UNL     1       5.398   6.230  15.383  0.00  0.00    +0.000 C 
ATOM     14  C   UNL     1       4.922   6.557  16.792  0.00  0.00    +0.000 C 
ENDROOT
BRANCH   1  15
ATOM     15  N   UNL     1       3.264   6.860  19.331  0.00  0.00    +0.000 N 
ATOM     16  H   UNL     1       3.453   6.769  20.329  0.00  0.00    +0.000 HD
BRANCH  15  17
ATOM     17  C   UNL     1       2.094   7.687  19.048  0.00  0.00    +0.000 C 
BRANCH  17  18
ATOM     18  C   UNL     1       2.276   8.519  17.782  0.00  0.00    +0.000 C 
BRANCH  18  19
ATOM     19  C   UNL     1       1.934  10.000  17.959  0.00  0.00    +0.000 C 
BRANCH  19  20
ATOM     20  C   UNL     1       1.104  10.280  19.213  0.00  0.00    +0.000 C 
BRANCH  20  21
ATOM     21  C   UNL     1      -0.088  11.181  18.912  0.00  0.00    +0.000 C 
BRANCH  21  22
ATOM     22  C   UNL     1      -1.370  10.353  18.843  0.00  0.00    +0.000 C 
BRANCH  22  23
ATOM     23  C   UNL     1      -1.708   9.978  17.404  0.00  0.00    +0.000 C 
BRANCH  23  24
ATOM     24  C   UNL     1      -2.946  10.729  16.923  0.00  0.00    +0.000 C 
BRANCH  24  25
ATOM     25  N   UNL     1      -2.660  11.423  15.674  0.00  0.00    +0.000 NA
ATOM     26  H   UNL     1      -3.149  12.316  15.665  0.00  0.00    +0.000 HD
ATOM     27  H   UNL     1      -3.035  10.886  14.894  0.00  0.00    +0.000 HD
ENDBRANCH  24  25
ENDBRANCH  23  24
ENDBRANCH  22  23
ENDBRANCH  21  22
ENDBRANCH  20  21
ENDBRANCH  19  20
ENDBRANCH  18  19
ENDBRANCH  17  18
ENDBRANCH  15  17
ENDBRANCH   1  15
TORSDOF 10
ENDMDL
MODEL 4
REMARK VINA RESULT:      -7.0      0.908      3.856
REMARK  Name = 
REMARK  10 active torsions:
REMARK  status: ('A' for Active; 'I' for Inactive)
REMARK    1  A    between atoms: N_1  and  C_2
REMARK    2  A    between atoms: C_2  and  C_3
REMARK    3  A    between atoms: C_3  and  C_4
REMARK    4  A    between atoms: C_4  and  C_5
REMARK    5  A    between atoms: C_5  and  C_6
REMARK    6  A    between atoms: C_6  and  C_7
REMARK    7  A    between atoms: C_7  and  C_8
REMARK    8  A    between atoms: C_8  and  C_9
REMARK    9  A    between atoms: C_9  and  N_10
REMARK   10  A    between atoms: N_10  and  C_11
REMARK                            x       y       z     vdW  Elec       q    Type
REMARK                         _______ _______ _______ _____ _____    ______ ____
ROOT
ATOM      1  C   UNL     1       3.315   5.872  18.207  0.00  0.00    +0.000 A 
ATOM      2  C   UNL     1       2.801   4.853  19.047  0.00  0.00    +0.000 A 
ATOM      3  C   UNL     1       3.077   3.525  18.700  0.00  0.00    +0.000 A 
ATOM      4  N   UNL     1       3.882   3.172  17.675  0.00  0.00    +0.000 NA
ATOM      5  C   UNL     1       4.454   4.126  16.944  0.00  0.00    +0.000 A 
ATOM      6  C   UNL     1       5.316   3.723  15.929  0.00  0.00    +0.000 A 
ATOM      7  C   UNL     1       5.980   4.638  15.113  0.00  0.00    +0.000 A 
ATOM      8  C   UNL     1       5.775   5.995  15.309  0.00  0.00    +0.000 A 
ATOM      9  C   UNL     1       4.901   6.420  16.316  0.00  0.00    +0.000 A 
ATOM     10  C   UNL     1       4.224   5.500  17.162  0.00  0.00    +0.000 A 
ATOM     11  C   UNL     1       2.543   2.355  19.491  0.00  0.00    +0.000 C 
ATOM     12  C   UNL     1       1.430   2.714  20.464  0.00  0.00    +0.000 C 
ATOM     13  C   UNL     1       1.818   3.960  21.239  0.00  0.00    +0.000 C 
ATOM     14  C   UNL     1       1.963   5.130  20.275  0.00  0.00    +0.000 C 
ENDROOT
BRANCH   1  15
ATOM     15  N   UNL     1       3.061   7.255  18.387  0.00  0.00    +0.000 N 
ATOM     16  H   UNL     1       3.198   7.513  19.363  0.00  0.00    +0.000 HD
BRANCH  15  17
ATOM     17  C   UNL     1       1.883   7.882  17.794  0.00  0.00    +0.000 C 
BRANCH  17  18
ATOM     18  C   UNL     1       1.799   9.368  18.128  0.00  0.00    +0.000 C 
BRANCH  18  19
ATOM     19  C   UNL     1       0.371   9.919  18.151  0.00  0.00    +0.000 C 
BRANCH  19  20
ATOM     20  C   UNL     1      -0.217  10.005  19.560  0.00  0.00    +0.000 C 
BRANCH  20  21
ATOM     21  C   UNL     1      -0.437  11.450  19.993  0.00  0.00    +0.000 C 
BRANCH  21  22
ATOM     22  C   UNL     1       0.305  11.727  21.300  0.00  0.00    +0.000 C 
BRANCH  22  23
ATOM     23  C   UNL     1      -0.671  11.976  22.445  0.00  0.00    +0.000 C 
BRANCH  23  24
ATOM     24  C   UNL     1      -1.072  10.664  23.113  0.00  0.00    +0.000 C 
BRANCH  24  25
ATOM     25  N   UNL     1       0.114   9.942  23.556  0.00  0.00    +0.000 NA
ATOM     26  H   UNL     1       0.836  10.010  22.841  0.00  0.00    +0.000 HD
ATOM     27  H   UNL     1      -0.105   8.952  23.646  0.00  0.00    +0.000 HD
ENDBRANCH  24  25
ENDBRANCH  23  24
ENDBRANCH  22  23
ENDBRANCH  21  22
ENDBRANCH  20  21
ENDBRANCH  19  20
ENDBRANCH  18  19
ENDBRANCH  17  18
ENDBRANCH  15  17
ENDBRANCH   1  15
TORSDOF 10
ENDMDL
MODEL 5
REMARK VINA RESULT:      -7.0      1.707      4.184
REMARK  Name = 
REMARK  10 active torsions:
REMARK  status: ('A' for Active; 'I' for Inactive)
REMARK    1  A    between atoms: N_1  and  C_2
REMARK    2  A    between atoms: C_2  and  C_3
REMARK    3  A    between atoms: C_3  and  C_4
REMARK    4  A    between atoms: C_4  and  C_5
REMARK    5  A    between atoms: C_5  and  C_6
REMARK    6  A    between atoms: C_6  and  C_7
REMARK    7  A    between atoms: C_7  and  C_8
REMARK    8  A    between atoms: C_8  and  C_9
REMARK    9  A    between atoms: C_9  and  N_10
REMARK   10  A    between atoms: N_10  and  C_11
REMARK                            x       y       z     vdW  Elec       q    Type
REMARK                         _______ _______ _______ _____ _____    ______ ____
ROOT
ATOM      1  C   UNL     1       3.545   5.524  18.781  0.00  0.00    +0.000 A 
ATOM      2  C   UNL     1       2.704   4.390  18.894  0.00  0.00    +0.000 A 
ATOM      3  C   UNL     1       2.922   3.328  18.007  0.00  0.00    +0.000 A 
ATOM      4  N   UNL     1       3.946   3.289  17.127  0.00  0.00    +0.000 NA
ATOM      5  C   UNL     1       4.804   4.305  17.088  0.00  0.00    +0.000 A 
ATOM      6  C   UNL     1       5.874   4.204  16.204  0.00  0.00    +0.000 A 
ATOM      7  C   UNL     1       6.840   5.203  16.092  0.00  0.00    +0.000 A 
ATOM      8  C   UNL     1       6.735   6.339  16.878  0.00  0.00    +0.000 A 
ATOM      9  C   UNL     1       5.659   6.466  17.764  0.00  0.00    +0.000 A 
ATOM     10  C   UNL     1       4.672   5.452  17.897  0.00  0.00    +0.000 A 
ATOM     11  C   UNL     1       2.060   2.090  18.000  0.00  0.00    +0.000 C 
ATOM     12  C   UNL     1       0.759   2.230  18.776  0.00  0.00    +0.000 C 
ATOM     13  C   UNL     1       1.038   2.875  20.120  0.00  0.00    +0.000 C 
ATOM     14  C   UNL     1       1.582   4.282  19.902  0.00  0.00    +0.000 C 
ENDROOT
BRANCH   1  15
ATOM     15  N   UNL     1       3.401   6.701  19.557  0.00  0.00    +0.000 N 
ATOM     16  H   UNL     1       3.569   6.496  20.542  0.00  0.00    +0.000 HD
BRANCH  15  17
ATOM     17  C   UNL     1       2.269   7.600  19.350  0.00  0.00    +0.000 C 
BRANCH  17  18
ATOM     18  C   UNL     1       2.265   8.198  17.946  0.00  0.00    +0.000 C 
BRANCH  18  19
ATOM     19  C   UNL     1       1.301   9.374  17.775  0.00  0.00    +0.000 C 
BRANCH  19  20
ATOM     20  C   UNL     1       1.849  10.687  18.334  0.00  0.00    +0.000 C 
BRANCH  20  21
ATOM     21  C   UNL     1       0.996  11.213  19.483  0.00  0.00    +0.000 C 
BRANCH  21  22
ATOM     22  C   UNL     1      -0.348  10.487  19.515  0.00  0.00    +0.000 C 
BRANCH  22  23
ATOM     23  C   UNL     1      -1.498  11.466  19.733  0.00  0.00    +0.000 C 
BRANCH  23  24
ATOM     24  C   UNL     1      -1.384  12.658  18.788  0.00  0.00    +0.000 C 
BRANCH  24  25
ATOM     25  N   UNL     1      -1.558  12.224  17.407  0.00  0.00    +0.000 NA
ATOM     26  H   UNL     1      -1.162  11.292  17.295  0.00  0.00    +0.000 HD
ATOM     27  H   UNL     1      -1.026  12.835  16.790  0.00  0.00    +0.000 HD
ENDBRANCH  24  25
ENDBRANCH  23  24
ENDBRANCH  22  23
ENDBRANCH  21  22
ENDBRANCH  20  21
ENDBRANCH  19  20
ENDBRANCH  18  19
ENDBRANCH  17  18
ENDBRANCH  15  17
ENDBRANCH   1  15
TORSDOF 10
ENDMDL
MODEL 6
REMARK VINA RESULT:      -7.0      2.415      4.791
REMARK  Name = 
REMARK  10 active torsions:
REMARK  status: ('A' for Active; 'I' for Inactive)
REMARK    1  A    between atoms: N_1  and  C_2
REMARK    2  A    between atoms: C_2  and  C_3
REMARK    3  A    between atoms: C_3  and  C_4
REMARK    4  A    between atoms: C_4  and  C_5
REMARK    5  A    between atoms: C_5  and  C_6
REMARK    6  A    between atoms: C_6  and  C_7
REMARK    7  A    between atoms: C_7  and  C_8
REMARK    8  A    between atoms: C_8  and  C_9
REMARK    9  A    between atoms: C_9  and  N_10
REMARK   10  A    between atoms: N_10  and  C_11
REMARK                            x       y       z     vdW  Elec       q    Type
REMARK                         _______ _______ _______ _____ _____    ______ ____
ROOT
ATOM      1  C   UNL     1       3.045   5.889  18.451  0.00  0.00    +0.000 A 
ATOM      2  C   UNL     1       2.516   4.767  19.135  0.00  0.00    +0.000 A 
ATOM      3  C   UNL     1       2.814   3.497  18.628  0.00  0.00    +0.000 A 
ATOM      4  N   UNL     1       3.654   3.285  17.591  0.00  0.00    +0.000 NA
ATOM      5  C   UNL     1       4.238   4.330  17.009  0.00  0.00    +0.000 A 
ATOM      6  C   UNL     1       5.134   4.067  15.978  0.00  0.00    +0.000 A 
ATOM      7  C   UNL     1       5.814   5.084  15.308  0.00  0.00    +0.000 A 
ATOM      8  C   UNL     1       5.590   6.402  15.672  0.00  0.00    +0.000 A 
ATOM      9  C   UNL     1       4.682   6.688  16.699  0.00  0.00    +0.000 A 
ATOM     10  C   UNL     1       3.989   5.662  17.397  0.00  0.00    +0.000 A 
ATOM     11  C   UNL     1       2.268   2.231  19.242  0.00  0.00    +0.000 C 
ATOM     12  C   UNL     1       1.123   2.454  20.219  0.00  0.00    +0.000 C 
ATOM     13  C   UNL     1       1.475   3.590  21.161  0.00  0.00    +0.000 C 
ATOM     14  C   UNL     1       1.638   4.876  20.362  0.00  0.00    +0.000 C 
ENDROOT
BRANCH   1  15
ATOM     15  N   UNL     1       2.773   7.235  18.802  0.00  0.00    +0.000 N 
ATOM     16  H   UNL     1       2.425   7.286  19.759  0.00  0.00    +0.000 HD
BRANCH  15  17
ATOM     17  C   UNL     1       2.048   8.114  17.888  0.00  0.00    +0.000 C 
BRANCH  17  18
ATOM     18  C   UNL     1       1.405   9.290  18.616  0.00  0.00    +0.000 C 
BRANCH  18  19
ATOM     19  C   UNL     1       0.223   9.912  17.869  0.00  0.00    +0.000 C 
BRANCH  19  20
ATOM     20  C   UNL     1      -0.931  10.306  18.792  0.00  0.00    +0.000 C 
BRANCH  20  21
ATOM     21  C   UNL     1      -2.286  10.001  18.163  0.00  0.00    +0.000 C 
BRANCH  21  22
ATOM     22  C   UNL     1      -2.205  10.142  16.644  0.00  0.00    +0.000 C 
BRANCH  22  23
ATOM     23  C   UNL     1      -3.529  10.631  16.063  0.00  0.00    +0.000 C 
BRANCH  23  24
ATOM     24  C   UNL     1      -4.215  11.603  17.019  0.00  0.00    +0.000 C 
BRANCH  24  25
ATOM     25  N   UNL     1      -5.611  11.226  17.202  0.00  0.00    +0.000 NA
ATOM     26  H   UNL     1      -6.128  11.421  16.346  0.00  0.00    +0.000 HD
ATOM     27  H   UNL     1      -6.028  11.809  17.926  0.00  0.00    +0.000 HD
ENDBRANCH  24  25
ENDBRANCH  23  24
ENDBRANCH  22  23
ENDBRANCH  21  22
ENDBRANCH  20  21
ENDBRANCH  19  20
ENDBRANCH  18  19
ENDBRANCH  17  18
ENDBRANCH  15  17
ENDBRANCH   1  15
TORSDOF 10
ENDMDL
MODEL 7
REMARK VINA RESULT:      -6.9      2.026      4.509
REMARK  Name = 
REMARK  10 active torsions:
REMARK  status: ('A' for Active; 'I' for Inactive)
REMARK    1  A    between atoms: N_1  and  C_2
REMARK    2  A    between atoms: C_2  and  C_3
REMARK    3  A    between atoms: C_3  and  C_4
REMARK    4  A    between atoms: C_4  and  C_5
REMARK    5  A    between atoms: C_5  and  C_6
REMARK    6  A    between atoms: C_6  and  C_7
REMARK    7  A    between atoms: C_7  and  C_8
REMARK    8  A    between atoms: C_8  and  C_9
REMARK    9  A    between atoms: C_9  and  N_10
REMARK   10  A    between atoms: N_10  and  C_11
REMARK                            x       y       z     vdW  Elec       q    Type
REMARK                         _______ _______ _______ _____ _____    ______ ____
ROOT
ATOM      1  C   UNL     1       3.360   5.617  18.759  0.00  0.00    +0.000 A 
ATOM      2  C   UNL     1       2.551   4.477  18.989  0.00  0.00    +0.000 A 
ATOM      3  C   UNL     1       2.682   3.399  18.105  0.00  0.00    +0.000 A 
ATOM      4  N   UNL     1       3.601   3.351  17.116  0.00  0.00    +0.000 NA
ATOM      5  C   UNL     1       4.436   4.376  16.959  0.00  0.00    +0.000 A 
ATOM      6  C   UNL     1       5.401   4.267  15.963  0.00  0.00    +0.000 A 
ATOM      7  C   UNL     1       6.335   5.274  15.722  0.00  0.00    +0.000 A 
ATOM      8  C   UNL     1       6.305   6.425  16.492  0.00  0.00    +0.000 A 
ATOM      9  C   UNL     1       5.334   6.559  17.492  0.00  0.00    +0.000 A 
ATOM     10  C   UNL     1       4.381   5.538  17.755  0.00  0.00    +0.000 A 
ATOM     11  C   UNL     1       1.840   2.152  18.219  0.00  0.00    +0.000 C 
ATOM     12  C   UNL     1       0.633   2.294  19.134  0.00  0.00    +0.000 C 
ATOM     13  C   UNL     1       1.054   2.972  20.425  0.00  0.00    +0.000 C 
ATOM     14  C   UNL     1       1.551   4.379  20.119  0.00  0.00    +0.000 C 
ENDROOT
BRANCH   1  15
ATOM     15  N   UNL     1       3.290   6.809  19.523  0.00  0.00    +0.000 N 
ATOM     16  H   UNL     1       3.507   6.615  20.500  0.00  0.00    +0.000 HD
BRANCH  15  17
ATOM     17  C   UNL     1       2.170   7.734  19.364  0.00  0.00    +0.000 C 
BRANCH  17  18
ATOM     18  C   UNL     1       2.190   8.426  18.005  0.00  0.00    +0.000 C 
BRANCH  18  19
ATOM     19  C   UNL     1       1.300   9.669  17.928  0.00  0.00    +0.000 C 
BRANCH  19  20
ATOM     20  C   UNL     1       0.555   9.956  19.233  0.00  0.00    +0.000 C 
BRANCH  20  21
ATOM     21  C   UNL     1      -0.186  11.286  19.179  0.00  0.00    +0.000 C 
BRANCH  21  22
ATOM     22  C   UNL     1      -1.675  11.050  18.935  0.00  0.00    +0.000 C 
BRANCH  22  23
ATOM     23  C   UNL     1      -2.124  11.670  17.615  0.00  0.00    +0.000 C 
BRANCH  23  24
ATOM     24  C   UNL     1      -2.315  10.597  16.547  0.00  0.00    +0.000 C 
BRANCH  24  25
ATOM     25  N   UNL     1      -2.694  11.211  15.281  0.00  0.00    +0.000 NA
ATOM     26  H   UNL     1      -3.619  10.881  15.010  0.00  0.00    +0.000 HD
ATOM     27  H   UNL     1      -2.057  10.901  14.549  0.00  0.00    +0.000 HD
ENDBRANCH  24  25
ENDBRANCH  23  24
ENDBRANCH  22  23
ENDBRANCH  21  22
ENDBRANCH  20  21
ENDBRANCH  19  20
ENDBRANCH  18  19
ENDBRANCH  17  18
ENDBRANCH  15  17
ENDBRANCH   1  15
TORSDOF 10
ENDMDL
MODEL 8
REMARK VINA RESULT:      -6.9      2.405      4.825
REMARK  Name = 
REMARK  10 active torsions:
REMARK  status: ('A' for Active; 'I' for Inactive)
REMARK    1  A    between atoms: N_1  and  C_2
REMARK    2  A    between atoms: C_2  and  C_3
REMARK    3  A    between atoms: C_3  and  C_4
REMARK    4  A    between atoms: C_4  and  C_5
REMARK    5  A    between atoms: C_5  and  C_6
REMARK    6  A    between atoms: C_6  and  C_7
REMARK    7  A    between atoms: C_7  and  C_8
REMARK    8  A    between atoms: C_8  and  C_9
REMARK    9  A    between atoms: C_9  and  N_10
REMARK   10  A    between atoms: N_10  and  C_11
REMARK                            x       y       z     vdW  Elec       q    Type
REMARK                         _______ _______ _______ _____ _____    ______ ____
ROOT
ATOM      1  C   UNL     1       3.453   5.846  18.144  0.00  0.00    +0.000 A 
ATOM      2  C   UNL     1       2.799   4.876  18.943  0.00  0.00    +0.000 A 
ATOM      3  C   UNL     1       2.895   3.537  18.547  0.00  0.00    +0.000 A 
ATOM      4  N   UNL     1       3.654   3.116  17.512  0.00  0.00    +0.000 NA
ATOM      5  C   UNL     1       4.356   4.010  16.820  0.00  0.00    +0.000 A 
ATOM      6  C   UNL     1       5.164   3.532  15.794  0.00  0.00    +0.000 A 
ATOM      7  C   UNL     1       5.953   4.378  15.015  0.00  0.00    +0.000 A 
ATOM      8  C   UNL     1       5.932   5.742  15.261  0.00  0.00    +0.000 A 
ATOM      9  C   UNL     1       5.115   6.244  16.281  0.00  0.00    +0.000 A 
ATOM     10  C   UNL     1       4.313   5.393  17.089  0.00  0.00    +0.000 A 
ATOM     11  C   UNL     1       2.201   2.422  19.291  0.00  0.00    +0.000 C 
ATOM     12  C   UNL     1       1.139   2.892  20.273  0.00  0.00    +0.000 C 
ATOM     13  C   UNL     1       1.685   4.044  21.096  0.00  0.00    +0.000 C 
ATOM     14  C   UNL     1       1.996   5.218  20.178  0.00  0.00    +0.000 C 
ENDROOT
BRANCH   1  15
ATOM     15  N   UNL     1       3.388   7.243  18.376  0.00  0.00    +0.000 N 
ATOM     16  H   UNL     1       3.631   7.451  19.344  0.00  0.00    +0.000 HD
BRANCH  15  17
ATOM     17  C   UNL     1       2.255   8.028  17.894  0.00  0.00    +0.000 C 
BRANCH  17  18
ATOM     18  C   UNL     1       1.556   8.776  19.026  0.00  0.00    +0.000 C 
BRANCH  18  19
ATOM     19  C   UNL     1       0.938  10.109  18.600  0.00  0.00    +0.000 C 
BRANCH  19  20
ATOM     20  C   UNL     1      -0.365   9.944  17.816  0.00  0.00    +0.000 C 
BRANCH  20  21
ATOM     21  C   UNL     1      -1.582  10.303  18.661  0.00  0.00    +0.000 C 
BRANCH  21  22
ATOM     22  C   UNL     1      -2.627  11.015  17.803  0.00  0.00    +0.000 C 
BRANCH  22  23
ATOM     23  C   UNL     1      -3.133  10.109  16.685  0.00  0.00    +0.000 C 
BRANCH  23  24
ATOM     24  C   UNL     1      -2.958  10.777  15.324  0.00  0.00    +0.000 C 
BRANCH  24  25
ATOM     25  N   UNL     1      -3.679  10.030  14.301  0.00  0.00    +0.000 NA
ATOM     26  H   UNL     1      -3.013   9.507  13.734  0.00  0.00    +0.000 HD
ATOM     27  H   UNL     1      -4.141  10.681  13.668  0.00  0.00    +0.000 HD
ENDBRANCH  24  25
ENDBRANCH  23  24
ENDBRANCH  22  23
ENDBRANCH  21  22
ENDBRANCH  20  21
ENDBRANCH  19  20
ENDBRANCH  18  19
ENDBRANCH  17  18
ENDBRANCH  15  17
ENDBRANCH   1  15
TORSDOF 10
ENDMDL
MODEL 9
REMARK VINA RESULT:      -6.9      2.394      2.948
REMARK  Name = 
REMARK  10 active torsions:
REMARK  status: ('A' for Active; 'I' for Inactive)
REMARK    1  A    between atoms: N_1  and  C_2
REMARK    2  A    between atoms: C_2  and  C_3
REMARK    3  A    between atoms: C_3  and  C_4
REMARK    4  A    between atoms: C_4  and  C_5
REMARK    5  A    between atoms: C_5  and  C_6
REMARK    6  A    between atoms: C_6  and  C_7
REMARK    7  A    between atoms: C_7  and  C_8
REMARK    8  A    between atoms: C_8  and  C_9
REMARK    9  A    between atoms: C_9  and  N_10
REMARK   10  A    between atoms: N_10  and  C_11
REMARK                            x       y       z     vdW  Elec       q    Type
REMARK                         _______ _______ _______ _____ _____    ______ ____
ROOT
ATOM      1  C   UNL     1       3.155   5.590  18.341  0.00  0.00    +0.000 A 
ATOM      2  C   UNL     1       4.441   5.504  17.754  0.00  0.00    +0.000 A 
ATOM      3  C   UNL     1       5.348   4.592  18.306  0.00  0.00    +0.000 A 
ATOM      4  N   UNL     1       5.030   3.728  19.295  0.00  0.00    +0.000 NA
ATOM      5  C   UNL     1       3.791   3.731  19.782  0.00  0.00    +0.000 A 
ATOM      6  C   UNL     1       3.489   2.792  20.763  0.00  0.00    +0.000 A 
ATOM      7  C   UNL     1       2.219   2.696  21.331  0.00  0.00    +0.000 A 
ATOM      8  C   UNL     1       1.222   3.564  20.915  0.00  0.00    +0.000 A 
ATOM      9  C   UNL     1       1.510   4.523  19.937  0.00  0.00    +0.000 A 
ATOM     10  C   UNL     1       2.796   4.628  19.342  0.00  0.00    +0.000 A 
ATOM     11  C   UNL     1       6.761   4.447  17.796  0.00  0.00    +0.000 C 
ATOM     12  C   UNL     1       7.217   5.578  16.888  0.00  0.00    +0.000 C 
ATOM     13  C   UNL     1       6.135   5.875  15.866  0.00  0.00    +0.000 C 
ATOM     14  C   UNL     1       4.881   6.356  16.584  0.00  0.00    +0.000 C 
ENDROOT
BRANCH   1  15
ATOM     15  N   UNL     1       2.157   6.513  17.939  0.00  0.00    +0.000 N 
ATOM     16  H   UNL     1       1.790   6.258  17.023  0.00  0.00    +0.000 HD
BRANCH  15  17
ATOM     17  C   UNL     1       2.365   7.951  18.088  0.00  0.00    +0.000 C 
BRANCH  17  18
ATOM     18  C   UNL     1       1.688   8.499  19.340  0.00  0.00    +0.000 C 
BRANCH  18  19
ATOM     19  C   UNL     1       1.154   9.925  19.183  0.00  0.00    +0.000 C 
BRANCH  19  20
ATOM     20  C   UNL     1      -0.090  10.006  18.297  0.00  0.00    +0.000 C 
BRANCH  20  21
ATOM     21  C   UNL     1      -1.305  10.502  19.073  0.00  0.00    +0.000 C 
BRANCH  21  22
ATOM     22  C   UNL     1      -2.407  10.933  18.106  0.00  0.00    +0.000 C 
BRANCH  22  23
ATOM     23  C   UNL     1      -3.000   9.733  17.374  0.00  0.00    +0.000 C 
BRANCH  23  24
ATOM     24  C   UNL     1      -2.962   9.945  15.863  0.00  0.00    +0.000 C 
BRANCH  24  25
ATOM     25  N   UNL     1      -2.471  11.282  15.555  0.00  0.00    +0.000 NA
ATOM     26  H   UNL     1      -2.529  11.438  14.550  0.00  0.00    +0.000 HD
ATOM     27  H   UNL     1      -1.483  11.344  15.796  0.00  0.00    +0.000 HD
ENDBRANCH  24  25
ENDBRANCH  23  24
ENDBRANCH  22  23
ENDBRANCH  21  22
ENDBRANCH  20  21
ENDBRANCH  19  20
ENDBRANCH  18  19
ENDBRANCH  17  18
ENDBRANCH  15  17
ENDBRANCH   1  15
TORSDOF 10
ENDMDL
