MODEL 1
REMARK VINA RESULT:      -7.4      0.000      0.000
REMARK  Name = 
REMARK  10 active torsions:
REMARK  status: ('A' for Active; 'I' for Inactive)
REMARK    1  A    between atoms: C_1  and  O_2
REMARK    2  A    between atoms: O_2  and  C_3
REMARK    3  A    between atoms: C_3  and  C_5
REMARK    4  A    between atoms: C_8  and  N_9
REMARK    5  A    between atoms: N_9  and  C_10
REMARK    6  A    between atoms: C_10  and  C_11
REMARK    7  A    between atoms: C_14  and  C_15
REMARK    8  A    between atoms: C_15  and  C_16
REMARK    9  A    between atoms: C_15  and  C_17
REMARK   10  A    between atoms: C_15  and  C_18
REMARK                            x       y       z     vdW  Elec       q    Type
REMARK                         _______ _______ _______ _____ _____    ______ ____
ROOT
ATOM      1  N   UNL     1       4.410   5.700  19.620  0.00  0.00    +0.000 N 
ATOM      2  H   UNL     1       4.717   6.560  20.066  0.00  0.00    +0.000 HD
ENDROOT
BRANCH   1   6
ATOM      3  C   UNL     1       6.312   4.972  15.924  0.00  0.00    +0.000 A 
ATOM      4  C   UNL     1       5.014   4.515  16.170  0.00  0.00    +0.000 A 
ATOM      5  C   UNL     1       4.409   4.746  17.410  0.00  0.00    +0.000 A 
ATOM      6  C   UNL     1       5.089   5.411  18.440  0.00  0.00    +0.000 A 
ATOM      7  C   UNL     1       6.378   5.883  18.168  0.00  0.00    +0.000 A 
ATOM      8  C   UNL     1       6.992   5.659  16.933  0.00  0.00    +0.000 A 
BRANCH   3   9
ATOM      9  C   UNL     1       6.907   4.736  14.583  0.00  0.00    +0.000 C 
ATOM     10  O   UNL     1       7.765   5.452  14.090  0.00  0.00    +0.000 OA
BRANCH   9  12
ATOM     11  C   UNL     1       6.366   3.662  12.583  0.00  0.00    +0.000 C 
ATOM     12  O   UNL     1       6.368   3.632  14.009  0.00  0.00    +0.000 OA
ENDBRANCH   9  12
ENDBRANCH   3   9
ENDBRANCH   1   6
BRANCH   1  13
ATOM     13  C   UNL     1       2.963   5.555  19.692  0.00  0.00    +0.000 C 
BRANCH  13  14
ATOM     14  C   UNL     1       2.330   6.919  19.605  0.00  0.00    +0.000 A 
ATOM     15  C   UNL     1       2.367   7.649  18.417  0.00  0.00    +0.000 A 
ATOM     16  C   UNL     1       1.747   8.899  18.331  0.00  0.00    +0.000 A 
ATOM     17  C   UNL     1       1.069   9.467  19.424  0.00  0.00    +0.000 A 
ATOM     18  C   UNL     1       1.048   8.725  20.619  0.00  0.00    +0.000 A 
ATOM     19  C   UNL     1       1.664   7.471  20.706  0.00  0.00    +0.000 A 
BRANCH  17  20
ATOM     20  C   UNL     1       0.348  10.822  19.329  0.00  0.00    +0.000 C 
ATOM     21  C   UNL     1       1.273  11.958  18.832  0.00  0.00    +0.000 C 
ATOM     22  C   UNL     1      -0.831  10.719  18.341  0.00  0.00    +0.000 C 
ATOM     23  C   UNL     1      -0.197  11.253  20.708  0.00  0.00    +0.000 C 
ENDBRANCH  17  20
ENDBRANCH  13  14
ENDBRANCH   1  13
TORSDOF 6
ENDMDL
MODEL 2
REMARK VINA RESULT:      -7.4      0.452      1.404
REMARK  Name = 
REMARK  10 active torsions:
REMARK  status: ('A' for Active; 'I' for Inactive)
REMARK    1  A    between atoms: C_1  and  O_2
REMARK    2  A    between atoms: O_2  and  C_3
REMARK    3  A    between atoms: C_3  and  C_5
REMARK    4  A    between atoms: C_8  and  N_9
REMARK    5  A    between atoms: N_9  and  C_10
REMARK    6  A    between atoms: C_10  and  C_11
REMARK    7  A    between atoms: C_14  and  C_15
REMARK    8  A    between atoms: C_15  and  C_16
REMARK    9  A    between atoms: C_15  and  C_17
REMARK   10  A    between atoms: C_15  and  C_18
REMARK                            x       y       z     vdW  Elec       q    Type
REMARK                         _______ _______ _______ _____ _____    ______ ____
ROOT
ATOM      1  N   UNL     1       4.526   5.306  19.478  0.00  0.00    +0.000 N 
ATOM      2  H   UNL     1       4.851   6.099  20.024  0.00  0.00    +0.000 HD
ENDROOT
BRANCH   1   6
ATOM      3  C   UNL     1       6.366   4.923  15.699  0.00  0.00    +0.000 A 
ATOM      4  C   UNL     1       5.255   4.147  16.043  0.00  0.00    +0.000 A 
ATOM      5  C   UNL     1       4.673   4.272  17.309  0.00  0.00    +0.000 A 
ATOM      6  C   UNL     1       5.197   5.148  18.269  0.00  0.00    +0.000 A 
ATOM      7  C   UNL     1       6.294   5.935  17.900  0.00  0.00    +0.000 A 
ATOM      8  C   UNL     1       6.882   5.820  16.637  0.00  0.00    +0.000 A 
BRANCH   3   9
ATOM      9  C   UNL     1       6.933   4.786  14.334  0.00  0.00    +0.000 C 
ATOM     10  O   UNL     1       7.832   5.493  13.902  0.00  0.00    +0.000 OA
BRANCH   9  12
ATOM     11  C   UNL     1       6.705   3.682  12.289  0.00  0.00    +0.000 C 
ATOM     12  O   UNL     1       6.321   3.781  13.660  0.00  0.00    +0.000 OA
ENDBRANCH   9  12
ENDBRANCH   3   9
ENDBRANCH   1   6
BRANCH   1  13
ATOM     13  C   UNL     1       3.076   5.182  19.536  0.00  0.00    +0.000 C 
BRANCH  13  14
ATOM     14  C   UNL     1       2.464   6.556  19.445  0.00  0.00    +0.000 A 
ATOM     15  C   UNL     1       1.832   7.131  20.547  0.00  0.00    +0.000 A 
ATOM     16  C   UNL     1       1.297   8.420  20.466  0.00  0.00    +0.000 A 
ATOM     17  C   UNL     1       1.374   9.183  19.287  0.00  0.00    +0.000 A 
ATOM     18  C   UNL     1       2.005   8.586  18.180  0.00  0.00    +0.000 A 
ATOM     19  C   UNL     1       2.545   7.298  18.260  0.00  0.00    +0.000 A 
BRANCH  17  20
ATOM     20  C   UNL     1       0.827  10.618  19.199  0.00  0.00    +0.000 C 
ATOM     21  C   UNL     1       0.600  11.256  20.590  0.00  0.00    +0.000 C 
ATOM     22  C   UNL     1       1.825  11.512  18.437  0.00  0.00    +0.000 C 
ATOM     23  C   UNL     1      -0.528  10.646  18.462  0.00  0.00    +0.000 C 
ENDBRANCH  17  20
ENDBRANCH  13  14
ENDBRANCH   1  13
TORSDOF 6
ENDMDL
MODEL 3
REMARK VINA RESULT:      -7.1      3.510      4.974
REMARK  Name = 
REMARK  10 active torsions:
REMARK  status: ('A' for Active; 'I' for Inactive)
REMARK    1  A    between atoms: C_1  and  O_2
REMARK    2  A    between atoms: O_2  and  C_3
REMARK    3  A    between atoms: C_3  and  C_5
REMARK    4  A    between atoms: C_8  and  N_9
REMARK    5  A    between atoms: N_9  and  C_10
REMARK    6  A    between atoms: C_10  and  C_11
REMARK    7  A    between atoms: C_14  and  C_15
REMARK    8  A    between atoms: C_15  and  C_16
REMARK    9  A    between atoms: C_15  and  C_17
REMARK   10  A    between atoms: C_15  and  C_18
REMARK                            x       y       z     vdW  Elec       q    Type
REMARK                         _______ _______ _______ _____ _____    ______ ____
ROOT
ATOM      1  N   UNL     1       7.396   5.823  16.473  0.00  0.00    +0.000 N 
ATOM      2  H   UNL     1       8.351   6.145  16.345  0.00  0.00    +0.000 HD
ENDROOT
BRANCH   1   6
ATOM      3  C   UNL     1       6.054   3.658  13.109  0.00  0.00    +0.000 A 
ATOM      4  C   UNL     1       7.055   4.627  12.991  0.00  0.00    +0.000 A 
ATOM      5  C   UNL     1       7.470   5.351  14.114  0.00  0.00    +0.000 A 
ATOM      6  C   UNL     1       6.882   5.147  15.371  0.00  0.00    +0.000 A 
ATOM      7  C   UNL     1       5.900   4.157  15.475  0.00  0.00    +0.000 A 
ATOM      8  C   UNL     1       5.478   3.426  14.360  0.00  0.00    +0.000 A 
BRANCH   3   9
ATOM      9  C   UNL     1       5.665   2.887  11.900  0.00  0.00    +0.000 C 
ATOM     10  O   UNL     1       4.556   2.945  11.391  0.00  0.00    +0.000 OA
BRANCH   9  12
ATOM     11  C   UNL     1       6.332   0.825  11.032  0.00  0.00    +0.000 C 
ATOM     12  O   UNL     1       6.703   2.135  11.459  0.00  0.00    +0.000 OA
ENDBRANCH   9  12
ENDBRANCH   3   9
ENDBRANCH   1   6
BRANCH   1  13
ATOM     13  C   UNL     1       6.591   6.817  17.169  0.00  0.00    +0.000 C 
BRANCH  13  14
ATOM     14  C   UNL     1       5.455   6.120  17.872  0.00  0.00    +0.000 A 
ATOM     15  C   UNL     1       4.131   6.473  17.614  0.00  0.00    +0.000 A 
ATOM     16  C   UNL     1       3.080   5.800  18.242  0.00  0.00    +0.000 A 
ATOM     17  C   UNL     1       3.309   4.750  19.150  0.00  0.00    +0.000 A 
ATOM     18  C   UNL     1       4.650   4.411  19.409  0.00  0.00    +0.000 A 
ATOM     19  C   UNL     1       5.704   5.081  18.778  0.00  0.00    +0.000 A 
BRANCH  17  20
ATOM     20  C   UNL     1       2.160   3.974  19.816  0.00  0.00    +0.000 C 
ATOM     21  C   UNL     1       2.662   2.896  20.806  0.00  0.00    +0.000 C 
ATOM     22  C   UNL     1       1.261   4.946  20.605  0.00  0.00    +0.000 C 
ATOM     23  C   UNL     1       1.300   3.250  18.758  0.00  0.00    +0.000 C 
ENDBRANCH  17  20
ENDBRANCH  13  14
ENDBRANCH   1  13
TORSDOF 6
ENDMDL
MODEL 4
REMARK VINA RESULT:      -7.1      0.554      1.319
REMARK  Name = 
REMARK  10 active torsions:
REMARK  status: ('A' for Active; 'I' for Inactive)
REMARK    1  A    between atoms: C_1  and  O_2
REMARK    2  A    between atoms: O_2  and  C_3
REMARK    3  A    between atoms: C_3  and  C_5
REMARK    4  A    between atoms: C_8  and  N_9
REMARK    5  A    between atoms: N_9  and  C_10
REMARK    6  A    between atoms: C_10  and  C_11
REMARK    7  A    between atoms: C_14  and  C_15
REMARK    8  A    between atoms: C_15  and  C_16
REMARK    9  A    between atoms: C_15  and  C_17
REMARK   10  A    between atoms: C_15  and  C_18
REMARK                            x       y       z     vdW  Elec       q    Type
REMARK                         _______ _______ _______ _____ _____    ______ ____
ROOT
ATOM      1  N   UNL     1       4.414   5.555  19.599  0.00  0.00    +0.000 N 
ATOM      2  H   UNL     1       4.755   6.378  20.088  0.00  0.00    +0.000 HD
ENDROOT
BRANCH   1   6
ATOM      3  C   UNL     1       6.202   4.873  15.837  0.00  0.00    +0.000 A 
ATOM      4  C   UNL     1       5.171   4.054  16.305  0.00  0.00    +0.000 A 
ATOM      5  C   UNL     1       4.607   4.282  17.565  0.00  0.00    +0.000 A 
ATOM      6  C   UNL     1       5.072   5.309  18.397  0.00  0.00    +0.000 A 
ATOM      7  C   UNL     1       6.087   6.135  17.902  0.00  0.00    +0.000 A 
ATOM      8  C   UNL     1       6.657   5.918  16.645  0.00  0.00    +0.000 A 
BRANCH   3   9
ATOM      9  C   UNL     1       6.751   4.620  14.480  0.00  0.00    +0.000 C 
ATOM     10  O   UNL     1       6.318   3.761  13.727  0.00  0.00    +0.000 OA
BRANCH   9  12
ATOM     11  C   UNL     1       8.135   5.528  12.834  0.00  0.00    +0.000 C 
ATOM     12  O   UNL     1       7.773   5.469  14.213  0.00  0.00    +0.000 OA
ENDBRANCH   9  12
ENDBRANCH   3   9
ENDBRANCH   1   6
BRANCH   1  13
ATOM     13  C   UNL     1       2.964   5.454  19.679  0.00  0.00    +0.000 C 
BRANCH  13  14
ATOM     14  C   UNL     1       2.372   6.835  19.580  0.00  0.00    +0.000 A 
ATOM     15  C   UNL     1       2.428   7.552  18.385  0.00  0.00    +0.000 A 
ATOM     16  C   UNL     1       1.846   8.819  18.288  0.00  0.00    +0.000 A 
ATOM     17  C   UNL     1       1.186   9.417  19.377  0.00  0.00    +0.000 A 
ATOM     18  C   UNL     1       1.146   8.688  20.579  0.00  0.00    +0.000 A 
ATOM     19  C   UNL     1       1.724   7.417  20.677  0.00  0.00    +0.000 A 
BRANCH  17  20
ATOM     20  C   UNL     1       0.506  10.793  19.270  0.00  0.00    +0.000 C 
ATOM     21  C   UNL     1      -0.778  10.758  18.407  0.00  0.00    +0.000 C 
ATOM     22  C   UNL     1       0.106  11.289  20.675  0.00  0.00    +0.000 C 
ATOM     23  C   UNL     1       1.454  11.828  18.629  0.00  0.00    +0.000 C 
ENDBRANCH  17  20
ENDBRANCH  13  14
ENDBRANCH   1  13
TORSDOF 6
ENDMDL
MODEL 5
REMARK VINA RESULT:      -7.1      1.096      1.746
REMARK  Name = 
REMARK  10 active torsions:
REMARK  status: ('A' for Active; 'I' for Inactive)
REMARK    1  A    between atoms: C_1  and  O_2
REMARK    2  A    between atoms: O_2  and  C_3
REMARK    3  A    between atoms: C_3  and  C_5
REMARK    4  A    between atoms: C_8  and  N_9
REMARK    5  A    between atoms: N_9  and  C_10
REMARK    6  A    between atoms: C_10  and  C_11
REMARK    7  A    between atoms: C_14  and  C_15
REMARK    8  A    between atoms: C_15  and  C_16
REMARK    9  A    between atoms: C_15  and  C_17
REMARK   10  A    between atoms: C_15  and  C_18
REMARK                            x       y       z     vdW  Elec       q    Type
REMARK                         _______ _______ _______ _____ _____    ______ ____
ROOT
ATOM      1  N   UNL     1       2.672   5.604  18.428  0.00  0.00    +0.000 N 
ATOM      2  H   UNL     1       2.148   4.754  18.617  0.00  0.00    +0.000 HD
ENDROOT
BRANCH   1   6
ATOM      3  C   UNL     1       5.646   4.990  15.497  0.00  0.00    +0.000 A 
ATOM      4  C   UNL     1       4.970   3.912  16.076  0.00  0.00    +0.000 A 
ATOM      5  C   UNL     1       4.004   4.135  17.063  0.00  0.00    +0.000 A 
ATOM      6  C   UNL     1       3.708   5.428  17.515  0.00  0.00    +0.000 A 
ATOM      7  C   UNL     1       4.376   6.497  16.908  0.00  0.00    +0.000 A 
ATOM      8  C   UNL     1       5.342   6.287  15.920  0.00  0.00    +0.000 A 
BRANCH   3   9
ATOM      9  C   UNL     1       6.640   4.715  14.428  0.00  0.00    +0.000 C 
ATOM     10  O   UNL     1       7.717   5.287  14.344  0.00  0.00    +0.000 OA
BRANCH   9  12
ATOM     11  C   UNL     1       6.798   3.771  12.299  0.00  0.00    +0.000 C 
ATOM     12  O   UNL     1       6.183   3.755  13.587  0.00  0.00    +0.000 OA
ENDBRANCH   9  12
ENDBRANCH   3   9
ENDBRANCH   1   6
BRANCH   1  13
ATOM     13  C   UNL     1       2.885   6.376  19.644  0.00  0.00    +0.000 C 
BRANCH  13  14
ATOM     14  C   UNL     1       2.039   7.621  19.586  0.00  0.00    +0.000 A 
ATOM     15  C   UNL     1       1.418   8.116  20.733  0.00  0.00    +0.000 A 
ATOM     16  C   UNL     1       0.663   9.291  20.681  0.00  0.00    +0.000 A 
ATOM     17  C   UNL     1       0.499  10.015  19.486  0.00  0.00    +0.000 A 
ATOM     18  C   UNL     1       1.122   9.498  18.335  0.00  0.00    +0.000 A 
ATOM     19  C   UNL     1       1.882   8.324  18.386  0.00  0.00    +0.000 A 
BRANCH  17  20
ATOM     20  C   UNL     1      -0.294  11.331  19.425  0.00  0.00    +0.000 C 
ATOM     21  C   UNL     1      -0.724  11.834  20.824  0.00  0.00    +0.000 C 
ATOM     22  C   UNL     1       0.571  12.434  18.782  0.00  0.00    +0.000 C 
ATOM     23  C   UNL     1      -1.581  11.160  18.591  0.00  0.00    +0.000 C 
ENDBRANCH  17  20
ENDBRANCH  13  14
ENDBRANCH   1  13
TORSDOF 6
ENDMDL
MODEL 6
REMARK VINA RESULT:      -7.0      3.661      4.979
REMARK  Name = 
REMARK  10 active torsions:
REMARK  status: ('A' for Active; 'I' for Inactive)
REMARK    1  A    between atoms: C_1  and  O_2
REMARK    2  A    between atoms: O_2  and  C_3
REMARK    3  A    between atoms: C_3  and  C_5
REMARK    4  A    between atoms: C_8  and  N_9
REMARK    5  A    between atoms: N_9  and  C_10
REMARK    6  A    between atoms: C_10  and  C_11
REMARK    7  A    between atoms: C_14  and  C_15
REMARK    8  A    between atoms: C_15  and  C_16
REMARK    9  A    between atoms: C_15  and  C_17
REMARK   10  A    between atoms: C_15  and  C_18
REMARK                            x       y       z     vdW  Elec       q    Type
REMARK                         _______ _______ _______ _____ _____    ______ ____
ROOT
ATOM      1  N   UNL     1       7.391   5.694  16.504  0.00  0.00    +0.000 N 
ATOM      2  H   UNL     1       8.337   6.064  16.488  0.00  0.00    +0.000 HD
ENDROOT
BRANCH   1   6
ATOM      3  C   UNL     1       6.128   3.644  13.039  0.00  0.00    +0.000 A 
ATOM      4  C   UNL     1       5.623   3.309  14.299  0.00  0.00    +0.000 A 
ATOM      5  C   UNL     1       6.072   3.985  15.439  0.00  0.00    +0.000 A 
ATOM      6  C   UNL     1       7.049   4.987  15.356  0.00  0.00    +0.000 A 
ATOM      7  C   UNL     1       7.524   5.326  14.084  0.00  0.00    +0.000 A 
ATOM      8  C   UNL     1       7.082   4.659  12.938  0.00  0.00    +0.000 A 
BRANCH   3   9
ATOM      9  C   UNL     1       5.601   2.927  11.850  0.00  0.00    +0.000 C 
ATOM     10  O   UNL     1       4.457   3.051  11.438  0.00  0.00    +0.000 OA
BRANCH   9  12
ATOM     11  C   UNL     1       6.161   0.782  11.117  0.00  0.00    +0.000 C 
ATOM     12  O   UNL     1       6.560   2.139  11.303  0.00  0.00    +0.000 OA
ENDBRANCH   9  12
ENDBRANCH   3   9
ENDBRANCH   1   6
BRANCH   1  13
ATOM     13  C   UNL     1       6.459   6.650  17.086  0.00  0.00    +0.000 C 
BRANCH  13  14
ATOM     14  C   UNL     1       5.349   5.895  17.771  0.00  0.00    +0.000 A 
ATOM     15  C   UNL     1       5.627   5.002  18.806  0.00  0.00    +0.000 A 
ATOM     16  C   UNL     1       4.590   4.331  19.462  0.00  0.00    +0.000 A 
ATOM     17  C   UNL     1       3.242   4.525  19.111  0.00  0.00    +0.000 A 
ATOM     18  C   UNL     1       2.978   5.420  18.058  0.00  0.00    +0.000 A 
ATOM     19  C   UNL     1       4.013   6.097  17.404  0.00  0.00    +0.000 A 
BRANCH  17  20
ATOM     20  C   UNL     1       2.091   3.824  19.853  0.00  0.00    +0.000 C 
ATOM     21  C   UNL     1       1.155   4.820  20.578  0.00  0.00    +0.000 C 
ATOM     22  C   UNL     1       1.233   3.026  18.851  0.00  0.00    +0.000 C 
ATOM     23  C   UNL     1       2.636   2.855  20.923  0.00  0.00    +0.000 C 
ENDBRANCH  17  20
ENDBRANCH  13  14
ENDBRANCH   1  13
TORSDOF 6
ENDMDL
MODEL 7
REMARK VINA RESULT:      -7.0      3.674      5.131
REMARK  Name = 
REMARK  10 active torsions:
REMARK  status: ('A' for Active; 'I' for Inactive)
REMARK    1  A    between atoms: C_1  and  O_2
REMARK    2  A    between atoms: O_2  and  C_3
REMARK    3  A    between atoms: C_3  and  C_5
REMARK    4  A    between atoms: C_8  and  N_9
REMARK    5  A    between atoms: N_9  and  C_10
REMARK    6  A    between atoms: C_10  and  C_11
REMARK    7  A    between atoms: C_14  and  C_15
REMARK    8  A    between atoms: C_15  and  C_16
REMARK    9  A    between atoms: C_15  and  C_17
REMARK   10  A    between atoms: C_15  and  C_18
REMARK                            x       y       z     vdW  Elec       q    Type
REMARK                         _______ _______ _______ _____ _____    ______ ____
ROOT
ATOM      1  N   UNL     1       7.305   5.648  16.741  0.00  0.00    +0.000 N 
ATOM      2  H   UNL     1       8.242   6.029  16.642  0.00  0.00    +0.000 HD
ENDROOT
BRANCH   1   6
ATOM      3  C   UNL     1       6.053   3.714  13.205  0.00  0.00    +0.000 A 
ATOM      4  C   UNL     1       7.072   4.671  13.182  0.00  0.00    +0.000 A 
ATOM      5  C   UNL     1       7.457   5.318  14.361  0.00  0.00    +0.000 A 
ATOM      6  C   UNL     1       6.822   5.049  15.581  0.00  0.00    +0.000 A 
ATOM      7  C   UNL     1       5.822   4.071  15.591  0.00  0.00    +0.000 A 
ATOM      8  C   UNL     1       5.430   3.416  14.419  0.00  0.00    +0.000 A 
BRANCH   3   9
ATOM      9  C   UNL     1       5.697   3.024  11.939  0.00  0.00    +0.000 C 
ATOM     10  O   UNL     1       4.591   3.089  11.423  0.00  0.00    +0.000 OA
BRANCH   9  12
ATOM     11  C   UNL     1       6.456   0.996  11.066  0.00  0.00    +0.000 C 
ATOM     12  O   UNL     1       6.760   2.335  11.455  0.00  0.00    +0.000 OA
ENDBRANCH   9  12
ENDBRANCH   3   9
ENDBRANCH   1   6
BRANCH   1  13
ATOM     13  C   UNL     1       6.454   6.533  17.523  0.00  0.00    +0.000 C 
BRANCH  13  14
ATOM     14  C   UNL     1       5.350   5.721  18.149  0.00  0.00    +0.000 A 
ATOM     15  C   UNL     1       5.641   4.637  18.976  0.00  0.00    +0.000 A 
ATOM     16  C   UNL     1       4.613   3.909  19.582  0.00  0.00    +0.000 A 
ATOM     17  C   UNL     1       3.259   4.234  19.386  0.00  0.00    +0.000 A 
ATOM     18  C   UNL     1       2.979   5.323  18.540  0.00  0.00    +0.000 A 
ATOM     19  C   UNL     1       4.007   6.056  17.936  0.00  0.00    +0.000 A 
BRANCH  17  20
ATOM     20  C   UNL     1       2.121   3.467  20.081  0.00  0.00    +0.000 C 
ATOM     21  C   UNL     1       2.563   2.824  21.416  0.00  0.00    +0.000 C 
ATOM     22  C   UNL     1       0.956   4.428  20.392  0.00  0.00    +0.000 C 
ATOM     23  C   UNL     1       1.597   2.327  19.181  0.00  0.00    +0.000 C 
ENDBRANCH  17  20
ENDBRANCH  13  14
ENDBRANCH   1  13
TORSDOF 6
ENDMDL
MODEL 8
REMARK VINA RESULT:      -7.0      1.120      1.654
REMARK  Name = 
REMARK  10 active torsions:
REMARK  status: ('A' for Active; 'I' for Inactive)
REMARK    1  A    between atoms: C_1  and  O_2
REMARK    2  A    between atoms: O_2  and  C_3
REMARK    3  A    between atoms: C_3  and  C_5
REMARK    4  A    between atoms: C_8  and  N_9
REMARK    5  A    between atoms: N_9  and  C_10
REMARK    6  A    between atoms: C_10  and  C_11
REMARK    7  A    between atoms: C_14  and  C_15
REMARK    8  A    between atoms: C_15  and  C_16
REMARK    9  A    between atoms: C_15  and  C_17
REMARK   10  A    between atoms: C_15  and  C_18
REMARK                            x       y       z     vdW  Elec       q    Type
REMARK                         _______ _______ _______ _____ _____    ______ ____
ROOT
ATOM      1  N   UNL     1       2.880   5.498  18.349  0.00  0.00    +0.000 N 
ATOM      2  H   UNL     1       2.373   4.649  18.586  0.00  0.00    +0.000 HD
ENDROOT
BRANCH   1   6
ATOM      3  C   UNL     1       5.706   4.854  15.282  0.00  0.00    +0.000 A 
ATOM      4  C   UNL     1       4.996   3.788  15.844  0.00  0.00    +0.000 A 
ATOM      5  C   UNL     1       4.080   4.020  16.876  0.00  0.00    +0.000 A 
ATOM      6  C   UNL     1       3.870   5.307  17.390  0.00  0.00    +0.000 A 
ATOM      7  C   UNL     1       4.571   6.364  16.799  0.00  0.00    +0.000 A 
ATOM      8  C   UNL     1       5.487   6.146  15.766  0.00  0.00    +0.000 A 
BRANCH   3   9
ATOM      9  C   UNL     1       6.644   4.572  14.165  0.00  0.00    +0.000 C 
ATOM     10  O   UNL     1       6.471   3.680  13.347  0.00  0.00    +0.000 OA
BRANCH   9  12
ATOM     11  C   UNL     1       8.303   5.640  12.918  0.00  0.00    +0.000 C 
ATOM     12  O   UNL     1       7.689   5.436  14.189  0.00  0.00    +0.000 OA
ENDBRANCH   9  12
ENDBRANCH   3   9
ENDBRANCH   1   6
BRANCH   1  13
ATOM     13  C   UNL     1       3.146   6.302  19.533  0.00  0.00    +0.000 C 
BRANCH  13  14
ATOM     14  C   UNL     1       2.269   7.527  19.498  0.00  0.00    +0.000 A 
ATOM     15  C   UNL     1       2.111   8.258  18.321  0.00  0.00    +0.000 A 
ATOM     16  C   UNL     1       1.269   9.373  18.285  0.00  0.00    +0.000 A 
ATOM     17  C   UNL     1       0.554   9.800  19.419  0.00  0.00    +0.000 A 
ATOM     18  C   UNL     1       0.732   9.059  20.602  0.00  0.00    +0.000 A 
ATOM     19  C   UNL     1       1.571   7.940  20.639  0.00  0.00    +0.000 A 
BRANCH  17  20
ATOM     20  C   UNL     1      -0.408  10.999  19.380  0.00  0.00    +0.000 C 
ATOM     21  C   UNL     1      -0.947  11.378  20.780  0.00  0.00    +0.000 C 
ATOM     22  C   UNL     1       0.320  12.235  18.814  0.00  0.00    +0.000 C 
ATOM     23  C   UNL     1      -1.632  10.695  18.492  0.00  0.00    +0.000 C 
ENDBRANCH  17  20
ENDBRANCH  13  14
ENDBRANCH   1  13
TORSDOF 6
ENDMDL
MODEL 9
REMARK VINA RESULT:      -7.0      3.562      4.928
REMARK  Name = 
REMARK  10 active torsions:
REMARK  status: ('A' for Active; 'I' for Inactive)
REMARK    1  A    between atoms: C_1  and  O_2
REMARK    2  A    between atoms: O_2  and  C_3
REMARK    3  A    between atoms: C_3  and  C_5
REMARK    4  A    between atoms: C_8  and  N_9
REMARK    5  A    between atoms: N_9  and  C_10
REMARK    6  A    between atoms: C_10  and  C_11
REMARK    7  A    between atoms: C_14  and  C_15
REMARK    8  A    between atoms: C_15  and  C_16
REMARK    9  A    between atoms: C_15  and  C_17
REMARK   10  A    between atoms: C_15  and  C_18
REMARK                            x       y       z     vdW  Elec       q    Type
REMARK                         _______ _______ _______ _____ _____    ______ ____
ROOT
ATOM      1  N   UNL     1       7.457   5.800  16.230  0.00  0.00    +0.000 N 
ATOM      2  H   UNL     1       8.419   6.111  16.139  0.00  0.00    +0.000 HD
ENDROOT
BRANCH   1   6
ATOM      3  C   UNL     1       5.904   3.590  12.988  0.00  0.00    +0.000 A 
ATOM      4  C   UNL     1       5.389   3.436  14.278  0.00  0.00    +0.000 A 
ATOM      5  C   UNL     1       5.933   4.160  15.344  0.00  0.00    +0.000 A 
ATOM      6  C   UNL     1       7.015   5.031  15.157  0.00  0.00    +0.000 A 
ATOM      7  C   UNL     1       7.501   5.192  13.855  0.00  0.00    +0.000 A 
ATOM      8  C   UNL     1       6.965   4.475  12.782  0.00  0.00    +0.000 A 
BRANCH   3   9
ATOM      9  C   UNL     1       5.277   2.829  11.876  0.00  0.00    +0.000 C 
ATOM     10  O   UNL     1       5.861   1.971  11.232  0.00  0.00    +0.000 OA
BRANCH   9  12
ATOM     11  C   UNL     1       3.699   3.663  10.371  0.00  0.00    +0.000 C 
ATOM     12  O   UNL     1       3.991   3.220  11.696  0.00  0.00    +0.000 OA
ENDBRANCH   9  12
ENDBRANCH   3   9
ENDBRANCH   1   6
BRANCH   1  13
ATOM     13  C   UNL     1       6.611   6.848  16.783  0.00  0.00    +0.000 C 
BRANCH  13  14
ATOM     14  C   UNL     1       5.500   6.211  17.578  0.00  0.00    +0.000 A 
ATOM     15  C   UNL     1       4.164   6.438  17.247  0.00  0.00    +0.000 A 
ATOM     16  C   UNL     1       3.139   5.817  17.966  0.00  0.00    +0.000 A 
ATOM     17  C   UNL     1       3.407   4.948  19.039  0.00  0.00    +0.000 A 
ATOM     18  C   UNL     1       4.758   4.736  19.368  0.00  0.00    +0.000 A 
ATOM     19  C   UNL     1       5.787   5.353  18.647  0.00  0.00    +0.000 A 
BRANCH  17  20
ATOM     20  C   UNL     1       2.289   4.226  19.810  0.00  0.00    +0.000 C 
ATOM     21  C   UNL     1       2.819   3.063  20.682  0.00  0.00    +0.000 C 
ATOM     22  C   UNL     1       1.574   5.220  20.747  0.00  0.00    +0.000 C 
ATOM     23  C   UNL     1       1.250   3.625  18.839  0.00  0.00    +0.000 C 
ENDBRANCH  17  20
ENDBRANCH  13  14
ENDBRANCH   1  13
TORSDOF 6
ENDMDL
