MODEL 1
REMARK VINA RESULT:      -8.4      0.000      0.000
REMARK  Name = 
REMARK  5 active torsions:
REMARK  status: ('A' for Active; 'I' for Inactive)
REMARK    1  A    between atoms: C_1  and  O_2
REMARK    2  A    between atoms: O_2  and  C_3
REMARK    3  A    between atoms: C_6  and  N_7
REMARK    4  A    between atoms: N_10  and  C_11
REMARK    5  A    between atoms: C_11  and  C_12
REMARK                            x       y       z     vdW  Elec       q    Type
REMARK                         _______ _______ _______ _____ _____    ______ ____
ROOT
ATOM      1  N   UNL     1       3.040   6.036  19.258  0.00  0.00    +0.000 N 
ATOM      2  C   UNL     1       4.312   5.932  18.666  0.00  0.00    +0.000 A 
ATOM      3  O   UNL     1       4.781   6.821  17.947  0.00  0.00    +0.000 OA
ATOM      4  N   UNL     1       5.011   4.714  18.864  0.00  0.00    +0.000 N 
ATOM      5  C   UNL     1       4.468   3.563  19.445  0.00  0.00    +0.000 A 
ATOM      6  O   UNL     1       5.023   2.479  19.509  0.00  0.00    +0.000 OA
ATOM      7  C   UNL     1       3.154   3.757  19.939  0.00  0.00    +0.000 A 
ATOM      8  N   UNL     1       2.303   2.874  20.542  0.00  0.00    +0.000 N 
ATOM      9  C   UNL     1       1.170   3.571  20.856  0.00  0.00    +0.000 A 
ATOM     10  N   UNL     1       1.255   4.828  20.476  0.00  0.00    +0.000 NA
ATOM     11  C   UNL     1       2.475   4.935  19.867  0.00  0.00    +0.000 A 
ATOM     12  H   UNL     1       2.481   1.892  20.710  0.00  0.00    +0.000 HD
ENDROOT
BRANCH   1  16
ATOM     13  C   UNL     1       0.935   9.711  19.213  0.00  0.00    +0.000 A 
ATOM     14  C   UNL     1       1.119   9.026  20.413  0.00  0.00    +0.000 A 
ATOM     15  C   UNL     1       1.806   7.810  20.433  0.00  0.00    +0.000 A 
ATOM     16  C   UNL     1       2.279   7.234  19.245  0.00  0.00    +0.000 A 
ATOM     17  C   UNL     1       2.031   7.895  18.036  0.00  0.00    +0.000 A 
ATOM     18  C   UNL     1       1.381   9.136  18.022  0.00  0.00    +0.000 A 
BRANCH  13  20
ATOM     19  C   UNL     1      -1.010  10.952  18.726  0.00  0.00    +0.000 C 
ATOM     20  O   UNL     1       0.285  10.911  19.314  0.00  0.00    +0.000 OA
ENDBRANCH  13  20
ENDBRANCH   1  16
BRANCH   4  21
ATOM     21  C   UNL     1       6.308   4.559  18.216  0.00  0.00    +0.000 C 
BRANCH  21  22
ATOM     22  C   UNL     1       6.288   4.560  16.699  0.00  0.00    +0.000 A 
ATOM     23  C   UNL     1       7.268   5.248  15.965  0.00  0.00    +0.000 A 
ATOM     24  C   UNL     1       7.350   5.111  14.576  0.00  0.00    +0.000 A 
ATOM     25  C   UNL     1       6.443   4.287  13.904  0.00  0.00    +0.000 A 
ATOM     26  C   UNL     1       5.440   3.631  14.616  0.00  0.00    +0.000 A 
ATOM     27  C   UNL     1       5.354   3.776  16.003  0.00  0.00    +0.000 A 
ENDBRANCH  21  22
ENDBRANCH   4  21
TORSDOF 4
ENDMDL
MODEL 2
REMARK VINA RESULT:      -8.3      0.230      1.356
REMARK  Name = 
REMARK  5 active torsions:
REMARK  status: ('A' for Active; 'I' for Inactive)
REMARK    1  A    between atoms: C_1  and  O_2
REMARK    2  A    between atoms: O_2  and  C_3
REMARK    3  A    between atoms: C_6  and  N_7
REMARK    4  A    between atoms: N_10  and  C_11
REMARK    5  A    between atoms: C_11  and  C_12
REMARK                            x       y       z     vdW  Elec       q    Type
REMARK                         _______ _______ _______ _____ _____    ______ ____
ROOT
ATOM      1  N   UNL     1       3.104   6.175  19.207  0.00  0.00    +0.000 N 
ATOM      2  C   UNL     1       4.388   6.042  18.647  0.00  0.00    +0.000 A 
ATOM      3  O   UNL     1       4.890   6.914  17.930  0.00  0.00    +0.000 OA
ATOM      4  N   UNL     1       5.058   4.813  18.874  0.00  0.00    +0.000 N 
ATOM      5  C   UNL     1       4.481   3.679  19.453  0.00  0.00    +0.000 A 
ATOM      6  O   UNL     1       5.013   2.585  19.542  0.00  0.00    +0.000 OA
ATOM      7  C   UNL     1       3.159   3.902  19.914  0.00  0.00    +0.000 A 
ATOM      8  N   UNL     1       2.277   3.042  20.505  0.00  0.00    +0.000 N 
ATOM      9  C   UNL     1       1.150   3.763  20.785  0.00  0.00    +0.000 A 
ATOM     10  N   UNL     1       1.268   5.014  20.394  0.00  0.00    +0.000 NA
ATOM     11  C   UNL     1       2.504   5.092  19.814  0.00  0.00    +0.000 A 
ATOM     12  H   UNL     1       2.433   2.059  20.687  0.00  0.00    +0.000 HD
ENDROOT
BRANCH   1  16
ATOM     13  C   UNL     1       0.740   9.688  19.080  0.00  0.00    +0.000 A 
ATOM     14  C   UNL     1       1.318   9.192  17.912  0.00  0.00    +0.000 A 
ATOM     15  C   UNL     1       2.105   8.039  17.949  0.00  0.00    +0.000 A 
ATOM     16  C   UNL     1       2.366   7.388  19.163  0.00  0.00    +0.000 A 
ATOM     17  C   UNL     1       1.837   7.930  20.341  0.00  0.00    +0.000 A 
ATOM     18  C   UNL     1       1.013   9.062  20.297  0.00  0.00    +0.000 A 
BRANCH  13  20
ATOM     19  C   UNL     1      -1.329  10.563  18.361  0.00  0.00    +0.000 C 
ATOM     20  O   UNL     1      -0.043  10.799  18.923  0.00  0.00    +0.000 OA
ENDBRANCH  13  20
ENDBRANCH   1  16
BRANCH   4  21
ATOM     21  C   UNL     1       6.367   4.628  18.259  0.00  0.00    +0.000 C 
BRANCH  21  22
ATOM     22  C   UNL     1       6.364   4.432  16.755  0.00  0.00    +0.000 A 
ATOM     23  C   UNL     1       5.316   3.745  16.118  0.00  0.00    +0.000 A 
ATOM     24  C   UNL     1       5.226   3.710  14.723  0.00  0.00    +0.000 A 
ATOM     25  C   UNL     1       6.190   4.360  13.948  0.00  0.00    +0.000 A 
ATOM     26  C   UNL     1       7.257   5.010  14.566  0.00  0.00    +0.000 A 
ATOM     27  C   UNL     1       7.352   5.036  15.960  0.00  0.00    +0.000 A 
ENDBRANCH  21  22
ENDBRANCH   4  21
TORSDOF 4
ENDMDL
MODEL 3
REMARK VINA RESULT:      -7.5      1.930      6.558
REMARK  Name = 
REMARK  5 active torsions:
REMARK  status: ('A' for Active; 'I' for Inactive)
REMARK    1  A    between atoms: C_1  and  O_2
REMARK    2  A    between atoms: O_2  and  C_3
REMARK    3  A    between atoms: C_6  and  N_7
REMARK    4  A    between atoms: N_10  and  C_11
REMARK    5  A    between atoms: C_11  and  C_12
REMARK                            x       y       z     vdW  Elec       q    Type
REMARK                         _______ _______ _______ _____ _____    ______ ____
ROOT
ATOM      1  N   UNL     1       3.988   4.873  18.041  0.00  0.00    +0.000 N 
ATOM      2  C   UNL     1       3.696   5.998  18.834  0.00  0.00    +0.000 A 
ATOM      3  O   UNL     1       4.432   6.990  18.870  0.00  0.00    +0.000 OA
ATOM      4  N   UNL     1       2.550   5.912  19.666  0.00  0.00    +0.000 N 
ATOM      5  C   UNL     1       1.802   4.752  19.884  0.00  0.00    +0.000 A 
ATOM      6  O   UNL     1       0.891   4.642  20.688  0.00  0.00    +0.000 OA
ATOM      7  C   UNL     1       2.229   3.658  19.091  0.00  0.00    +0.000 A 
ATOM      8  N   UNL     1       1.766   2.373  19.042  0.00  0.00    +0.000 N 
ATOM      9  C   UNL     1       2.498   1.725  18.088  0.00  0.00    +0.000 A 
ATOM     10  N   UNL     1       3.398   2.520  17.547  0.00  0.00    +0.000 NA
ATOM     11  C   UNL     1       3.258   3.713  18.201  0.00  0.00    +0.000 A 
ATOM     12  H   UNL     1       1.029   1.982  19.615  0.00  0.00    +0.000 HD
ENDROOT
BRANCH   1  16
ATOM     13  C   UNL     1       7.148   5.006  15.224  0.00  0.00    +0.000 A 
ATOM     14  C   UNL     1       5.842   5.287  14.823  0.00  0.00    +0.000 A 
ATOM     15  C   UNL     1       4.795   5.238  15.746  0.00  0.00    +0.000 A 
ATOM     16  C   UNL     1       5.029   4.859  17.076  0.00  0.00    +0.000 A 
ATOM     17  C   UNL     1       6.332   4.512  17.454  0.00  0.00    +0.000 A 
ATOM     18  C   UNL     1       7.388   4.605  16.539  0.00  0.00    +0.000 A 
BRANCH  13  20
ATOM     19  C   UNL     1       7.616   5.048  12.913  0.00  0.00    +0.000 C 
ATOM     20  O   UNL     1       8.100   5.124  14.249  0.00  0.00    +0.000 OA
ENDBRANCH  13  20
ENDBRANCH   1  16
BRANCH   4  21
ATOM     21  C   UNL     1       2.256   7.043  20.538  0.00  0.00    +0.000 C 
BRANCH  21  22
ATOM     22  C   UNL     1       1.420   8.149  19.921  0.00  0.00    +0.000 A 
ATOM     23  C   UNL     1       0.522   8.895  20.701  0.00  0.00    +0.000 A 
ATOM     24  C   UNL     1      -0.122  10.019  20.174  0.00  0.00    +0.000 A 
ATOM     25  C   UNL     1       0.124  10.405  18.853  0.00  0.00    +0.000 A 
ATOM     26  C   UNL     1       0.982   9.649  18.055  0.00  0.00    +0.000 A 
ATOM     27  C   UNL     1       1.617   8.520  18.581  0.00  0.00    +0.000 A 
ENDBRANCH  21  22
ENDBRANCH   4  21
TORSDOF 4
ENDMDL
MODEL 4
REMARK VINA RESULT:      -7.5      1.265      1.636
REMARK  Name = 
REMARK  5 active torsions:
REMARK  status: ('A' for Active; 'I' for Inactive)
REMARK    1  A    between atoms: C_1  and  O_2
REMARK    2  A    between atoms: O_2  and  C_3
REMARK    3  A    between atoms: C_6  and  N_7
REMARK    4  A    between atoms: N_10  and  C_11
REMARK    5  A    between atoms: C_11  and  C_12
REMARK                            x       y       z     vdW  Elec       q    Type
REMARK                         _______ _______ _______ _____ _____    ______ ____
ROOT
ATOM      1  N   UNL     1       3.178   5.821  18.227  0.00  0.00    +0.000 N 
ATOM      2  C   UNL     1       4.484   5.767  17.707  0.00  0.00    +0.000 A 
ATOM      3  O   UNL     1       5.110   6.783  17.384  0.00  0.00    +0.000 OA
ATOM      4  N   UNL     1       5.031   4.477  17.489  0.00  0.00    +0.000 N 
ATOM      5  C   UNL     1       4.320   3.277  17.584  0.00  0.00    +0.000 A 
ATOM      6  O   UNL     1       4.752   2.177  17.282  0.00  0.00    +0.000 OA
ATOM      7  C   UNL     1       2.991   3.454  18.044  0.00  0.00    +0.000 A 
ATOM      8  N   UNL     1       1.999   2.535  18.240  0.00  0.00    +0.000 N 
ATOM      9  C   UNL     1       0.918   3.218  18.723  0.00  0.00    +0.000 A 
ATOM     10  N   UNL     1       1.168   4.506  18.828  0.00  0.00    +0.000 NA
ATOM     11  C   UNL     1       2.447   4.660  18.366  0.00  0.00    +0.000 A 
ATOM     12  H   UNL     1       2.058   1.542  18.050  0.00  0.00    +0.000 HD
ENDROOT
BRANCH   1  16
ATOM     13  C   UNL     1       1.132   9.352  19.363  0.00  0.00    +0.000 A 
ATOM     14  C   UNL     1       1.503   9.156  18.033  0.00  0.00    +0.000 A 
ATOM     15  C   UNL     1       2.185   7.997  17.654  0.00  0.00    +0.000 A 
ATOM     16  C   UNL     1       2.549   7.036  18.607  0.00  0.00    +0.000 A 
ATOM     17  C   UNL     1       2.233   7.271  19.951  0.00  0.00    +0.000 A 
ATOM     18  C   UNL     1       1.511   8.413  20.323  0.00  0.00    +0.000 A 
BRANCH  13  20
ATOM     19  C   UNL     1      -0.837  10.593  18.984  0.00  0.00    +0.000 C 
ATOM     20  O   UNL     1       0.435  10.501  19.615  0.00  0.00    +0.000 OA
ENDBRANCH  13  20
ENDBRANCH   1  16
BRANCH   4  21
ATOM     21  C   UNL     1       6.362   4.393  16.900  0.00  0.00    +0.000 C 
BRANCH  21  22
ATOM     22  C   UNL     1       6.416   4.469  15.386  0.00  0.00    +0.000 A 
ATOM     23  C   UNL     1       7.456   5.152  14.734  0.00  0.00    +0.000 A 
ATOM     24  C   UNL     1       7.600   5.080  13.344  0.00  0.00    +0.000 A 
ATOM     25  C   UNL     1       6.696   4.327  12.590  0.00  0.00    +0.000 A 
ATOM     26  C   UNL     1       5.636   3.678  13.220  0.00  0.00    +0.000 A 
ATOM     27  C   UNL     1       5.488   3.758  14.608  0.00  0.00    +0.000 A 
ENDBRANCH  21  22
ENDBRANCH   4  21
TORSDOF 4
ENDMDL
MODEL 5
REMARK VINA RESULT:      -7.3      1.476      1.667
REMARK  Name = 
REMARK  5 active torsions:
REMARK  status: ('A' for Active; 'I' for Inactive)
REMARK    1  A    between atoms: C_1  and  O_2
REMARK    2  A    between atoms: O_2  and  C_3
REMARK    3  A    between atoms: C_6  and  N_7
REMARK    4  A    between atoms: N_10  and  C_11
REMARK    5  A    between atoms: C_11  and  C_12
REMARK                            x       y       z     vdW  Elec       q    Type
REMARK                         _______ _______ _______ _____ _____    ______ ____
ROOT
ATOM      1  N   UNL     1       3.241   5.896  17.963  0.00  0.00    +0.000 N 
ATOM      2  C   UNL     1       4.534   5.980  17.412  0.00  0.00    +0.000 A 
ATOM      3  O   UNL     1       5.062   7.061  17.130  0.00  0.00    +0.000 OA
ATOM      4  N   UNL     1       5.181   4.754  17.114  0.00  0.00    +0.000 N 
ATOM      5  C   UNL     1       4.575   3.495  17.161  0.00  0.00    +0.000 A 
ATOM      6  O   UNL     1       5.089   2.453  16.791  0.00  0.00    +0.000 OA
ATOM      7  C   UNL     1       3.248   3.534  17.658  0.00  0.00    +0.000 A 
ATOM      8  N   UNL     1       2.342   2.525  17.827  0.00  0.00    +0.000 N 
ATOM      9  C   UNL     1       1.221   3.088  18.370  0.00  0.00    +0.000 A 
ATOM     10  N   UNL     1       1.366   4.386  18.537  0.00  0.00    +0.000 NA
ATOM     11  C   UNL     1       2.614   4.672  18.056  0.00  0.00    +0.000 A 
ATOM     12  H   UNL     1       2.480   1.553  17.584  0.00  0.00    +0.000 HD
ENDROOT
BRANCH   1  16
ATOM     13  C   UNL     1       1.264   9.385  19.327  0.00  0.00    +0.000 A 
ATOM     14  C   UNL     1       1.609   8.380  20.229  0.00  0.00    +0.000 A 
ATOM     15  C   UNL     1       2.254   7.223  19.784  0.00  0.00    +0.000 A 
ATOM     16  C   UNL     1       2.523   7.032  18.421  0.00  0.00    +0.000 A 
ATOM     17  C   UNL     1       2.112   8.016  17.513  0.00  0.00    +0.000 A 
ATOM     18  C   UNL     1       1.504   9.194  17.965  0.00  0.00    +0.000 A 
BRANCH  13  20
ATOM     19  C   UNL     1      -0.744  10.548  19.748  0.00  0.00    +0.000 C 
ATOM     20  O   UNL     1       0.672  10.490  19.876  0.00  0.00    +0.000 OA
ENDBRANCH  13  20
ENDBRANCH   1  16
BRANCH   4  21
ATOM     21  C   UNL     1       6.498   4.814  16.492  0.00  0.00    +0.000 C 
BRANCH  21  22
ATOM     22  C   UNL     1       6.515   4.708  14.979  0.00  0.00    +0.000 A 
ATOM     23  C   UNL     1       7.573   5.247  14.229  0.00  0.00    +0.000 A 
ATOM     24  C   UNL     1       7.676   5.004  12.856  0.00  0.00    +0.000 A 
ATOM     25  C   UNL     1       6.711   4.221  12.215  0.00  0.00    +0.000 A 
ATOM     26  C   UNL     1       5.633   3.714  12.939  0.00  0.00    +0.000 A 
ATOM     27  C   UNL     1       5.528   3.966  14.310  0.00  0.00    +0.000 A 
ENDBRANCH  21  22
ENDBRANCH   4  21
TORSDOF 4
ENDMDL
MODEL 6
REMARK VINA RESULT:      -7.3      1.878      7.088
REMARK  Name = 
REMARK  5 active torsions:
REMARK  status: ('A' for Active; 'I' for Inactive)
REMARK    1  A    between atoms: C_1  and  O_2
REMARK    2  A    between atoms: O_2  and  C_3
REMARK    3  A    between atoms: C_6  and  N_7
REMARK    4  A    between atoms: N_10  and  C_11
REMARK    5  A    between atoms: C_11  and  C_12
REMARK                            x       y       z     vdW  Elec       q    Type
REMARK                         _______ _______ _______ _____ _____    ______ ____
ROOT
ATOM      1  N   UNL     1       3.026   6.679  18.300  0.00  0.00    +0.000 N 
ATOM      2  C   UNL     1       2.627   8.003  18.042  0.00  0.00    +0.000 A 
ATOM      3  O   UNL     1       3.068   8.651  17.087  0.00  0.00    +0.000 OA
ATOM      4  N   UNL     1       1.749   8.600  18.981  0.00  0.00    +0.000 N 
ATOM      5  C   UNL     1       1.395   8.044  20.214  0.00  0.00    +0.000 A 
ATOM      6  O   UNL     1       0.738   8.603  21.076  0.00  0.00    +0.000 OA
ATOM      7  C   UNL     1       1.913   6.738  20.405  0.00  0.00    +0.000 A 
ATOM      8  N   UNL     1       1.802   5.896  21.475  0.00  0.00    +0.000 N 
ATOM      9  C   UNL     1       2.457   4.744  21.140  0.00  0.00    +0.000 A 
ATOM     10  N   UNL     1       2.981   4.819  19.934  0.00  0.00    +0.000 NA
ATOM     11  C   UNL     1       2.677   6.077  19.491  0.00  0.00    +0.000 A 
ATOM     12  H   UNL     1       1.333   6.098  22.348  0.00  0.00    +0.000 HD
ENDROOT
BRANCH   1  16
ATOM     13  C   UNL     1       5.450   4.339  15.733  0.00  0.00    +0.000 A 
ATOM     14  C   UNL     1       5.678   5.709  15.852  0.00  0.00    +0.000 A 
ATOM     15  C   UNL     1       4.878   6.487  16.691  0.00  0.00    +0.000 A 
ATOM     16  C   UNL     1       3.804   5.916  17.390  0.00  0.00    +0.000 A 
ATOM     17  C   UNL     1       3.539   4.552  17.212  0.00  0.00    +0.000 A 
ATOM     18  C   UNL     1       4.370   3.764  16.405  0.00  0.00    +0.000 A 
BRANCH  13  20
ATOM     19  C   UNL     1       6.375   4.135  13.573  0.00  0.00    +0.000 C 
ATOM     20  O   UNL     1       6.318   3.667  14.916  0.00  0.00    +0.000 OA
ENDBRANCH  13  20
ENDBRANCH   1  16
BRANCH   4  21
ATOM     21  C   UNL     1       1.363   9.989  18.766  0.00  0.00    +0.000 C 
BRANCH  21  22
ATOM     22  C   UNL     1      -0.112  10.228  18.503  0.00  0.00    +0.000 A 
ATOM     23  C   UNL     1      -0.832  11.179  19.244  0.00  0.00    +0.000 A 
ATOM     24  C   UNL     1      -2.143  11.519  18.892  0.00  0.00    +0.000 A 
ATOM     25  C   UNL     1      -2.749  10.902  17.794  0.00  0.00    +0.000 A 
ATOM     26  C   UNL     1      -2.060   9.927  17.075  0.00  0.00    +0.000 A 
ATOM     27  C   UNL     1      -0.754   9.582  17.434  0.00  0.00    +0.000 A 
ENDBRANCH  21  22
ENDBRANCH   4  21
TORSDOF 4
ENDMDL
MODEL 7
REMARK VINA RESULT:      -7.3      1.808      2.541
REMARK  Name = 
REMARK  5 active torsions:
REMARK  status: ('A' for Active; 'I' for Inactive)
REMARK    1  A    between atoms: C_1  and  O_2
REMARK    2  A    between atoms: O_2  and  C_3
REMARK    3  A    between atoms: C_6  and  N_7
REMARK    4  A    between atoms: N_10  and  C_11
REMARK    5  A    between atoms: C_11  and  C_12
REMARK                            x       y       z     vdW  Elec       q    Type
REMARK                         _______ _______ _______ _____ _____    ______ ____
ROOT
ATOM      1  N   UNL     1       2.356   6.383  19.253  0.00  0.00    +0.000 N 
ATOM      2  C   UNL     1       3.433   6.529  18.360  0.00  0.00    +0.000 A 
ATOM      3  O   UNL     1       3.752   7.624  17.883  0.00  0.00    +0.000 OA
ATOM      4  N   UNL     1       4.096   5.341  17.960  0.00  0.00    +0.000 N 
ATOM      5  C   UNL     1       3.657   4.044  18.242  0.00  0.00    +0.000 A 
ATOM      6  O   UNL     1       4.155   3.021  17.801  0.00  0.00    +0.000 OA
ATOM      7  C   UNL     1       2.520   4.013  19.088  0.00  0.00    +0.000 A 
ATOM      8  N   UNL     1       1.802   2.949  19.557  0.00  0.00    +0.000 N 
ATOM      9  C   UNL     1       0.821   3.459  20.360  0.00  0.00    +0.000 A 
ATOM     10  N   UNL     1       0.872   4.774  20.410  0.00  0.00    +0.000 NA
ATOM     11  C   UNL     1       1.906   5.122  19.584  0.00  0.00    +0.000 A 
ATOM     12  H   UNL     1       1.966   1.975  19.338  0.00  0.00    +0.000 HD
ENDROOT
BRANCH   1  16
ATOM     13  C   UNL     1       0.498   9.782  20.967  0.00  0.00    +0.000 A 
ATOM     14  C   UNL     1       0.917   8.730  21.781  0.00  0.00    +0.000 A 
ATOM     15  C   UNL     1       1.524   7.603  21.221  0.00  0.00    +0.000 A 
ATOM     16  C   UNL     1       1.678   7.489  19.832  0.00  0.00    +0.000 A 
ATOM     17  C   UNL     1       1.193   8.519  19.016  0.00  0.00    +0.000 A 
ATOM     18  C   UNL     1       0.625   9.667  19.582  0.00  0.00    +0.000 A 
BRANCH  13  20
ATOM     19  C   UNL     1      -0.691  10.547  22.855  0.00  0.00    +0.000 C 
ATOM     20  O   UNL     1      -0.047  10.852  21.623  0.00  0.00    +0.000 OA
ENDBRANCH  13  20
ENDBRANCH   1  16
BRANCH   4  21
ATOM     21  C   UNL     1       5.180   5.459  16.993  0.00  0.00    +0.000 C 
BRANCH  21  22
ATOM     22  C   UNL     1       6.427   6.168  17.488  0.00  0.00    +0.000 A 
ATOM     23  C   UNL     1       6.801   7.419  16.967  0.00  0.00    +0.000 A 
ATOM     24  C   UNL     1       7.849   8.148  17.538  0.00  0.00    +0.000 A 
ATOM     25  C   UNL     1       8.540   7.627  18.636  0.00  0.00    +0.000 A 
ATOM     26  C   UNL     1       8.207   6.369  19.136  0.00  0.00    +0.000 A 
ATOM     27  C   UNL     1       7.165   5.638  18.558  0.00  0.00    +0.000 A 
ENDBRANCH  21  22
ENDBRANCH   4  21
TORSDOF 4
ENDMDL
MODEL 8
REMARK VINA RESULT:      -7.2      3.046      4.933
REMARK  Name = 
REMARK  5 active torsions:
REMARK  status: ('A' for Active; 'I' for Inactive)
REMARK    1  A    between atoms: C_1  and  O_2
REMARK    2  A    between atoms: O_2  and  C_3
REMARK    3  A    between atoms: C_6  and  N_7
REMARK    4  A    between atoms: N_10  and  C_11
REMARK    5  A    between atoms: C_11  and  C_12
REMARK                            x       y       z     vdW  Elec       q    Type
REMARK                         _______ _______ _______ _____ _____    ______ ____
ROOT
ATOM      1  N   UNL     1       1.234  10.292  19.517  0.00  0.00    +0.000 N 
ATOM      2  C   UNL     1       1.691   9.316  18.611  0.00  0.00    +0.000 A 
ATOM      3  O   UNL     1       1.844   9.551  17.408  0.00  0.00    +0.000 OA
ATOM      4  N   UNL     1       1.892   8.011  19.128  0.00  0.00    +0.000 N 
ATOM      5  C   UNL     1       1.511   7.585  20.404  0.00  0.00    +0.000 A 
ATOM      6  O   UNL     1       1.572   6.437  20.811  0.00  0.00    +0.000 OA
ATOM      7  C   UNL     1       0.993   8.632  21.208  0.00  0.00    +0.000 A 
ATOM      8  N   UNL     1       0.504   8.602  22.484  0.00  0.00    +0.000 N 
ATOM      9  C   UNL     1       0.162   9.885  22.805  0.00  0.00    +0.000 A 
ATOM     10  N   UNL     1       0.393  10.712  21.807  0.00  0.00    +0.000 NA
ATOM     11  C   UNL     1       0.873   9.925  20.797  0.00  0.00    +0.000 A 
ATOM     12  H   UNL     1       0.408   7.780  23.066  0.00  0.00    +0.000 HD
ENDROOT
BRANCH   1  16
ATOM     13  C   UNL     1       0.819  14.422  18.675  0.00  0.00    +0.000 A 
ATOM     14  C   UNL     1      -0.257  13.557  18.476  0.00  0.00    +0.000 A 
ATOM     15  C   UNL     1      -0.123  12.193  18.745  0.00  0.00    +0.000 A 
ATOM     16  C   UNL     1       1.103  11.663  19.172  0.00  0.00    +0.000 A 
ATOM     17  C   UNL     1       2.197  12.527  19.303  0.00  0.00    +0.000 A 
ATOM     18  C   UNL     1       2.050  13.902  19.076  0.00  0.00    +0.000 A 
BRANCH  13  20
ATOM     19  C   UNL     1      -0.545  16.296  19.113  0.00  0.00    +0.000 C 
ATOM     20  O   UNL     1       0.566  15.742  18.418  0.00  0.00    +0.000 OA
ENDBRANCH  13  20
ENDBRANCH   1  16
BRANCH   4  21
ATOM     21  C   UNL     1       2.312   6.969  18.199  0.00  0.00    +0.000 C 
BRANCH  21  22
ATOM     22  C   UNL     1       3.794   6.642  18.205  0.00  0.00    +0.000 A 
ATOM     23  C   UNL     1       4.324   5.712  19.114  0.00  0.00    +0.000 A 
ATOM     24  C   UNL     1       5.652   5.286  19.010  0.00  0.00    +0.000 A 
ATOM     25  C   UNL     1       6.468   5.795  17.996  0.00  0.00    +0.000 A 
ATOM     26  C   UNL     1       5.966   6.750  17.113  0.00  0.00    +0.000 A 
ATOM     27  C   UNL     1       4.641   7.181  17.224  0.00  0.00    +0.000 A 
ENDBRANCH  21  22
ENDBRANCH   4  21
TORSDOF 4
ENDMDL
MODEL 9
REMARK VINA RESULT:      -7.1      4.289      9.990
REMARK  Name = 
REMARK  5 active torsions:
REMARK  status: ('A' for Active; 'I' for Inactive)
REMARK    1  A    between atoms: C_1  and  O_2
REMARK    2  A    between atoms: O_2  and  C_3
REMARK    3  A    between atoms: C_6  and  N_7
REMARK    4  A    between atoms: N_10  and  C_11
REMARK    5  A    between atoms: C_11  and  C_12
REMARK                            x       y       z     vdW  Elec       q    Type
REMARK                         _______ _______ _______ _____ _____    ______ ____
ROOT
ATOM      1  N   UNL     1       0.182  10.689  19.580  0.00  0.00    +0.000 N 
ATOM      2  C   UNL     1       0.383  11.481  20.726  0.00  0.00    +0.000 A 
ATOM      3  O   UNL     1       1.146  11.142  21.637  0.00  0.00    +0.000 OA
ATOM      4  N   UNL     1      -0.398  12.660  20.832  0.00  0.00    +0.000 N 
ATOM      5  C   UNL     1      -1.459  12.999  19.987  0.00  0.00    +0.000 A 
ATOM      6  O   UNL     1      -2.208  13.947  20.144  0.00  0.00    +0.000 OA
ATOM      7  C   UNL     1      -1.622  12.092  18.909  0.00  0.00    +0.000 A 
ATOM      8  N   UNL     1      -2.549  12.078  17.905  0.00  0.00    +0.000 N 
ATOM      9  C   UNL     1      -2.248  11.011  17.106  0.00  0.00    +0.000 A 
ATOM     10  N   UNL     1      -1.201  10.351  17.555  0.00  0.00    +0.000 NA
ATOM     11  C   UNL     1      -0.835  11.000  18.701  0.00  0.00    +0.000 A 
ATOM     12  H   UNL     1      -3.314  12.730  17.790  0.00  0.00    +0.000 HD
ENDROOT
BRANCH   1  16
ATOM     13  C   UNL     1       2.689   7.368  18.789  0.00  0.00    +0.000 A 
ATOM     14  C   UNL     1       2.503   8.350  17.817  0.00  0.00    +0.000 A 
ATOM     15  C   UNL     1       1.672   9.444  18.069  0.00  0.00    +0.000 A 
ATOM     16  C   UNL     1       0.974   9.549  19.281  0.00  0.00    +0.000 A 
ATOM     17  C   UNL     1       1.112   8.524  20.225  0.00  0.00    +0.000 A 
ATOM     18  C   UNL     1       1.980   7.450  19.988  0.00  0.00    +0.000 A 
BRANCH  13  20
ATOM     19  C   UNL     1       4.404   6.638  17.345  0.00  0.00    +0.000 C 
ATOM     20  O   UNL     1       3.554   6.363  18.452  0.00  0.00    +0.000 OA
ENDBRANCH  13  20
ENDBRANCH   1  16
BRANCH   4  21
ATOM     21  C   UNL     1      -0.248  13.469  22.035  0.00  0.00    +0.000 C 
BRANCH  21  22
ATOM     22  C   UNL     1      -1.396  13.394  23.024  0.00  0.00    +0.000 A 
ATOM     23  C   UNL     1      -1.760  14.512  23.793  0.00  0.00    +0.000 A 
ATOM     24  C   UNL     1      -2.919  14.495  24.577  0.00  0.00    +0.000 A 
ATOM     25  C   UNL     1      -3.722  13.351  24.605  0.00  0.00    +0.000 A 
ATOM     26  C   UNL     1      -3.350  12.221  23.879  0.00  0.00    +0.000 A 
ATOM     27  C   UNL     1      -2.187  12.236  23.103  0.00  0.00    +0.000 A 
ENDBRANCH  21  22
ENDBRANCH   4  21
TORSDOF 4
ENDMDL
