MODEL 1
REMARK VINA RESULT:      -7.4      0.000      0.000
REMARK  Name = 
REMARK  3 active torsions:
REMARK  status: ('A' for Active; 'I' for Inactive)
REMARK    1  A    between atoms: C_4  and  N_5
REMARK    2  A    between atoms: N_19  and  C_20
REMARK    3  A    between atoms: C_20  and  C_21
REMARK                            x       y       z     vdW  Elec       q    Type
REMARK                         _______ _______ _______ _____ _____    ______ ____
ROOT
ATOM      1  O   UNL     1      -2.345  14.063  20.467  0.00  0.00    +0.000 OA
ATOM      2  C   UNL     1      -3.092  13.501  21.265  0.00  0.00    +0.000 C 
ATOM      3  C   UNL     1      -4.379  12.868  20.848  0.00  0.00    +0.000 C 
ATOM      4  C   UNL     1      -4.398  12.358  19.599  0.00  0.00    +0.000 C 
ATOM      5  C   UNL     1      -5.451  12.714  21.845  0.00  0.00    +0.000 A 
ATOM      6  C   UNL     1      -6.751  12.280  21.532  0.00  0.00    +0.000 A 
ATOM      7  C   UNL     1      -7.730  12.167  22.526  0.00  0.00    +0.000 A 
ATOM      8  C   UNL     1      -7.437  12.515  23.842  0.00  0.00    +0.000 A 
ATOM      9  C   UNL     1      -6.156  12.949  24.170  0.00  0.00    +0.000 A 
ATOM     10  C   UNL     1      -5.165  13.027  23.183  0.00  0.00    +0.000 A 
ATOM     11  C   UNL     1      -3.767  13.339  23.594  0.00  0.00    +0.000 C 
ATOM     12  O   UNL     1      -3.531  13.577  24.777  0.00  0.00    +0.000 OA
ATOM     13  N   UNL     1      -2.800  13.332  22.603  0.00  0.00    +0.000 N 
ENDROOT
BRANCH   4  14
ATOM     14  N   UNL     1      -3.398  12.400  18.648  0.00  0.00    +0.000 N 
ATOM     15  C   UNL     1      -3.029  11.452  17.776  0.00  0.00    +0.000 A 
ATOM     16  N   UNL     1      -3.708  10.265  17.689  0.00  0.00    +0.000 NA
ATOM     17  C   UNL     1      -3.079   9.624  16.735  0.00  0.00    +0.000 A 
ATOM     18  N   UNL     1      -2.050  10.386  16.287  0.00  0.00    +0.000 N 
ATOM     19  N   UNL     1      -1.998  11.558  16.932  0.00  0.00    +0.000 NA
ATOM     20  H   UNL     1      -2.885  13.282  18.604  0.00  0.00    +0.000 HD
ATOM     21  H   UNL     1      -1.368  10.185  15.565  0.00  0.00    +0.000 HD
ENDBRANCH   4  14
BRANCH  13  22
ATOM     22  C   UNL     1      -1.403  13.241  22.978  0.00  0.00    +0.000 C 
BRANCH  22  23
ATOM     23  C   UNL     1      -0.854  11.894  22.519  0.00  0.00    +0.000 A 
ATOM     24  C   UNL     1      -1.175  10.711  23.205  0.00  0.00    +0.000 A 
ATOM     25  C   UNL     1      -0.593   9.495  22.835  0.00  0.00    +0.000 A 
ATOM     26  C   UNL     1       0.321   9.450  21.781  0.00  0.00    +0.000 A 
ATOM     27  C   UNL     1       0.650  10.619  21.097  0.00  0.00    +0.000 A 
ATOM     28  C   UNL     1       0.068  11.833  21.464  0.00  0.00    +0.000 A 
ENDBRANCH  22  23
ENDBRANCH  13  22
TORSDOF 3
ENDMDL
MODEL 2
REMARK VINA RESULT:      -7.2      0.647      1.143
REMARK  Name = 
REMARK  3 active torsions:
REMARK  status: ('A' for Active; 'I' for Inactive)
REMARK    1  A    between atoms: C_4  and  N_5
REMARK    2  A    between atoms: N_19  and  C_20
REMARK    3  A    between atoms: C_20  and  C_21
REMARK                            x       y       z     vdW  Elec       q    Type
REMARK                         _______ _______ _______ _____ _____    ______ ____
ROOT
ATOM      1  O   UNL     1      -1.999  13.758  20.093  0.00  0.00    +0.000 OA
ATOM      2  C   UNL     1      -2.771  13.294  20.930  0.00  0.00    +0.000 C 
ATOM      3  C   UNL     1      -4.077  12.674  20.558  0.00  0.00    +0.000 C 
ATOM      4  C   UNL     1      -4.107  12.057  19.358  0.00  0.00    +0.000 C 
ATOM      5  C   UNL     1      -5.160  12.646  21.554  0.00  0.00    +0.000 A 
ATOM      6  C   UNL     1      -6.473  12.233  21.269  0.00  0.00    +0.000 A 
ATOM      7  C   UNL     1      -7.461  12.242  22.260  0.00  0.00    +0.000 A 
ATOM      8  C   UNL     1      -7.164  12.694  23.543  0.00  0.00    +0.000 A 
ATOM      9  C   UNL     1      -5.870  13.109  23.844  0.00  0.00    +0.000 A 
ATOM     10  C   UNL     1      -4.871  13.065  22.863  0.00  0.00    +0.000 A 
ATOM     11  C   UNL     1      -3.465  13.361  23.258  0.00  0.00    +0.000 C 
ATOM     12  O   UNL     1      -3.227  13.693  24.418  0.00  0.00    +0.000 OA
ATOM     13  N   UNL     1      -2.493  13.233  22.280  0.00  0.00    +0.000 N 
ENDROOT
BRANCH   4  14
ATOM     14  N   UNL     1      -3.101  11.980  18.416  0.00  0.00    +0.000 N 
ATOM     15  C   UNL     1      -3.133  11.425  17.198  0.00  0.00    +0.000 A 
ATOM     16  N   UNL     1      -4.288  10.886  16.694  0.00  0.00    +0.000 NA
ATOM     17  C   UNL     1      -3.936  10.469  15.503  0.00  0.00    +0.000 A 
ATOM     18  N   UNL     1      -2.617  10.725  15.312  0.00  0.00    +0.000 N 
ATOM     19  N   UNL     1      -2.083  11.337  16.376  0.00  0.00    +0.000 NA
ATOM     20  H   UNL     1      -2.221  12.420  18.692  0.00  0.00    +0.000 HD
ATOM     21  H   UNL     1      -2.033  10.526  14.508  0.00  0.00    +0.000 HD
ENDBRANCH   4  14
BRANCH  13  22
ATOM     22  C   UNL     1      -1.103  13.126  22.675  0.00  0.00    +0.000 C 
BRANCH  22  23
ATOM     23  C   UNL     1      -0.613  11.712  22.380  0.00  0.00    +0.000 A 
ATOM     24  C   UNL     1       0.205  11.447  21.268  0.00  0.00    +0.000 A 
ATOM     25  C   UNL     1       0.571  10.135  20.953  0.00  0.00    +0.000 A 
ATOM     26  C   UNL     1       0.119   9.075  21.740  0.00  0.00    +0.000 A 
ATOM     27  C   UNL     1      -0.697   9.326  22.841  0.00  0.00    +0.000 A 
ATOM     28  C   UNL     1      -1.062  10.635  23.159  0.00  0.00    +0.000 A 
ENDBRANCH  22  23
ENDBRANCH  13  22
TORSDOF 3
ENDMDL
MODEL 3
REMARK VINA RESULT:      -7.1      7.204      9.858
REMARK  Name = 
REMARK  3 active torsions:
REMARK  status: ('A' for Active; 'I' for Inactive)
REMARK    1  A    between atoms: C_4  and  N_5
REMARK    2  A    between atoms: N_19  and  C_20
REMARK    3  A    between atoms: C_20  and  C_21
REMARK                            x       y       z     vdW  Elec       q    Type
REMARK                         _______ _______ _______ _____ _____    ______ ____
ROOT
ATOM      1  O   UNL     1       4.502   5.245  19.761  0.00  0.00    +0.000 OA
ATOM      2  C   UNL     1       3.506   5.952  19.619  0.00  0.00    +0.000 C 
ATOM      3  C   UNL     1       3.290   6.797  18.407  0.00  0.00    +0.000 C 
ATOM      4  C   UNL     1       3.805   6.309  17.259  0.00  0.00    +0.000 C 
ATOM      5  C   UNL     1       2.429   7.986  18.513  0.00  0.00    +0.000 A 
ATOM      6  C   UNL     1       2.280   8.936  17.489  0.00  0.00    +0.000 A 
ATOM      7  C   UNL     1       1.454  10.054  17.658  0.00  0.00    +0.000 A 
ATOM      8  C   UNL     1       0.790  10.259  18.864  0.00  0.00    +0.000 A 
ATOM      9  C   UNL     1       0.927   9.330  19.892  0.00  0.00    +0.000 A 
ATOM     10  C   UNL     1       1.723   8.191  19.710  0.00  0.00    +0.000 A 
ATOM     11  C   UNL     1       1.721   7.139  20.765  0.00  0.00    +0.000 C 
ATOM     12  O   UNL     1       1.069   7.322  21.791  0.00  0.00    +0.000 OA
ATOM     13  N   UNL     1       2.459   5.994  20.517  0.00  0.00    +0.000 N 
ENDROOT
BRANCH   4  14
ATOM     14  N   UNL     1       4.551   5.162  17.082  0.00  0.00    +0.000 N 
ATOM     15  C   UNL     1       5.346   4.827  16.056  0.00  0.00    +0.000 A 
ATOM     16  N   UNL     1       5.568   5.695  15.019  0.00  0.00    +0.000 NA
ATOM     17  C   UNL     1       6.392   5.036  14.242  0.00  0.00    +0.000 A 
ATOM     18  N   UNL     1       6.632   3.813  14.779  0.00  0.00    +0.000 N 
ATOM     19  N   UNL     1       5.980   3.656  15.938  0.00  0.00    +0.000 NA
ATOM     20  H   UNL     1       4.491   4.488  17.848  0.00  0.00    +0.000 HD
ATOM     21  H   UNL     1       7.214   3.061  14.431  0.00  0.00    +0.000 HD
ENDBRANCH   4  14
BRANCH  13  22
ATOM     22  C   UNL     1       2.196   4.801  21.297  0.00  0.00    +0.000 C 
BRANCH  22  23
ATOM     23  C   UNL     1       1.951   3.633  20.346  0.00  0.00    +0.000 A 
ATOM     24  C   UNL     1       2.949   2.674  20.106  0.00  0.00    +0.000 A 
ATOM     25  C   UNL     1       2.748   1.662  19.163  0.00  0.00    +0.000 A 
ATOM     26  C   UNL     1       1.552   1.601  18.446  0.00  0.00    +0.000 A 
ATOM     27  C   UNL     1       0.558   2.550  18.673  0.00  0.00    +0.000 A 
ATOM     28  C   UNL     1       0.755   3.561  19.616  0.00  0.00    +0.000 A 
ENDBRANCH  22  23
ENDBRANCH  13  22
TORSDOF 3
ENDMDL
MODEL 4
REMARK VINA RESULT:      -7.0      2.667      6.035
REMARK  Name = 
REMARK  3 active torsions:
REMARK  status: ('A' for Active; 'I' for Inactive)
REMARK    1  A    between atoms: C_4  and  N_5
REMARK    2  A    between atoms: N_19  and  C_20
REMARK    3  A    between atoms: C_20  and  C_21
REMARK                            x       y       z     vdW  Elec       q    Type
REMARK                         _______ _______ _______ _____ _____    ______ ____
ROOT
ATOM      1  O   UNL     1      -1.146  11.466  21.750  0.00  0.00    +0.000 OA
ATOM      2  C   UNL     1      -1.250  11.438  20.526  0.00  0.00    +0.000 C 
ATOM      3  C   UNL     1      -2.474  11.914  19.816  0.00  0.00    +0.000 C 
ATOM      4  C   UNL     1      -3.141  12.920  20.417  0.00  0.00    +0.000 C 
ATOM      5  C   UNL     1      -2.775  11.375  18.478  0.00  0.00    +0.000 A 
ATOM      6  C   UNL     1      -3.971  11.629  17.786  0.00  0.00    +0.000 A 
ATOM      7  C   UNL     1      -4.201  11.075  16.521  0.00  0.00    +0.000 A 
ATOM      8  C   UNL     1      -3.255  10.234  15.941  0.00  0.00    +0.000 A 
ATOM      9  C   UNL     1      -2.064   9.970  16.612  0.00  0.00    +0.000 A 
ATOM     10  C   UNL     1      -1.817  10.554  17.862  0.00  0.00    +0.000 A 
ATOM     11  C   UNL     1      -0.472  10.382  18.480  0.00  0.00    +0.000 C 
ATOM     12  O   UNL     1       0.364   9.686  17.907  0.00  0.00    +0.000 OA
ATOM     13  N   UNL     1      -0.239  11.036  19.678  0.00  0.00    +0.000 N 
ENDROOT
BRANCH   4  14
ATOM     14  N   UNL     1      -2.863  13.520  21.629  0.00  0.00    +0.000 N 
ATOM     15  C   UNL     1      -3.531  13.423  22.786  0.00  0.00    +0.000 A 
ATOM     16  N   UNL     1      -4.616  12.594  22.912  0.00  0.00    +0.000 NA
ATOM     17  C   UNL     1      -4.977  12.753  24.161  0.00  0.00    +0.000 A 
ATOM     18  N   UNL     1      -4.158  13.658  24.752  0.00  0.00    +0.000 N 
ATOM     19  N   UNL     1      -3.225  14.098  23.898  0.00  0.00    +0.000 NA
ATOM     20  H   UNL     1      -2.027  14.106  21.635  0.00  0.00    +0.000 HD
ATOM     21  H   UNL     1      -4.167  14.010  25.702  0.00  0.00    +0.000 HD
ENDBRANCH   4  14
BRANCH  13  22
ATOM     22  C   UNL     1       1.127  11.229  20.123  0.00  0.00    +0.000 C 
BRANCH  22  23
ATOM     23  C   UNL     1       1.605  12.604  19.669  0.00  0.00    +0.000 A 
ATOM     24  C   UNL     1       1.257  13.763  20.383  0.00  0.00    +0.000 A 
ATOM     25  C   UNL     1       1.621  15.026  19.908  0.00  0.00    +0.000 A 
ATOM     26  C   UNL     1       2.329  15.145  18.711  0.00  0.00    +0.000 A 
ATOM     27  C   UNL     1       2.675  14.003  17.992  0.00  0.00    +0.000 A 
ATOM     28  C   UNL     1       2.314  12.741  18.466  0.00  0.00    +0.000 A 
ENDBRANCH  22  23
ENDBRANCH  13  22
TORSDOF 3
ENDMDL
MODEL 5
REMARK VINA RESULT:      -6.9      1.975      6.472
REMARK  Name = 
REMARK  3 active torsions:
REMARK  status: ('A' for Active; 'I' for Inactive)
REMARK    1  A    between atoms: C_4  and  N_5
REMARK    2  A    between atoms: N_19  and  C_20
REMARK    3  A    between atoms: C_20  and  C_21
REMARK                            x       y       z     vdW  Elec       q    Type
REMARK                         _______ _______ _______ _____ _____    ______ ____
ROOT
ATOM      1  O   UNL     1      -2.696  14.141  20.985  0.00  0.00    +0.000 OA
ATOM      2  C   UNL     1      -2.361  12.959  20.955  0.00  0.00    +0.000 C 
ATOM      3  C   UNL     1      -1.957  12.211  22.183  0.00  0.00    +0.000 C 
ATOM      4  C   UNL     1      -2.560  12.599  23.326  0.00  0.00    +0.000 C 
ATOM      5  C   UNL     1      -1.074  11.041  22.044  0.00  0.00    +0.000 A 
ATOM      6  C   UNL     1      -0.505  10.358  23.132  0.00  0.00    +0.000 A 
ATOM      7  C   UNL     1       0.338   9.259  22.931  0.00  0.00    +0.000 A 
ATOM      8  C   UNL     1       0.653   8.843  21.641  0.00  0.00    +0.000 A 
ATOM      9  C   UNL     1       0.100   9.508  20.549  0.00  0.00    +0.000 A 
ATOM     10  C   UNL     1      -0.774  10.584  20.750  0.00  0.00    +0.000 A 
ATOM     11  C   UNL     1      -1.472  11.170  19.571  0.00  0.00    +0.000 C 
ATOM     12  O   UNL     1      -1.220  10.734  18.450  0.00  0.00    +0.000 OA
ATOM     13  N   UNL     1      -2.385  12.182  19.816  0.00  0.00    +0.000 N 
ENDROOT
BRANCH   4  14
ATOM     14  N   UNL     1      -3.455  13.634  23.505  0.00  0.00    +0.000 N 
ATOM     15  C   UNL     1      -4.768  13.573  23.763  0.00  0.00    +0.000 A 
ATOM     16  N   UNL     1      -5.398  12.370  23.956  0.00  0.00    +0.000 NA
ATOM     17  C   UNL     1      -6.639  12.712  24.198  0.00  0.00    +0.000 A 
ATOM     18  N   UNL     1      -6.753  14.063  24.127  0.00  0.00    +0.000 N 
ATOM     19  N   UNL     1      -5.574  14.635  23.855  0.00  0.00    +0.000 NA
ATOM     20  H   UNL     1      -3.048  14.569  23.442  0.00  0.00    +0.000 HD
ATOM     21  H   UNL     1      -7.571  14.647  24.255  0.00  0.00    +0.000 HD
ENDBRANCH   4  14
BRANCH  13  22
ATOM     22  C   UNL     1      -3.359  12.517  18.796  0.00  0.00    +0.000 C 
BRANCH  22  23
ATOM     23  C   UNL     1      -4.698  11.885  19.163  0.00  0.00    +0.000 A 
ATOM     24  C   UNL     1      -5.277  10.896  18.352  0.00  0.00    +0.000 A 
ATOM     25  C   UNL     1      -6.547  10.391  18.646  0.00  0.00    +0.000 A 
ATOM     26  C   UNL     1      -7.254  10.874  19.748  0.00  0.00    +0.000 A 
ATOM     27  C   UNL     1      -6.691  11.860  20.555  0.00  0.00    +0.000 A 
ATOM     28  C   UNL     1      -5.422  12.364  20.265  0.00  0.00    +0.000 A 
ENDBRANCH  22  23
ENDBRANCH  13  22
TORSDOF 3
ENDMDL
MODEL 6
REMARK VINA RESULT:      -6.9      2.406      6.911
REMARK  Name = 
REMARK  3 active torsions:
REMARK  status: ('A' for Active; 'I' for Inactive)
REMARK    1  A    between atoms: C_4  and  N_5
REMARK    2  A    between atoms: N_19  and  C_20
REMARK    3  A    between atoms: C_20  and  C_21
REMARK                            x       y       z     vdW  Elec       q    Type
REMARK                         _______ _______ _______ _____ _____    ______ ____
ROOT
ATOM      1  O   UNL     1      -4.691  14.004  20.323  0.00  0.00    +0.000 OA
ATOM      2  C   UNL     1      -4.187  12.986  19.852  0.00  0.00    +0.000 C 
ATOM      3  C   UNL     1      -2.961  12.359  20.430  0.00  0.00    +0.000 C 
ATOM      4  C   UNL     1      -2.807  12.502  21.762  0.00  0.00    +0.000 C 
ATOM      5  C   UNL     1      -2.111  11.527  19.561  0.00  0.00    +0.000 A 
ATOM      6  C   UNL     1      -0.860  11.019  19.948  0.00  0.00    +0.000 A 
ATOM      7  C   UNL     1      -0.094  10.244  19.069  0.00  0.00    +0.000 A 
ATOM      8  C   UNL     1      -0.550   9.991  17.779  0.00  0.00    +0.000 A 
ATOM      9  C   UNL     1      -1.787  10.488  17.375  0.00  0.00    +0.000 A 
ATOM     10  C   UNL     1      -2.571  11.232  18.267  0.00  0.00    +0.000 A 
ATOM     11  C   UNL     1      -3.954  11.611  17.861  0.00  0.00    +0.000 C 
ATOM     12  O   UNL     1      -4.349  11.313  16.737  0.00  0.00    +0.000 OA
ATOM     13  N   UNL     1      -4.726  12.279  18.797  0.00  0.00    +0.000 N 
ENDROOT
BRANCH   4  14
ATOM     14  N   UNL     1      -3.611  13.200  22.641  0.00  0.00    +0.000 N 
ATOM     15  C   UNL     1      -3.250  13.984  23.665  0.00  0.00    +0.000 A 
ATOM     16  N   UNL     1      -1.930  14.247  23.928  0.00  0.00    +0.000 NA
ATOM     17  C   UNL     1      -1.980  15.046  24.965  0.00  0.00    +0.000 A 
ATOM     18  N   UNL     1      -3.274  15.233  25.325  0.00  0.00    +0.000 N 
ATOM     19  N   UNL     1      -4.105  14.570  24.510  0.00  0.00    +0.000 NA
ATOM     20  H   UNL     1      -4.614  13.109  22.470  0.00  0.00    +0.000 HD
ATOM     21  H   UNL     1      -3.658  15.785  26.083  0.00  0.00    +0.000 HD
ENDBRANCH   4  14
BRANCH  13  22
ATOM     22  C   UNL     1      -6.163  12.330  18.620  0.00  0.00    +0.000 C 
BRANCH  22  23
ATOM     23  C   UNL     1      -6.799  11.188  19.408  0.00  0.00    +0.000 A 
ATOM     24  C   UNL     1      -7.413  11.421  20.650  0.00  0.00    +0.000 A 
ATOM     25  C   UNL     1      -7.909  10.356  21.407  0.00  0.00    +0.000 A 
ATOM     26  C   UNL     1      -7.790   9.048  20.936  0.00  0.00    +0.000 A 
ATOM     27  C   UNL     1      -7.177   8.805  19.708  0.00  0.00    +0.000 A 
ATOM     28  C   UNL     1      -6.683   9.868  18.949  0.00  0.00    +0.000 A 
ENDBRANCH  22  23
ENDBRANCH  13  22
TORSDOF 3
ENDMDL
MODEL 7
REMARK VINA RESULT:      -6.8      3.986      7.302
REMARK  Name = 
REMARK  3 active torsions:
REMARK  status: ('A' for Active; 'I' for Inactive)
REMARK    1  A    between atoms: C_4  and  N_5
REMARK    2  A    between atoms: N_19  and  C_20
REMARK    3  A    between atoms: C_20  and  C_21
REMARK                            x       y       z     vdW  Elec       q    Type
REMARK                         _______ _______ _______ _____ _____    ______ ____
ROOT
ATOM      1  O   UNL     1       0.073   9.389  20.114  0.00  0.00    +0.000 OA
ATOM      2  C   UNL     1       0.188  10.469  19.537  0.00  0.00    +0.000 C 
ATOM      3  C   UNL     1       1.436  10.864  18.819  0.00  0.00    +0.000 C 
ATOM      4  C   UNL     1       2.134   9.851  18.266  0.00  0.00    +0.000 C 
ATOM      5  C   UNL     1       1.729  12.296  18.638  0.00  0.00    +0.000 A 
ATOM      6  C   UNL     1       2.941  12.785  18.121  0.00  0.00    +0.000 A 
ATOM      7  C   UNL     1       3.162  14.161  17.987  0.00  0.00    +0.000 A 
ATOM      8  C   UNL     1       2.191  15.071  18.396  0.00  0.00    +0.000 A 
ATOM      9  C   UNL     1       0.985  14.605  18.912  0.00  0.00    +0.000 A 
ATOM     10  C   UNL     1       0.747  13.228  19.012  0.00  0.00    +0.000 A 
ATOM     11  C   UNL     1      -0.609  12.762  19.416  0.00  0.00    +0.000 C 
ATOM     12  O   UNL     1      -1.465  13.595  19.707  0.00  0.00    +0.000 OA
ATOM     13  N   UNL     1      -0.829  11.395  19.431  0.00  0.00    +0.000 N 
ENDROOT
BRANCH   4  14
ATOM     14  N   UNL     1       1.867   8.499  18.332  0.00  0.00    +0.000 N 
ATOM     15  C   UNL     1       2.656   7.470  17.993  0.00  0.00    +0.000 A 
ATOM     16  N   UNL     1       3.944   7.673  17.569  0.00  0.00    +0.000 NA
ATOM     17  C   UNL     1       4.388   6.459  17.355  0.00  0.00    +0.000 A 
ATOM     18  N   UNL     1       3.399   5.568  17.616  0.00  0.00    +0.000 N 
ATOM     19  N   UNL     1       2.285   6.186  18.027  0.00  0.00    +0.000 NA
ATOM     20  H   UNL     1       0.945   8.261  18.703  0.00  0.00    +0.000 HD
ATOM     21  H   UNL     1       3.409   4.557  17.546  0.00  0.00    +0.000 HD
ENDBRANCH   4  14
BRANCH  13  22
ATOM     22  C   UNL     1      -2.191  10.899  19.432  0.00  0.00    +0.000 C 
BRANCH  22  23
ATOM     23  C   UNL     1      -2.689  10.818  17.992  0.00  0.00    +0.000 A 
ATOM     24  C   UNL     1      -3.852  11.497  17.590  0.00  0.00    +0.000 A 
ATOM     25  C   UNL     1      -4.352  11.341  16.295  0.00  0.00    +0.000 A 
ATOM     26  C   UNL     1      -3.702  10.501  15.390  0.00  0.00    +0.000 A 
ATOM     27  C   UNL     1      -2.551   9.819  15.780  0.00  0.00    +0.000 A 
ATOM     28  C   UNL     1      -2.049   9.974  17.073  0.00  0.00    +0.000 A 
ENDBRANCH  22  23
ENDBRANCH  13  22
TORSDOF 3
ENDMDL
MODEL 8
REMARK VINA RESULT:      -6.8      6.821      9.455
REMARK  Name = 
REMARK  3 active torsions:
REMARK  status: ('A' for Active; 'I' for Inactive)
REMARK    1  A    between atoms: C_4  and  N_5
REMARK    2  A    between atoms: N_19  and  C_20
REMARK    3  A    between atoms: C_20  and  C_21
REMARK                            x       y       z     vdW  Elec       q    Type
REMARK                         _______ _______ _______ _____ _____    ______ ____
ROOT
ATOM      1  O   UNL     1       4.170   5.765  19.590  0.00  0.00    +0.000 OA
ATOM      2  C   UNL     1       3.153   6.454  19.520  0.00  0.00    +0.000 C 
ATOM      3  C   UNL     1       2.954   7.479  18.452  0.00  0.00    +0.000 C 
ATOM      4  C   UNL     1       3.533   7.203  17.266  0.00  0.00    +0.000 C 
ATOM      5  C   UNL     1       2.043   8.607  18.711  0.00  0.00    +0.000 A 
ATOM      6  C   UNL     1       1.898   9.707  17.849  0.00  0.00    +0.000 A 
ATOM      7  C   UNL     1       1.024  10.754  18.160  0.00  0.00    +0.000 A 
ATOM      8  C   UNL     1       0.304  10.737  19.351  0.00  0.00    +0.000 A 
ATOM      9  C   UNL     1       0.436   9.657  20.220  0.00  0.00    +0.000 A 
ATOM     10  C   UNL     1       1.282   8.590  19.892  0.00  0.00    +0.000 A 
ATOM     11  C   UNL     1       1.279   7.379  20.760  0.00  0.00    +0.000 C 
ATOM     12  O   UNL     1       0.580   7.370  21.771  0.00  0.00    +0.000 OA
ATOM     13  N   UNL     1       2.071   6.314  20.363  0.00  0.00    +0.000 N 
ENDROOT
BRANCH   4  14
ATOM     14  N   UNL     1       4.330   6.125  16.939  0.00  0.00    +0.000 N 
ATOM     15  C   UNL     1       5.667   6.038  16.939  0.00  0.00    +0.000 A 
ATOM     16  N   UNL     1       6.445   7.084  17.363  0.00  0.00    +0.000 NA
ATOM     17  C   UNL     1       7.666   6.624  17.239  0.00  0.00    +0.000 A 
ATOM     18  N   UNL     1       7.621   5.365  16.736  0.00  0.00    +0.000 N 
ATOM     19  N   UNL     1       6.358   4.966  16.539  0.00  0.00    +0.000 NA
ATOM     20  H   UNL     1       3.820   5.280  16.673  0.00  0.00    +0.000 HD
ATOM     21  H   UNL     1       8.382   4.733  16.514  0.00  0.00    +0.000 HD
ENDBRANCH   4  14
BRANCH  13  22
ATOM     22  C   UNL     1       1.824   5.002  20.926  0.00  0.00    +0.000 C 
BRANCH  22  23
ATOM     23  C   UNL     1       2.020   3.952  19.837  0.00  0.00    +0.000 A 
ATOM     24  C   UNL     1       2.830   2.825  20.056  0.00  0.00    +0.000 A 
ATOM     25  C   UNL     1       3.079   1.918  19.022  0.00  0.00    +0.000 A 
ATOM     26  C   UNL     1       2.529   2.131  17.758  0.00  0.00    +0.000 A 
ATOM     27  C   UNL     1       1.729   3.248  17.528  0.00  0.00    +0.000 A 
ATOM     28  C   UNL     1       1.477   4.154  18.559  0.00  0.00    +0.000 A 
ENDBRANCH  22  23
ENDBRANCH  13  22
TORSDOF 3
ENDMDL
MODEL 9
REMARK VINA RESULT:      -6.7      6.910     10.124
REMARK  Name = 
REMARK  3 active torsions:
REMARK  status: ('A' for Active; 'I' for Inactive)
REMARK    1  A    between atoms: C_4  and  N_5
REMARK    2  A    between atoms: N_19  and  C_20
REMARK    3  A    between atoms: C_20  and  C_21
REMARK                            x       y       z     vdW  Elec       q    Type
REMARK                         _______ _______ _______ _____ _____    ______ ____
ROOT
ATOM      1  O   UNL     1       3.276   7.814  17.737  0.00  0.00    +0.000 OA
ATOM      2  C   UNL     1       3.045   6.736  18.280  0.00  0.00    +0.000 C 
ATOM      3  C   UNL     1       3.513   5.437  17.712  0.00  0.00    +0.000 C 
ATOM      4  C   UNL     1       4.673   5.487  17.026  0.00  0.00    +0.000 C 
ATOM      5  C   UNL     1       2.782   4.206  18.056  0.00  0.00    +0.000 A 
ATOM      6  C   UNL     1       3.033   2.957  17.462  0.00  0.00    +0.000 A 
ATOM      7  C   UNL     1       2.292   1.826  17.825  0.00  0.00    +0.000 A 
ATOM      8  C   UNL     1       1.269   1.929  18.763  0.00  0.00    +0.000 A 
ATOM      9  C   UNL     1       1.004   3.158  19.362  0.00  0.00    +0.000 A 
ATOM     10  C   UNL     1       1.770   4.283  19.027  0.00  0.00    +0.000 A 
ATOM     11  C   UNL     1       1.570   5.542  19.799  0.00  0.00    +0.000 C 
ATOM     12  O   UNL     1       0.701   5.578  20.667  0.00  0.00    +0.000 OA
ATOM     13  N   UNL     1       2.396   6.609  19.491  0.00  0.00    +0.000 N 
ENDROOT
BRANCH   4  14
ATOM     14  N   UNL     1       5.444   6.595  16.739  0.00  0.00    +0.000 N 
ATOM     15  C   UNL     1       6.559   7.022  17.347  0.00  0.00    +0.000 A 
ATOM     16  N   UNL     1       7.133   6.303  18.363  0.00  0.00    +0.000 NA
ATOM     17  C   UNL     1       8.188   7.011  18.679  0.00  0.00    +0.000 A 
ATOM     18  N   UNL     1       8.230   8.123  17.902  0.00  0.00    +0.000 N 
ATOM     19  N   UNL     1       7.205   8.152  17.042  0.00  0.00    +0.000 NA
ATOM     20  H   UNL     1       5.118   7.151  15.947  0.00  0.00    +0.000 HD
ATOM     21  H   UNL     1       8.907   8.877  17.894  0.00  0.00    +0.000 HD
ENDBRANCH   4  14
BRANCH  13  22
ATOM     22  C   UNL     1       2.521   7.701  20.436  0.00  0.00    +0.000 C 
BRANCH  22  23
ATOM     23  C   UNL     1       1.328   8.637  20.271  0.00  0.00    +0.000 A 
ATOM     24  C   UNL     1       1.105   9.319  19.063  0.00  0.00    +0.000 A 
ATOM     25  C   UNL     1       0.065  10.245  18.953  0.00  0.00    +0.000 A 
ATOM     26  C   UNL     1      -0.759  10.506  20.049  0.00  0.00    +0.000 A 
ATOM     27  C   UNL     1      -0.543   9.840  21.253  0.00  0.00    +0.000 A 
ATOM     28  C   UNL     1       0.494   8.913  21.365  0.00  0.00    +0.000 A 
ENDBRANCH  22  23
ENDBRANCH  13  22
TORSDOF 3
ENDMDL
