MODEL 1
REMARK VINA RESULT:      -7.7      0.000      0.000
REMARK  Name = 
REMARK  5 active torsions:
REMARK  status: ('A' for Active; 'I' for Inactive)
REMARK    1  A    between atoms: C_1  and  C_2
REMARK    2  A    between atoms: C_5  and  S_6
REMARK    3  A    between atoms: S_6  and  C_7
REMARK    4  A    between atoms: C_7  and  C_8
REMARK    5  A    between atoms: C_17  and  C_18
REMARK                            x       y       z     vdW  Elec       q    Type
REMARK                         _______ _______ _______ _____ _____    ______ ____
ROOT
ATOM      1  C   UNL     1       4.110   4.706  19.292  0.00  0.00    +0.000 C 
ATOM      2  O   UNL     1       4.527   3.586  19.602  0.00  0.00    +0.000 OA
ATOM      3  N   UNL     1       3.129   5.249  20.083  0.00  0.00    +0.000 N 
ATOM      4  C   UNL     1       2.510   6.431  19.818  0.00  0.00    +0.000 A 
ATOM      5  N   UNL     1       2.590   7.115  18.710  0.00  0.00    +0.000 NA
ATOM      6  C   UNL     1       1.937   8.304  18.867  0.00  0.00    +0.000 A 
ATOM      7  C   UNL     1       1.358   8.500  20.104  0.00  0.00    +0.000 A 
ATOM      8  S   UNL     1       1.572   7.110  21.074  0.00  0.00    +0.000 S 
ATOM      9  C   UNL     1       0.696   9.763  20.542  0.00  0.00    +0.000 C 
ATOM     10  C   UNL     1       0.372  10.661  19.317  0.00  0.00    +0.000 C 
ATOM     11  C   UNL     1      -0.936  10.227  18.649  0.00  0.00    +0.000 C 
ATOM     12  C   UNL     1       1.541  10.685  18.299  0.00  0.00    +0.000 C 
ATOM     13  C   UNL     1       1.899   9.294  17.761  0.00  0.00    +0.000 C 
ATOM     14  H   UNL     1       2.875   4.741  20.918  0.00  0.00    +0.000 HD
ENDROOT
BRANCH   1  15
ATOM     15  C   UNL     1       4.669   5.525  18.115  0.00  0.00    +0.000 C 
BRANCH  15  16
ATOM     16  S   UNL     1       6.473   5.392  18.003  0.00  0.00    +0.000 S 
BRANCH  16  21
ATOM     17  C   UNL     1       6.410   3.653  12.760  0.00  0.00    +0.000 C 
ATOM     18  C   UNL     1       6.679   4.353  14.046  0.00  0.00    +0.000 A 
ATOM     19  N   UNL     1       7.545   5.327  14.222  0.00  0.00    +0.000 NA
ATOM     20  N   UNL     1       7.568   5.772  15.539  0.00  0.00    +0.000 NA
ATOM     21  C   UNL     1       6.716   5.116  16.295  0.00  0.00    +0.000 A 
ATOM     22  S   UNL     1       5.825   3.907  15.461  0.00  0.00    +0.000 S 
ENDBRANCH  16  21
ENDBRANCH  15  16
ENDBRANCH   1  15
TORSDOF 3
ENDMDL
MODEL 2
REMARK VINA RESULT:      -6.9      3.466      4.645
REMARK  Name = 
REMARK  5 active torsions:
REMARK  status: ('A' for Active; 'I' for Inactive)
REMARK    1  A    between atoms: C_1  and  C_2
REMARK    2  A    between atoms: C_5  and  S_6
REMARK    3  A    between atoms: S_6  and  C_7
REMARK    4  A    between atoms: C_7  and  C_8
REMARK    5  A    between atoms: C_17  and  C_18
REMARK                            x       y       z     vdW  Elec       q    Type
REMARK                         _______ _______ _______ _____ _____    ______ ____
ROOT
ATOM      1  C   UNL     1       5.814   6.528  17.009  0.00  0.00    +0.000 C 
ATOM      2  O   UNL     1       6.510   7.473  16.627  0.00  0.00    +0.000 OA
ATOM      3  N   UNL     1       4.849   6.802  17.947  0.00  0.00    +0.000 N 
ATOM      4  C   UNL     1       4.067   5.853  18.528  0.00  0.00    +0.000 A 
ATOM      5  N   UNL     1       4.234   4.560  18.454  0.00  0.00    +0.000 NA
ATOM      6  C   UNL     1       3.181   3.936  19.058  0.00  0.00    +0.000 A 
ATOM      7  C   UNL     1       2.225   4.775  19.593  0.00  0.00    +0.000 A 
ATOM      8  S   UNL     1       2.708   6.403  19.404  0.00  0.00    +0.000 S 
ATOM      9  C   UNL     1       0.937   4.323  20.194  0.00  0.00    +0.000 C 
ATOM     10  C   UNL     1       0.992   2.805  20.519  0.00  0.00    +0.000 C 
ATOM     11  C   UNL     1       1.686   2.556  21.862  0.00  0.00    +0.000 C 
ATOM     12  C   UNL     1       1.667   1.999  19.379  0.00  0.00    +0.000 C 
ATOM     13  C   UNL     1       3.103   2.453  19.090  0.00  0.00    +0.000 C 
ATOM     14  H   UNL     1       4.709   7.770  18.196  0.00  0.00    +0.000 HD
ENDROOT
BRANCH   1  15
ATOM     15  C   UNL     1       5.941   5.098  16.454  0.00  0.00    +0.000 C 
BRANCH  15  16
ATOM     16  S   UNL     1       7.423   4.908  15.427  0.00  0.00    +0.000 S 
BRANCH  16  21
ATOM     17  C   UNL     1       4.300   2.991  11.293  0.00  0.00    +0.000 C 
ATOM     18  C   UNL     1       5.395   3.530  12.145  0.00  0.00    +0.000 A 
ATOM     19  N   UNL     1       6.611   3.819  11.738  0.00  0.00    +0.000 NA
ATOM     20  N   UNL     1       7.405   4.304  12.772  0.00  0.00    +0.000 NA
ATOM     21  C   UNL     1       6.750   4.361  13.910  0.00  0.00    +0.000 A 
ATOM     22  S   UNL     1       5.120   3.828  13.808  0.00  0.00    +0.000 S 
ENDBRANCH  16  21
ENDBRANCH  15  16
ENDBRANCH   1  15
TORSDOF 3
ENDMDL
MODEL 3
REMARK VINA RESULT:      -6.9      3.051      7.776
REMARK  Name = 
REMARK  5 active torsions:
REMARK  status: ('A' for Active; 'I' for Inactive)
REMARK    1  A    between atoms: C_1  and  C_2
REMARK    2  A    between atoms: C_5  and  S_6
REMARK    3  A    between atoms: S_6  and  C_7
REMARK    4  A    between atoms: C_7  and  C_8
REMARK    5  A    between atoms: C_17  and  C_18
REMARK                            x       y       z     vdW  Elec       q    Type
REMARK                         _______ _______ _______ _____ _____    ______ ____
ROOT
ATOM      1  C   UNL     1       1.492   8.058  20.259  0.00  0.00    +0.000 C 
ATOM      2  O   UNL     1       0.797   8.402  21.220  0.00  0.00    +0.000 OA
ATOM      3  N   UNL     1       2.099   6.829  20.335  0.00  0.00    +0.000 N 
ATOM      4  C   UNL     1       2.962   6.352  19.398  0.00  0.00    +0.000 A 
ATOM      5  N   UNL     1       3.498   7.032  18.422  0.00  0.00    +0.000 NA
ATOM      6  C   UNL     1       4.207   6.184  17.619  0.00  0.00    +0.000 A 
ATOM      7  C   UNL     1       4.202   4.861  18.010  0.00  0.00    +0.000 A 
ATOM      8  S   UNL     1       3.349   4.690  19.479  0.00  0.00    +0.000 S 
ATOM      9  C   UNL     1       4.807   3.743  17.229  0.00  0.00    +0.000 C 
ATOM     10  C   UNL     1       5.787   4.294  16.158  0.00  0.00    +0.000 C 
ATOM     11  C   UNL     1       7.160   4.586  16.770  0.00  0.00    +0.000 C 
ATOM     12  C   UNL     1       5.212   5.545  15.445  0.00  0.00    +0.000 C 
ATOM     13  C   UNL     1       4.898   6.696  16.409  0.00  0.00    +0.000 C 
ATOM     14  H   UNL     1       1.866   6.247  21.127  0.00  0.00    +0.000 HD
ENDROOT
BRANCH   1  15
ATOM     15  C   UNL     1       1.660   8.905  18.985  0.00  0.00    +0.000 C 
BRANCH  15  16
ATOM     16  S   UNL     1       1.087  10.607  19.232  0.00  0.00    +0.000 S 
BRANCH  16  21
ATOM     17  C   UNL     1      -4.055  11.521  17.432  0.00  0.00    +0.000 C 
ATOM     18  C   UNL     1      -2.688  10.991  17.689  0.00  0.00    +0.000 A 
ATOM     19  N   UNL     1      -2.163   9.922  17.130  0.00  0.00    +0.000 NA
ATOM     20  N   UNL     1      -0.868   9.685  17.576  0.00  0.00    +0.000 NA
ATOM     21  C   UNL     1      -0.474  10.586  18.448  0.00  0.00    +0.000 A 
ATOM     22  S   UNL     1      -1.651  11.790  18.792  0.00  0.00    +0.000 S 
ENDBRANCH  16  21
ENDBRANCH  15  16
ENDBRANCH   1  15
TORSDOF 3
ENDMDL
MODEL 4
REMARK VINA RESULT:      -6.9      3.290      7.740
REMARK  Name = 
REMARK  5 active torsions:
REMARK  status: ('A' for Active; 'I' for Inactive)
REMARK    1  A    between atoms: C_1  and  C_2
REMARK    2  A    between atoms: C_5  and  S_6
REMARK    3  A    between atoms: S_6  and  C_7
REMARK    4  A    between atoms: C_7  and  C_8
REMARK    5  A    between atoms: C_17  and  C_18
REMARK                            x       y       z     vdW  Elec       q    Type
REMARK                         _______ _______ _______ _____ _____    ______ ____
ROOT
ATOM      1  C   UNL     1       1.609   7.969  20.195  0.00  0.00    +0.000 C 
ATOM      2  O   UNL     1       0.933   8.292  21.178  0.00  0.00    +0.000 OA
ATOM      3  N   UNL     1       2.201   6.732  20.223  0.00  0.00    +0.000 N 
ATOM      4  C   UNL     1       3.045   6.274  19.259  0.00  0.00    +0.000 A 
ATOM      5  N   UNL     1       3.574   6.979  18.296  0.00  0.00    +0.000 NA
ATOM      6  C   UNL     1       4.260   6.148  17.457  0.00  0.00    +0.000 A 
ATOM      7  C   UNL     1       4.245   4.813  17.806  0.00  0.00    +0.000 A 
ATOM      8  S   UNL     1       3.412   4.607  19.282  0.00  0.00    +0.000 S 
ATOM      9  C   UNL     1       4.824   3.713  16.981  0.00  0.00    +0.000 C 
ATOM     10  C   UNL     1       5.794   4.286  15.913  0.00  0.00    +0.000 C 
ATOM     11  C   UNL     1       7.181   4.543  16.512  0.00  0.00    +0.000 C 
ATOM     12  C   UNL     1       5.224   5.566  15.248  0.00  0.00    +0.000 C 
ATOM     13  C   UNL     1       4.939   6.689  16.252  0.00  0.00    +0.000 C 
ATOM     14  H   UNL     1       1.974   6.129  21.000  0.00  0.00    +0.000 HD
ENDROOT
BRANCH   1  15
ATOM     15  C   UNL     1       1.767   8.854  18.946  0.00  0.00    +0.000 C 
BRANCH  15  16
ATOM     16  S   UNL     1       0.467  10.112  18.846  0.00  0.00    +0.000 S 
BRANCH  16  21
ATOM     17  C   UNL     1       3.234  14.733  20.074  0.00  0.00    +0.000 C 
ATOM     18  C   UNL     1       2.432  13.479  20.103  0.00  0.00    +0.000 A 
ATOM     19  N   UNL     1       1.930  12.915  21.180  0.00  0.00    +0.000 NA
ATOM     20  N   UNL     1       1.231  11.752  20.881  0.00  0.00    +0.000 NA
ATOM     21  C   UNL     1       1.234  11.493  19.593  0.00  0.00    +0.000 A 
ATOM     22  S   UNL     1       2.090  12.645  18.648  0.00  0.00    +0.000 S 
ENDBRANCH  16  21
ENDBRANCH  15  16
ENDBRANCH   1  15
TORSDOF 3
ENDMDL
MODEL 5
REMARK VINA RESULT:      -6.7      3.770      8.606
REMARK  Name = 
REMARK  5 active torsions:
REMARK  status: ('A' for Active; 'I' for Inactive)
REMARK    1  A    between atoms: C_1  and  C_2
REMARK    2  A    between atoms: C_5  and  S_6
REMARK    3  A    between atoms: S_6  and  C_7
REMARK    4  A    between atoms: C_7  and  C_8
REMARK    5  A    between atoms: C_17  and  C_18
REMARK                            x       y       z     vdW  Elec       q    Type
REMARK                         _______ _______ _______ _____ _____    ______ ____
ROOT
ATOM      1  C   UNL     1       2.102   9.316  18.170  0.00  0.00    +0.000 C 
ATOM      2  O   UNL     1       2.195  10.351  17.503  0.00  0.00    +0.000 OA
ATOM      3  N   UNL     1       2.844   8.238  17.758  0.00  0.00    +0.000 N 
ATOM      4  C   UNL     1       2.779   7.008  18.335  0.00  0.00    +0.000 A 
ATOM      5  N   UNL     1       1.889   6.606  19.201  0.00  0.00    +0.000 NA
ATOM      6  C   UNL     1       2.225   5.359  19.645  0.00  0.00    +0.000 A 
ATOM      7  C   UNL     1       3.374   4.827  19.095  0.00  0.00    +0.000 A 
ATOM      8  S   UNL     1       4.006   5.894  17.921  0.00  0.00    +0.000 S 
ATOM      9  C   UNL     1       3.995   3.536  19.510  0.00  0.00    +0.000 C 
ATOM     10  C   UNL     1       2.985   2.681  20.322  0.00  0.00    +0.000 C 
ATOM     11  C   UNL     1       2.046   1.909  19.391  0.00  0.00    +0.000 C 
ATOM     12  C   UNL     1       2.187   3.544  21.334  0.00  0.00    +0.000 C 
ATOM     13  C   UNL     1       1.393   4.674  20.666  0.00  0.00    +0.000 C 
ATOM     14  H   UNL     1       3.487   8.385  16.993  0.00  0.00    +0.000 HD
ENDROOT
BRANCH   1  15
ATOM     15  C   UNL     1       1.250   9.201  19.447  0.00  0.00    +0.000 C 
BRANCH  15  16
ATOM     16  S   UNL     1      -0.357  10.018  19.256  0.00  0.00    +0.000 S 
BRANCH  16  21
ATOM     17  C   UNL     1      -1.509  13.387  23.479  0.00  0.00    +0.000 C 
ATOM     18  C   UNL     1      -1.050  12.274  22.603  0.00  0.00    +0.000 A 
ATOM     19  N   UNL     1      -0.408  11.199  23.004  0.00  0.00    +0.000 NA
ATOM     20  N   UNL     1      -0.114  10.344  21.948  0.00  0.00    +0.000 NA
ATOM     21  C   UNL     1      -0.551  10.812  20.800  0.00  0.00    +0.000 A 
ATOM     22  S   UNL     1      -1.350  12.328  20.919  0.00  0.00    +0.000 S 
ENDBRANCH  16  21
ENDBRANCH  15  16
ENDBRANCH   1  15
TORSDOF 3
ENDMDL
MODEL 6
REMARK VINA RESULT:      -6.6      3.257      7.881
REMARK  Name = 
REMARK  5 active torsions:
REMARK  status: ('A' for Active; 'I' for Inactive)
REMARK    1  A    between atoms: C_1  and  C_2
REMARK    2  A    between atoms: C_5  and  S_6
REMARK    3  A    between atoms: S_6  and  C_7
REMARK    4  A    between atoms: C_7  and  C_8
REMARK    5  A    between atoms: C_17  and  C_18
REMARK                            x       y       z     vdW  Elec       q    Type
REMARK                         _______ _______ _______ _____ _____    ______ ____
ROOT
ATOM      1  C   UNL     1       1.388   8.375  20.135  0.00  0.00    +0.000 C 
ATOM      2  O   UNL     1       0.692   8.801  21.061  0.00  0.00    +0.000 OA
ATOM      3  N   UNL     1       2.029   7.178  20.334  0.00  0.00    +0.000 N 
ATOM      4  C   UNL     1       2.897   6.627  19.444  0.00  0.00    +0.000 A 
ATOM      5  N   UNL     1       3.408   7.214  18.396  0.00  0.00    +0.000 NA
ATOM      6  C   UNL     1       4.133   6.305  17.680  0.00  0.00    +0.000 A 
ATOM      7  C   UNL     1       4.167   5.030  18.208  0.00  0.00    +0.000 A 
ATOM      8  S   UNL     1       3.330   4.994  19.697  0.00  0.00    +0.000 S 
ATOM      9  C   UNL     1       4.796   3.852  17.544  0.00  0.00    +0.000 C 
ATOM     10  C   UNL     1       5.752   4.312  16.411  0.00  0.00    +0.000 C 
ATOM     11  C   UNL     1       7.123   4.704  16.973  0.00  0.00    +0.000 C 
ATOM     12  C   UNL     1       5.138   5.465  15.575  0.00  0.00    +0.000 C 
ATOM     13  C   UNL     1       4.800   6.702  16.415  0.00  0.00    +0.000 C 
ATOM     14  H   UNL     1       1.819   6.678  21.185  0.00  0.00    +0.000 HD
ENDROOT
BRANCH   1  15
ATOM     15  C   UNL     1       1.522   9.086  18.776  0.00  0.00    +0.000 C 
BRANCH  15  16
ATOM     16  S   UNL     1       1.344  10.882  18.940  0.00  0.00    +0.000 S 
BRANCH  16  21
ATOM     17  C   UNL     1      -3.990  10.644  17.523  0.00  0.00    +0.000 C 
ATOM     18  C   UNL     1      -2.666  10.987  18.111  0.00  0.00    +0.000 A 
ATOM     19  N   UNL     1      -2.435  11.961  18.964  0.00  0.00    +0.000 NA
ATOM     20  N   UNL     1      -1.095  12.028  19.327  0.00  0.00    +0.000 NA
ATOM     21  C   UNL     1      -0.377  11.100  18.735  0.00  0.00    +0.000 A 
ATOM     22  S   UNL     1      -1.278  10.077  17.689  0.00  0.00    +0.000 S 
ENDBRANCH  16  21
ENDBRANCH  15  16
ENDBRANCH   1  15
TORSDOF 3
ENDMDL
MODEL 7
REMARK VINA RESULT:      -6.6      3.203      7.562
REMARK  Name = 
REMARK  5 active torsions:
REMARK  status: ('A' for Active; 'I' for Inactive)
REMARK    1  A    between atoms: C_1  and  C_2
REMARK    2  A    between atoms: C_5  and  S_6
REMARK    3  A    between atoms: S_6  and  C_7
REMARK    4  A    between atoms: C_7  and  C_8
REMARK    5  A    between atoms: C_17  and  C_18
REMARK                            x       y       z     vdW  Elec       q    Type
REMARK                         _______ _______ _______ _____ _____    ______ ____
ROOT
ATOM      1  C   UNL     1       1.577   7.955  20.307  0.00  0.00    +0.000 C 
ATOM      2  O   UNL     1       0.894   8.265  21.289  0.00  0.00    +0.000 OA
ATOM      3  N   UNL     1       2.155   6.710  20.316  0.00  0.00    +0.000 N 
ATOM      4  C   UNL     1       3.003   6.263  19.351  0.00  0.00    +0.000 A 
ATOM      5  N   UNL     1       3.551   6.981  18.409  0.00  0.00    +0.000 NA
ATOM      6  C   UNL     1       4.236   6.160  17.559  0.00  0.00    +0.000 A 
ATOM      7  C   UNL     1       4.202   4.818  17.880  0.00  0.00    +0.000 A 
ATOM      8  S   UNL     1       3.351   4.591  19.343  0.00  0.00    +0.000 S 
ATOM      9  C   UNL     1       4.777   3.729  17.039  0.00  0.00    +0.000 C 
ATOM     10  C   UNL     1       5.765   4.312  15.993  0.00  0.00    +0.000 C 
ATOM     11  C   UNL     1       7.148   4.541  16.612  0.00  0.00    +0.000 C 
ATOM     12  C   UNL     1       5.217   5.612  15.349  0.00  0.00    +0.000 C 
ATOM     13  C   UNL     1       4.934   6.718  16.373  0.00  0.00    +0.000 C 
ATOM     14  H   UNL     1       1.912   6.094  21.077  0.00  0.00    +0.000 HD
ENDROOT
BRANCH   1  15
ATOM     15  C   UNL     1       1.759   8.864  19.078  0.00  0.00    +0.000 C 
BRANCH  15  16
ATOM     16  S   UNL     1       0.382  10.028  18.896  0.00  0.00    +0.000 S 
BRANCH  16  21
ATOM     17  C   UNL     1       2.020  15.303  18.859  0.00  0.00    +0.000 C 
ATOM     18  C   UNL     1       1.900  13.828  18.705  0.00  0.00    +0.000 A 
ATOM     19  N   UNL     1       2.793  13.040  18.146  0.00  0.00    +0.000 NA
ATOM     20  N   UNL     1       2.389  11.710  18.151  0.00  0.00    +0.000 NA
ATOM     21  C   UNL     1       1.213  11.554  18.716  0.00  0.00    +0.000 A 
ATOM     22  S   UNL     1       0.508  13.015  19.282  0.00  0.00    +0.000 S 
ENDBRANCH  16  21
ENDBRANCH  15  16
ENDBRANCH   1  15
TORSDOF 3
ENDMDL
MODEL 8
REMARK VINA RESULT:      -6.6      3.739      8.158
REMARK  Name = 
REMARK  5 active torsions:
REMARK  status: ('A' for Active; 'I' for Inactive)
REMARK    1  A    between atoms: C_1  and  C_2
REMARK    2  A    between atoms: C_5  and  S_6
REMARK    3  A    between atoms: S_6  and  C_7
REMARK    4  A    between atoms: C_7  and  C_8
REMARK    5  A    between atoms: C_17  and  C_18
REMARK                            x       y       z     vdW  Elec       q    Type
REMARK                         _______ _______ _______ _____ _____    ______ ____
ROOT
ATOM      1  C   UNL     1       2.102   9.349  18.169  0.00  0.00    +0.000 C 
ATOM      2  O   UNL     1       2.212  10.396  17.524  0.00  0.00    +0.000 OA
ATOM      3  N   UNL     1       2.902   8.299  17.797  0.00  0.00    +0.000 N 
ATOM      4  C   UNL     1       2.832   7.059  18.353  0.00  0.00    +0.000 A 
ATOM      5  N   UNL     1       1.895   6.620  19.149  0.00  0.00    +0.000 NA
ATOM      6  C   UNL     1       2.234   5.377  19.599  0.00  0.00    +0.000 A 
ATOM      7  C   UNL     1       3.434   4.885  19.126  0.00  0.00    +0.000 A 
ATOM      8  S   UNL     1       4.116   5.986  18.014  0.00  0.00    +0.000 S 
ATOM      9  C   UNL     1       4.062   3.606  19.569  0.00  0.00    +0.000 C 
ATOM     10  C   UNL     1       3.022   2.712  20.296  0.00  0.00    +0.000 C 
ATOM     11  C   UNL     1       2.174   1.927  19.291  0.00  0.00    +0.000 C 
ATOM     12  C   UNL     1       2.129   3.537  21.259  0.00  0.00    +0.000 C 
ATOM     13  C   UNL     1       1.352   4.654  20.550  0.00  0.00    +0.000 C 
ATOM     14  H   UNL     1       3.593   8.475  17.082  0.00  0.00    +0.000 HD
ENDROOT
BRANCH   1  15
ATOM     15  C   UNL     1       1.165   9.192  19.380  0.00  0.00    +0.000 C 
BRANCH  15  16
ATOM     16  S   UNL     1       0.813  10.787  20.167  0.00  0.00    +0.000 S 
BRANCH  16  21
ATOM     17  C   UNL     1      -3.915  11.180  17.337  0.00  0.00    +0.000 C 
ATOM     18  C   UNL     1      -2.802  11.319  18.316  0.00  0.00    +0.000 A 
ATOM     19  N   UNL     1      -2.802  12.107  19.369  0.00  0.00    +0.000 NA
ATOM     20  N   UNL     1      -1.616  12.014  20.088  0.00  0.00    +0.000 NA
ATOM     21  C   UNL     1      -0.778  11.158  19.548  0.00  0.00    +0.000 A 
ATOM     22  S   UNL     1      -1.369  10.403  18.122  0.00  0.00    +0.000 S 
ENDBRANCH  16  21
ENDBRANCH  15  16
ENDBRANCH   1  15
TORSDOF 3
ENDMDL
MODEL 9
REMARK VINA RESULT:      -6.5      1.642      2.530
REMARK  Name = 
REMARK  5 active torsions:
REMARK  status: ('A' for Active; 'I' for Inactive)
REMARK    1  A    between atoms: C_1  and  C_2
REMARK    2  A    between atoms: C_5  and  S_6
REMARK    3  A    between atoms: S_6  and  C_7
REMARK    4  A    between atoms: C_7  and  C_8
REMARK    5  A    between atoms: C_17  and  C_18
REMARK                            x       y       z     vdW  Elec       q    Type
REMARK                         _______ _______ _______ _____ _____    ______ ____
ROOT
ATOM      1  C   UNL     1       3.451   3.278  18.059  0.00  0.00    +0.000 C 
ATOM      2  O   UNL     1       3.662   2.064  18.127  0.00  0.00    +0.000 OA
ATOM      3  N   UNL     1       2.793   3.859  19.114  0.00  0.00    +0.000 N 
ATOM      4  C   UNL     1       2.411   5.164  19.142  0.00  0.00    +0.000 A 
ATOM      5  N   UNL     1       2.417   5.995  18.135  0.00  0.00    +0.000 NA
ATOM      6  C   UNL     1       2.088   7.243  18.580  0.00  0.00    +0.000 A 
ATOM      7  C   UNL     1       1.827   7.338  19.932  0.00  0.00    +0.000 A 
ATOM      8  S   UNL     1       1.917   5.792  20.652  0.00  0.00    +0.000 S 
ATOM      9  C   UNL     1       1.563   8.613  20.659  0.00  0.00    +0.000 C 
ATOM     10  C   UNL     1       1.208   9.746  19.659  0.00  0.00    +0.000 C 
ATOM     11  C   UNL     1      -0.271   9.686  19.263  0.00  0.00    +0.000 C 
ATOM     12  C   UNL     1       2.125   9.716  18.409  0.00  0.00    +0.000 C 
ATOM     13  C   UNL     1       2.050   8.391  17.640  0.00  0.00    +0.000 C 
ATOM     14  H   UNL     1       2.605   3.277  19.917  0.00  0.00    +0.000 HD
ENDROOT
BRANCH   1  15
ATOM     15  C   UNL     1       3.930   4.160  16.891  0.00  0.00    +0.000 C 
BRANCH  15  16
ATOM     16  S   UNL     1       5.580   3.675  16.320  0.00  0.00    +0.000 S 
BRANCH  16  21
ATOM     17  C   UNL     1       8.239   7.948  18.598  0.00  0.00    +0.000 C 
ATOM     18  C   UNL     1       7.659   6.934  17.675  0.00  0.00    +0.000 A 
ATOM     19  N   UNL     1       7.808   6.913  16.368  0.00  0.00    +0.000 NA
ATOM     20  N   UNL     1       7.143   5.840  15.786  0.00  0.00    +0.000 NA
ATOM     21  C   UNL     1       6.526   5.099  16.680  0.00  0.00    +0.000 A 
ATOM     22  S   UNL     1       6.707   5.654  18.296  0.00  0.00    +0.000 S 
ENDBRANCH  16  21
ENDBRANCH  15  16
ENDBRANCH   1  15
TORSDOF 3
ENDMDL
