MODEL 1
REMARK VINA RESULT:      -9.9      0.000      0.000
REMARK  Name = 
REMARK  3 active torsions:
REMARK  status: ('A' for Active; 'I' for Inactive)
REMARK    1  A    between atoms: C_2  and  C_3
REMARK    2  A    between atoms: C_9  and  C_10
REMARK    3  A    between atoms: C_22  and  C_23
REMARK                            x       y       z     vdW  Elec       q    Type
REMARK                         _______ _______ _______ _____ _____    ______ ____
ROOT
ATOM      1  O   UNL     1       1.469   9.553  17.477  0.00  0.00    +0.000 OA
ATOM      2  C   UNL     1       1.482   9.406  18.701  0.00  0.00    +0.000 C 
ATOM      3  N   UNL     1       1.065  10.412  19.579  0.00  0.00    +0.000 N 
ATOM      4  C   UNL     1       1.143  10.368  21.042  0.00  0.00    +0.000 C 
ATOM      5  C   UNL     1      -0.095  10.948  21.697  0.00  0.00    +0.000 C 
ATOM      6  C   UNL     1      -0.361  12.357  21.184  0.00  0.00    +0.000 C 
ATOM      7  C   UNL     1      -0.506  12.377  19.642  0.00  0.00    +0.000 C 
ATOM      8  C   UNL     1       0.735  11.725  19.018  0.00  0.00    +0.000 C 
ENDROOT
BRANCH   2   9
ATOM      9  C   UNL     1       1.861   8.057  19.214  0.00  0.00    +0.000 A 
ATOM     10  C   UNL     1       1.352   7.554  20.457  0.00  0.00    +0.000 A 
ATOM     11  C   UNL     1       1.548   6.229  20.908  0.00  0.00    +0.000 A 
ATOM     12  C   UNL     1       2.417   5.480  20.099  0.00  0.00    +0.000 A 
ATOM     13  N   UNL     1       2.845   4.216  20.233  0.00  0.00    +0.000 NA
ATOM     14  O   UNL     1       3.757   4.001  19.216  0.00  0.00    +0.000 OA
ATOM     15  C   UNL     1       3.890   5.120  18.438  0.00  0.00    +0.000 A 
ATOM     16  C   UNL     1       3.013   6.057  18.920  0.00  0.00    +0.000 A 
ATOM     17  C   UNL     1       2.762   7.327  18.402  0.00  0.00    +0.000 A 
BRANCH  15  18
ATOM     18  C   UNL     1       4.909   5.045  17.399  0.00  0.00    +0.000 A 
ATOM     19  C   UNL     1       4.791   4.128  16.343  0.00  0.00    +0.000 A 
ATOM     20  C   UNL     1       5.777   4.038  15.357  0.00  0.00    +0.000 A 
ATOM     21  C   UNL     1       6.896   4.864  15.415  0.00  0.00    +0.000 A 
ATOM     22  C   UNL     1       7.033   5.776  16.455  0.00  0.00    +0.000 A 
ATOM     23  C   UNL     1       6.053   5.857  17.448  0.00  0.00    +0.000 A 
ENDBRANCH  15  18
ENDBRANCH   2   9
BRANCH   7  24
ATOM     24  C   UNL     1      -1.886  11.888  19.249  0.00  0.00    +0.000 A 
ATOM     25  N   UNL     1      -2.962  12.291  19.916  0.00  0.00    +0.000 NA
ATOM     26  N   UNL     1      -4.074  12.074  19.163  0.00  0.00    +0.000 NA
ATOM     27  C   UNL     1      -3.687  11.500  18.051  0.00  0.00    +0.000 A 
ATOM     28  C   UNL     1      -4.414  11.121  16.888  0.00  0.00    +0.000 A 
ATOM     29  C   UNL     1      -3.799  10.419  15.924  0.00  0.00    +0.000 A 
ATOM     30  C   UNL     1      -2.405  10.033  16.055  0.00  0.00    +0.000 A 
ATOM     31  C   UNL     1      -1.692  10.466  17.113  0.00  0.00    +0.000 A 
ATOM     32  N   UNL     1      -2.316  11.236  18.098  0.00  0.00    +0.000 N 
ENDBRANCH   7  24
TORSDOF 3
ENDMDL
MODEL 2
REMARK VINA RESULT:      -9.8      1.061      1.847
REMARK  Name = 
REMARK  3 active torsions:
REMARK  status: ('A' for Active; 'I' for Inactive)
REMARK    1  A    between atoms: C_2  and  C_3
REMARK    2  A    between atoms: C_9  and  C_10
REMARK    3  A    between atoms: C_22  and  C_23
REMARK                            x       y       z     vdW  Elec       q    Type
REMARK                         _______ _______ _______ _____ _____    ______ ____
ROOT
ATOM      1  O   UNL     1       2.228   9.296  17.446  0.00  0.00    +0.000 OA
ATOM      2  C   UNL     1       1.909   8.975  18.594  0.00  0.00    +0.000 C 
ATOM      3  N   UNL     1       1.192   9.831  19.437  0.00  0.00    +0.000 N 
ATOM      4  C   UNL     1       0.861   9.580  20.842  0.00  0.00    +0.000 C 
ATOM      5  C   UNL     1      -0.549  10.019  21.183  0.00  0.00    +0.000 C 
ATOM      6  C   UNL     1      -0.762  11.478  20.801  0.00  0.00    +0.000 C 
ATOM      7  C   UNL     1      -0.471  11.715  19.298  0.00  0.00    +0.000 C 
ATOM      8  C   UNL     1       0.939  11.200  18.978  0.00  0.00    +0.000 C 
ENDROOT
BRANCH   2   9
ATOM      9  C   UNL     1       2.225   7.580  19.016  0.00  0.00    +0.000 A 
ATOM     10  C   UNL     1       1.700   7.023  20.228  0.00  0.00    +0.000 A 
ATOM     11  C   UNL     1       1.834   5.664  20.592  0.00  0.00    +0.000 A 
ATOM     12  C   UNL     1       2.662   4.927  19.730  0.00  0.00    +0.000 A 
ATOM     13  N   UNL     1       3.029   3.639  19.779  0.00  0.00    +0.000 NA
ATOM     14  O   UNL     1       3.924   3.446  18.743  0.00  0.00    +0.000 OA
ATOM     15  C   UNL     1       4.106   4.605  18.036  0.00  0.00    +0.000 A 
ATOM     16  C   UNL     1       3.278   5.550  18.585  0.00  0.00    +0.000 A 
ATOM     17  C   UNL     1       3.085   6.862  18.152  0.00  0.00    +0.000 A 
BRANCH  15  18
ATOM     18  C   UNL     1       5.115   4.548  16.986  0.00  0.00    +0.000 A 
ATOM     19  C   UNL     1       6.473   4.734  17.285  0.00  0.00    +0.000 A 
ATOM     20  C   UNL     1       7.441   4.703  16.278  0.00  0.00    +0.000 A 
ATOM     21  C   UNL     1       7.062   4.484  14.956  0.00  0.00    +0.000 A 
ATOM     22  C   UNL     1       5.721   4.300  14.639  0.00  0.00    +0.000 A 
ATOM     23  C   UNL     1       4.752   4.345  15.645  0.00  0.00    +0.000 A 
ENDBRANCH  15  18
ENDBRANCH   2   9
BRANCH   7  24
ATOM     24  C   UNL     1      -1.647  11.244  18.466  0.00  0.00    +0.000 A 
ATOM     25  N   UNL     1      -1.500  10.267  17.578  0.00  0.00    +0.000 NA
ATOM     26  N   UNL     1      -2.717   9.745  17.267  0.00  0.00    +0.000 NA
ATOM     27  C   UNL     1      -3.616  10.430  17.930  0.00  0.00    +0.000 A 
ATOM     28  C   UNL     1      -5.027  10.272  18.035  0.00  0.00    +0.000 A 
ATOM     29  C   UNL     1      -5.748  11.198  18.684  0.00  0.00    +0.000 A 
ATOM     30  C   UNL     1      -5.112  12.363  19.273  0.00  0.00    +0.000 A 
ATOM     31  C   UNL     1      -3.769  12.470  19.250  0.00  0.00    +0.000 A 
ATOM     32  N   UNL     1      -3.009  11.484  18.615  0.00  0.00    +0.000 N 
ENDBRANCH   7  24
TORSDOF 3
ENDMDL
MODEL 3
REMARK VINA RESULT:      -8.9      2.763      4.624
REMARK  Name = 
REMARK  3 active torsions:
REMARK  status: ('A' for Active; 'I' for Inactive)
REMARK    1  A    between atoms: C_2  and  C_3
REMARK    2  A    between atoms: C_9  and  C_10
REMARK    3  A    between atoms: C_22  and  C_23
REMARK                            x       y       z     vdW  Elec       q    Type
REMARK                         _______ _______ _______ _____ _____    ______ ____
ROOT
ATOM      1  O   UNL     1       1.111  10.577  21.582  0.00  0.00    +0.000 OA
ATOM      2  C   UNL     1       0.546  10.257  20.533  0.00  0.00    +0.000 C 
ATOM      3  N   UNL     1      -0.725  10.733  20.193  0.00  0.00    +0.000 N 
ATOM      4  C   UNL     1      -1.515  10.329  19.026  0.00  0.00    +0.000 C 
ATOM      5  C   UNL     1      -2.219  11.504  18.379  0.00  0.00    +0.000 C 
ATOM      6  C   UNL     1      -3.061  12.253  19.403  0.00  0.00    +0.000 C 
ATOM      7  C   UNL     1      -2.199  12.732  20.599  0.00  0.00    +0.000 C 
ATOM      8  C   UNL     1      -1.454  11.526  21.187  0.00  0.00    +0.000 C 
ENDROOT
BRANCH   2   9
ATOM      9  C   UNL     1       1.326   9.419  19.577  0.00  0.00    +0.000 A 
ATOM     10  C   UNL     1       1.874   9.967  18.370  0.00  0.00    +0.000 A 
ATOM     11  C   UNL     1       2.752   9.262  17.515  0.00  0.00    +0.000 A 
ATOM     12  C   UNL     1       2.928   7.916  17.871  0.00  0.00    +0.000 A 
ATOM     13  N   UNL     1       3.659   6.958  17.283  0.00  0.00    +0.000 NA
ATOM     14  O   UNL     1       3.412   5.791  17.984  0.00  0.00    +0.000 OA
ATOM     15  C   UNL     1       2.542   6.020  19.017  0.00  0.00    +0.000 A 
ATOM     16  C   UNL     1       2.262   7.362  19.023  0.00  0.00    +0.000 A 
ATOM     17  C   UNL     1       1.468   8.057  19.935  0.00  0.00    +0.000 A 
BRANCH  15  18
ATOM     18  C   UNL     1       2.123   4.837  19.758  0.00  0.00    +0.000 A 
ATOM     19  C   UNL     1       2.525   4.645  21.088  0.00  0.00    +0.000 A 
ATOM     20  C   UNL     1       2.143   3.502  21.796  0.00  0.00    +0.000 A 
ATOM     21  C   UNL     1       1.354   2.534  21.180  0.00  0.00    +0.000 A 
ATOM     22  C   UNL     1       0.948   2.705  19.862  0.00  0.00    +0.000 A 
ATOM     23  C   UNL     1       1.341   3.842  19.151  0.00  0.00    +0.000 A 
ENDBRANCH  15  18
ENDBRANCH   2   9
BRANCH   7  24
ATOM     24  C   UNL     1      -1.424  13.975  20.210  0.00  0.00    +0.000 A 
ATOM     25  N   UNL     1      -1.751  15.160  20.711  0.00  0.00    +0.000 NA
ATOM     26  N   UNL     1      -0.709  16.022  20.564  0.00  0.00    +0.000 NA
ATOM     27  C   UNL     1       0.243  15.379  19.934  0.00  0.00    +0.000 A 
ATOM     28  C   UNL     1       1.566  15.769  19.583  0.00  0.00    +0.000 A 
ATOM     29  C   UNL     1       2.310  14.962  18.812  0.00  0.00    +0.000 A 
ATOM     30  C   UNL     1       1.781  13.700  18.323  0.00  0.00    +0.000 A 
ATOM     31  C   UNL     1       0.562  13.291  18.724  0.00  0.00    +0.000 A 
ATOM     32  N   UNL     1      -0.199  14.107  19.565  0.00  0.00    +0.000 N 
ENDBRANCH   7  24
TORSDOF 3
ENDMDL
MODEL 4
REMARK VINA RESULT:      -8.9      3.148      5.173
REMARK  Name = 
REMARK  3 active torsions:
REMARK  status: ('A' for Active; 'I' for Inactive)
REMARK    1  A    between atoms: C_2  and  C_3
REMARK    2  A    between atoms: C_9  and  C_10
REMARK    3  A    between atoms: C_22  and  C_23
REMARK                            x       y       z     vdW  Elec       q    Type
REMARK                         _______ _______ _______ _____ _____    ______ ____
ROOT
ATOM      1  O   UNL     1       1.074  10.039  22.423  0.00  0.00    +0.000 OA
ATOM      2  C   UNL     1       0.538  10.192  21.323  0.00  0.00    +0.000 C 
ATOM      3  N   UNL     1      -0.543  11.058  21.133  0.00  0.00    +0.000 N 
ATOM      4  C   UNL     1      -1.308  11.225  19.893  0.00  0.00    +0.000 C 
ATOM      5  C   UNL     1      -1.644  12.678  19.622  0.00  0.00    +0.000 C 
ATOM      6  C   UNL     1      -2.359  13.293  20.817  0.00  0.00    +0.000 C 
ATOM      7  C   UNL     1      -1.510  13.167  22.107  0.00  0.00    +0.000 C 
ATOM      8  C   UNL     1      -1.136  11.693  22.313  0.00  0.00    +0.000 C 
ENDROOT
BRANCH   2   9
ATOM      9  C   UNL     1       1.165   9.491  20.166  0.00  0.00    +0.000 A 
ATOM     10  C   UNL     1       1.496  10.185  18.955  0.00  0.00    +0.000 A 
ATOM     11  C   UNL     1       2.235   9.610  17.895  0.00  0.00    +0.000 A 
ATOM     12  C   UNL     1       2.493   8.241  18.065  0.00  0.00    +0.000 A 
ATOM     13  N   UNL     1       3.135   7.379  17.263  0.00  0.00    +0.000 NA
ATOM     14  O   UNL     1       3.029   6.136  17.859  0.00  0.00    +0.000 OA
ATOM     15  C   UNL     1       2.337   6.219  19.038  0.00  0.00    +0.000 A 
ATOM     16  C   UNL     1       2.036   7.541  19.240  0.00  0.00    +0.000 A 
ATOM     17  C   UNL     1       1.391   8.105  20.341  0.00  0.00    +0.000 A 
BRANCH  15  18
ATOM     18  C   UNL     1       2.069   4.949  19.700  0.00  0.00    +0.000 A 
ATOM     19  C   UNL     1       1.429   3.905  19.016  0.00  0.00    +0.000 A 
ATOM     20  C   UNL     1       1.150   2.693  19.654  0.00  0.00    +0.000 A 
ATOM     21  C   UNL     1       1.508   2.511  20.987  0.00  0.00    +0.000 A 
ATOM     22  C   UNL     1       2.140   3.534  21.683  0.00  0.00    +0.000 A 
ATOM     23  C   UNL     1       2.407   4.750  21.048  0.00  0.00    +0.000 A 
ENDBRANCH  15  18
ENDBRANCH   2   9
BRANCH   7  24
ATOM     24  C   UNL     1      -0.423  14.224  22.114  0.00  0.00    +0.000 A 
ATOM     25  N   UNL     1      -0.481  15.248  22.956  0.00  0.00    +0.000 NA
ATOM     26  N   UNL     1       0.751  15.814  23.073  0.00  0.00    +0.000 NA
ATOM     27  C   UNL     1       1.557  15.163  22.271  0.00  0.00    +0.000 A 
ATOM     28  C   UNL     1       2.958  15.281  22.049  0.00  0.00    +0.000 A 
ATOM     29  C   UNL     1       3.532  14.576  21.064  0.00  0.00    +0.000 A 
ATOM     30  C   UNL     1       2.744  13.700  20.214  0.00  0.00    +0.000 A 
ATOM     31  C   UNL     1       1.435  13.521  20.478  0.00  0.00    +0.000 A 
ATOM     32  N   UNL     1       0.841  14.218  21.533  0.00  0.00    +0.000 N 
ENDBRANCH   7  24
TORSDOF 3
ENDMDL
MODEL 5
REMARK VINA RESULT:      -8.9      3.261      5.568
REMARK  Name = 
REMARK  3 active torsions:
REMARK  status: ('A' for Active; 'I' for Inactive)
REMARK    1  A    between atoms: C_2  and  C_3
REMARK    2  A    between atoms: C_9  and  C_10
REMARK    3  A    between atoms: C_22  and  C_23
REMARK                            x       y       z     vdW  Elec       q    Type
REMARK                         _______ _______ _______ _____ _____    ______ ____
ROOT
ATOM      1  O   UNL     1       0.863   9.909  22.698  0.00  0.00    +0.000 OA
ATOM      2  C   UNL     1       0.359  10.151  21.598  0.00  0.00    +0.000 C 
ATOM      3  N   UNL     1      -0.702  11.048  21.444  0.00  0.00    +0.000 N 
ATOM      4  C   UNL     1      -1.431  11.318  20.200  0.00  0.00    +0.000 C 
ATOM      5  C   UNL     1      -1.736  12.793  20.028  0.00  0.00    +0.000 C 
ATOM      6  C   UNL     1      -2.473  13.332  21.246  0.00  0.00    +0.000 C 
ATOM      7  C   UNL     1      -1.661  13.097  22.545  0.00  0.00    +0.000 C 
ATOM      8  C   UNL     1      -1.316  11.606  22.652  0.00  0.00    +0.000 C 
ENDROOT
BRANCH   2   9
ATOM      9  C   UNL     1       1.006   9.525  20.409  0.00  0.00    +0.000 A 
ATOM     10  C   UNL     1       1.318  10.286  19.233  0.00  0.00    +0.000 A 
ATOM     11  C   UNL     1       2.072   9.784  18.148  0.00  0.00    +0.000 A 
ATOM     12  C   UNL     1       2.369   8.416  18.252  0.00  0.00    +0.000 A 
ATOM     13  N   UNL     1       3.035   7.613  17.410  0.00  0.00    +0.000 NA
ATOM     14  O   UNL     1       2.965   6.339  17.945  0.00  0.00    +0.000 OA
ATOM     15  C   UNL     1       2.271   6.346  19.126  0.00  0.00    +0.000 A 
ATOM     16  C   UNL     1       1.932   7.648  19.391  0.00  0.00    +0.000 A 
ATOM     17  C   UNL     1       1.272   8.139  20.517  0.00  0.00    +0.000 A 
BRANCH  15  18
ATOM     18  C   UNL     1       2.039   5.038  19.725  0.00  0.00    +0.000 A 
ATOM     19  C   UNL     1       1.425   4.012  18.992  0.00  0.00    +0.000 A 
ATOM     20  C   UNL     1       1.181   2.763  19.570  0.00  0.00    +0.000 A 
ATOM     21  C   UNL     1       1.547   2.526  20.892  0.00  0.00    +0.000 A 
ATOM     22  C   UNL     1       2.154   3.530  21.637  0.00  0.00    +0.000 A 
ATOM     23  C   UNL     1       2.386   4.783  21.062  0.00  0.00    +0.000 A 
ENDBRANCH  15  18
ENDBRANCH   2   9
BRANCH   7  24
ATOM     24  C   UNL     1      -0.558  14.131  22.656  0.00  0.00    +0.000 A 
ATOM     25  N   UNL     1       0.690  13.828  22.320  0.00  0.00    +0.000 NA
ATOM     26  N   UNL     1       1.396  14.971  22.105  0.00  0.00    +0.000 NA
ATOM     27  C   UNL     1       0.594  15.977  22.352  0.00  0.00    +0.000 A 
ATOM     28  C   UNL     1       0.783  17.381  22.222  0.00  0.00    +0.000 A 
ATOM     29  C   UNL     1      -0.163  18.219  22.671  0.00  0.00    +0.000 A 
ATOM     30  C   UNL     1      -1.373  17.714  23.296  0.00  0.00    +0.000 A 
ATOM     31  C   UNL     1      -1.593  16.385  23.341  0.00  0.00    +0.000 A 
ATOM     32  N   UNL     1      -0.631  15.509  22.833  0.00  0.00    +0.000 N 
ENDBRANCH   7  24
TORSDOF 3
ENDMDL
MODEL 6
REMARK VINA RESULT:      -8.8      2.861      4.768
REMARK  Name = 
REMARK  3 active torsions:
REMARK  status: ('A' for Active; 'I' for Inactive)
REMARK    1  A    between atoms: C_2  and  C_3
REMARK    2  A    between atoms: C_9  and  C_10
REMARK    3  A    between atoms: C_22  and  C_23
REMARK                            x       y       z     vdW  Elec       q    Type
REMARK                         _______ _______ _______ _____ _____    ______ ____
ROOT
ATOM      1  O   UNL     1       1.200  10.541  21.737  0.00  0.00    +0.000 OA
ATOM      2  C   UNL     1       0.593  10.278  20.696  0.00  0.00    +0.000 C 
ATOM      3  N   UNL     1      -0.677  10.794  20.420  0.00  0.00    +0.000 N 
ATOM      4  C   UNL     1      -1.514  10.456  19.265  0.00  0.00    +0.000 C 
ATOM      5  C   UNL     1      -2.213  11.672  18.692  0.00  0.00    +0.000 C 
ATOM      6  C   UNL     1      -3.003  12.395  19.774  0.00  0.00    +0.000 C 
ATOM      7  C   UNL     1      -2.092  12.804  20.959  0.00  0.00    +0.000 C 
ATOM      8  C   UNL     1      -1.355  11.559  21.470  0.00  0.00    +0.000 C 
ENDROOT
BRANCH   2   9
ATOM      9  C   UNL     1       1.322   9.465  19.680  0.00  0.00    +0.000 A 
ATOM     10  C   UNL     1       1.806  10.043  18.459  0.00  0.00    +0.000 A 
ATOM     11  C   UNL     1       2.638   9.362  17.542  0.00  0.00    +0.000 A 
ATOM     12  C   UNL     1       2.833   8.007  17.855  0.00  0.00    +0.000 A 
ATOM     13  N   UNL     1       3.532   7.065  17.206  0.00  0.00    +0.000 NA
ATOM     14  O   UNL     1       3.323   5.881  17.890  0.00  0.00    +0.000 OA
ATOM     15  C   UNL     1       2.509   6.082  18.973  0.00  0.00    +0.000 A 
ATOM     16  C   UNL     1       2.228   7.424  19.027  0.00  0.00    +0.000 A 
ATOM     17  C   UNL     1       1.484   8.095  19.996  0.00  0.00    +0.000 A 
BRANCH  15  18
ATOM     18  C   UNL     1       2.129   4.881  19.705  0.00  0.00    +0.000 A 
ATOM     19  C   UNL     1       1.329   3.898  19.105  0.00  0.00    +0.000 A 
ATOM     20  C   UNL     1       0.945   2.755  19.812  0.00  0.00    +0.000 A 
ATOM     21  C   UNL     1       1.357   2.582  21.131  0.00  0.00    +0.000 A 
ATOM     22  C   UNL     1       2.148   3.546  21.744  0.00  0.00    +0.000 A 
ATOM     23  C   UNL     1       2.521   4.695  21.041  0.00  0.00    +0.000 A 
ENDBRANCH  15  18
ENDBRANCH   2   9
BRANCH   7  24
ATOM     24  C   UNL     1      -1.303  14.046  20.595  0.00  0.00    +0.000 A 
ATOM     25  N   UNL     1      -0.040  13.953  20.197  0.00  0.00    +0.000 NA
ATOM     26  N   UNL     1       0.321  15.093  19.549  0.00  0.00    +0.000 NA
ATOM     27  C   UNL     1      -0.707  15.905  19.587  0.00  0.00    +0.000 A 
ATOM     28  C   UNL     1      -0.910  17.190  19.010  0.00  0.00    +0.000 A 
ATOM     29  C   UNL     1      -2.020  17.880  19.309  0.00  0.00    +0.000 A 
ATOM     30  C   UNL     1      -3.014  17.338  20.220  0.00  0.00    +0.000 A 
ATOM     31  C   UNL     1      -2.866  16.088  20.697  0.00  0.00    +0.000 A 
ATOM     32  N   UNL     1      -1.733  15.346  20.352  0.00  0.00    +0.000 N 
ENDBRANCH   7  24
TORSDOF 3
ENDMDL
MODEL 7
REMARK VINA RESULT:      -8.7      1.177      1.410
REMARK  Name = 
REMARK  3 active torsions:
REMARK  status: ('A' for Active; 'I' for Inactive)
REMARK    1  A    between atoms: C_2  and  C_3
REMARK    2  A    between atoms: C_9  and  C_10
REMARK    3  A    between atoms: C_22  and  C_23
REMARK                            x       y       z     vdW  Elec       q    Type
REMARK                         _______ _______ _______ _____ _____    ______ ____
ROOT
ATOM      1  O   UNL     1       0.196   9.914  17.555  0.00  0.00    +0.000 OA
ATOM      2  C   UNL     1       0.629  10.011  18.706  0.00  0.00    +0.000 C 
ATOM      3  N   UNL     1       0.512  11.187  19.453  0.00  0.00    +0.000 N 
ATOM      4  C   UNL     1       1.085  11.428  20.781  0.00  0.00    +0.000 C 
ATOM      5  C   UNL     1       0.131  12.180  21.686  0.00  0.00    +0.000 C 
ATOM      6  C   UNL     1      -0.330  13.471  21.023  0.00  0.00    +0.000 C 
ATOM      7  C   UNL     1      -0.993  13.194  19.650  0.00  0.00    +0.000 C 
ATOM      8  C   UNL     1      -0.023  12.378  18.786  0.00  0.00    +0.000 C 
ENDROOT
BRANCH   2   9
ATOM      9  C   UNL     1       1.194   8.773  19.318  0.00  0.00    +0.000 A 
ATOM     10  C   UNL     1       0.963   8.441  20.694  0.00  0.00    +0.000 A 
ATOM     11  C   UNL     1       1.335   7.209  21.279  0.00  0.00    +0.000 A 
ATOM     12  C   UNL     1       2.092   6.386  20.430  0.00  0.00    +0.000 A 
ATOM     13  N   UNL     1       2.628   5.178  20.653  0.00  0.00    +0.000 NA
ATOM     14  O   UNL     1       3.349   4.853  19.519  0.00  0.00    +0.000 OA
ATOM     15  C   UNL     1       3.253   5.847  18.581  0.00  0.00    +0.000 A 
ATOM     16  C   UNL     1       2.415   6.805  19.088  0.00  0.00    +0.000 A 
ATOM     17  C   UNL     1       1.980   7.970  18.457  0.00  0.00    +0.000 A 
BRANCH  15  18
ATOM     18  C   UNL     1       4.065   5.662  17.385  0.00  0.00    +0.000 A 
ATOM     19  C   UNL     1       4.351   4.375  16.904  0.00  0.00    +0.000 A 
ATOM     20  C   UNL     1       5.148   4.193  15.771  0.00  0.00    +0.000 A 
ATOM     21  C   UNL     1       5.670   5.297  15.103  0.00  0.00    +0.000 A 
ATOM     22  C   UNL     1       5.401   6.580  15.565  0.00  0.00    +0.000 A 
ATOM     23  C   UNL     1       4.615   6.761  16.707  0.00  0.00    +0.000 A 
ENDBRANCH  15  18
ENDBRANCH   2   9
BRANCH   7  24
ATOM     24  C   UNL     1      -2.411  12.701  19.854  0.00  0.00    +0.000 A 
ATOM     25  N   UNL     1      -3.107  13.065  20.926  0.00  0.00    +0.000 NA
ATOM     26  N   UNL     1      -4.433  12.860  20.702  0.00  0.00    +0.000 NA
ATOM     27  C   UNL     1      -4.549  12.330  19.509  0.00  0.00    +0.000 A 
ATOM     28  C   UNL     1      -5.698  11.982  18.745  0.00  0.00    +0.000 A 
ATOM     29  C   UNL     1      -5.546  11.324  17.586  0.00  0.00    +0.000 A 
ATOM     30  C   UNL     1      -4.227  10.953  17.105  0.00  0.00    +0.000 A 
ATOM     31  C   UNL     1      -3.135  11.358  17.783  0.00  0.00    +0.000 A 
ATOM     32  N   UNL     1      -3.286  12.084  18.967  0.00  0.00    +0.000 N 
ENDBRANCH   7  24
TORSDOF 3
ENDMDL
MODEL 8
REMARK VINA RESULT:      -8.6      2.995      4.978
REMARK  Name = 
REMARK  3 active torsions:
REMARK  status: ('A' for Active; 'I' for Inactive)
REMARK    1  A    between atoms: C_2  and  C_3
REMARK    2  A    between atoms: C_9  and  C_10
REMARK    3  A    between atoms: C_22  and  C_23
REMARK                            x       y       z     vdW  Elec       q    Type
REMARK                         _______ _______ _______ _____ _____    ______ ____
ROOT
ATOM      1  O   UNL     1       1.025   9.891  22.348  0.00  0.00    +0.000 OA
ATOM      2  C   UNL     1       0.511  10.010  21.233  0.00  0.00    +0.000 C 
ATOM      3  N   UNL     1      -0.592  10.838  21.004  0.00  0.00    +0.000 N 
ATOM      4  C   UNL     1      -1.331  10.963  19.744  0.00  0.00    +0.000 C 
ATOM      5  C   UNL     1      -1.707  12.400  19.443  0.00  0.00    +0.000 C 
ATOM      6  C   UNL     1      -2.469  13.010  20.612  0.00  0.00    +0.000 C 
ATOM      7  C   UNL     1      -1.648  12.930  21.923  0.00  0.00    +0.000 C 
ATOM      8  C   UNL     1      -1.232  11.472  22.160  0.00  0.00    +0.000 C 
ENDROOT
BRANCH   2   9
ATOM      9  C   UNL     1       1.188   9.313  20.102  0.00  0.00    +0.000 A 
ATOM     10  C   UNL     1       1.420   9.965  18.846  0.00  0.00    +0.000 A 
ATOM     11  C   UNL     1       2.195   9.411  17.802  0.00  0.00    +0.000 A 
ATOM     12  C   UNL     1       2.602   8.089  18.042  0.00  0.00    +0.000 A 
ATOM     13  N   UNL     1       3.317   7.254  17.275  0.00  0.00    +0.000 NA
ATOM     14  O   UNL     1       3.356   6.044  17.943  0.00  0.00    +0.000 OA
ATOM     15  C   UNL     1       2.682   6.123  19.132  0.00  0.00    +0.000 A 
ATOM     16  C   UNL     1       2.245   7.415  19.267  0.00  0.00    +0.000 A 
ATOM     17  C   UNL     1       1.564   7.971  20.349  0.00  0.00    +0.000 A 
BRANCH  15  18
ATOM     18  C   UNL     1       2.564   4.872  19.871  0.00  0.00    +0.000 A 
ATOM     19  C   UNL     1       3.614   3.942  19.880  0.00  0.00    +0.000 A 
ATOM     20  C   UNL     1       3.495   2.732  20.569  0.00  0.00    +0.000 A 
ATOM     21  C   UNL     1       2.323   2.437  21.260  0.00  0.00    +0.000 A 
ATOM     22  C   UNL     1       1.270   3.344  21.261  0.00  0.00    +0.000 A 
ATOM     23  C   UNL     1       1.384   4.549  20.560  0.00  0.00    +0.000 A 
ENDBRANCH  15  18
ENDBRANCH   2   9
BRANCH   7  24
ATOM     24  C   UNL     1      -0.595  14.021  21.938  0.00  0.00    +0.000 A 
ATOM     25  N   UNL     1       0.565  13.833  22.556  0.00  0.00    +0.000 NA
ATOM     26  N   UNL     1       1.476  14.736  22.103  0.00  0.00    +0.000 NA
ATOM     27  C   UNL     1       0.864  15.506  21.237  0.00  0.00    +0.000 A 
ATOM     28  C   UNL     1       1.348  16.559  20.412  0.00  0.00    +0.000 A 
ATOM     29  C   UNL     1       0.480  17.290  19.697  0.00  0.00    +0.000 A 
ATOM     30  C   UNL     1      -0.947  17.027  19.760  0.00  0.00    +0.000 A 
ATOM     31  C   UNL     1      -1.398  15.976  20.472  0.00  0.00    +0.000 A 
ATOM     32  N   UNL     1      -0.493  15.183  21.182  0.00  0.00    +0.000 N 
ENDBRANCH   7  24
TORSDOF 3
ENDMDL
MODEL 9
REMARK VINA RESULT:      -8.6      3.347      5.796
REMARK  Name = 
REMARK  3 active torsions:
REMARK  status: ('A' for Active; 'I' for Inactive)
REMARK    1  A    between atoms: C_2  and  C_3
REMARK    2  A    between atoms: C_9  and  C_10
REMARK    3  A    between atoms: C_22  and  C_23
REMARK                            x       y       z     vdW  Elec       q    Type
REMARK                         _______ _______ _______ _____ _____    ______ ____
ROOT
ATOM      1  O   UNL     1       0.763   9.925  22.952  0.00  0.00    +0.000 OA
ATOM      2  C   UNL     1       0.192  10.208  21.895  0.00  0.00    +0.000 C 
ATOM      3  N   UNL     1      -0.931  11.039  21.853  0.00  0.00    +0.000 N 
ATOM      4  C   UNL     1      -1.734  11.347  20.665  0.00  0.00    +0.000 C 
ATOM      5  C   UNL     1      -2.142  12.805  20.614  0.00  0.00    +0.000 C 
ATOM      6  C   UNL     1      -2.853  13.206  21.899  0.00  0.00    +0.000 C 
ATOM      7  C   UNL     1      -1.967  12.937  23.141  0.00  0.00    +0.000 C 
ATOM      8  C   UNL     1      -1.522  11.469  23.124  0.00  0.00    +0.000 C 
ENDROOT
BRANCH   2   9
ATOM      9  C   UNL     1       0.821   9.713  20.637  0.00  0.00    +0.000 A 
ATOM     10  C   UNL     1       0.906  10.534  19.464  0.00  0.00    +0.000 A 
ATOM     11  C   UNL     1       1.631  10.176  18.304  0.00  0.00    +0.000 A 
ATOM     12  C   UNL     1       2.143   8.870  18.339  0.00  0.00    +0.000 A 
ATOM     13  N   UNL     1       2.849   8.195  17.420  0.00  0.00    +0.000 NA
ATOM     14  O   UNL     1       3.024   6.918  17.919  0.00  0.00    +0.000 OA
ATOM     15  C   UNL     1       2.444   6.795  19.153  0.00  0.00    +0.000 A 
ATOM     16  C   UNL     1       1.933   8.022  19.487  0.00  0.00    +0.000 A 
ATOM     17  C   UNL     1       1.306   8.384  20.679  0.00  0.00    +0.000 A 
BRANCH  15  18
ATOM     18  C   UNL     1       2.470   5.456  19.729  0.00  0.00    +0.000 A 
ATOM     19  C   UNL     1       3.556   4.598  19.499  0.00  0.00    +0.000 A 
ATOM     20  C   UNL     1       3.575   3.306  20.031  0.00  0.00    +0.000 A 
ATOM     21  C   UNL     1       2.506   2.855  20.801  0.00  0.00    +0.000 A 
ATOM     22  C   UNL     1       1.419   3.689  21.037  0.00  0.00    +0.000 A 
ATOM     23  C   UNL     1       1.395   4.977  20.494  0.00  0.00    +0.000 A 
ENDBRANCH  15  18
ENDBRANCH   2   9
BRANCH   7  24
ATOM     24  C   UNL     1      -0.929  14.033  23.280  0.00  0.00    +0.000 A 
ATOM     25  N   UNL     1       0.203  13.984  22.589  0.00  0.00    +0.000 NA
ATOM     26  N   UNL     1       0.769  15.221  22.549  0.00  0.00    +0.000 NA
ATOM     27  C   UNL     1       0.006  16.021  23.252  0.00  0.00    +0.000 A 
ATOM     28  C   UNL     1       0.080  17.423  23.485  0.00  0.00    +0.000 A 
ATOM     29  C   UNL     1      -0.761  17.992  24.362  0.00  0.00    +0.000 A 
ATOM     30  C   UNL     1      -1.740  17.196  25.082  0.00  0.00    +0.000 A 
ATOM     31  C   UNL     1      -1.870  15.886  24.798  0.00  0.00    +0.000 A 
ATOM     32  N   UNL     1      -1.027  15.297  23.852  0.00  0.00    +0.000 N 
ENDBRANCH   7  24
TORSDOF 3
ENDMDL
