MODEL 1
REMARK VINA RESULT:      -7.0      0.000      0.000
REMARK  Name = 
REMARK  4 active torsions:
REMARK  status: ('A' for Active; 'I' for Inactive)
REMARK    1  A    between atoms: C_1  and  C_2
REMARK    2  A    between atoms: C_2  and  O_3
REMARK    3  A    between atoms: O_3  and  C_4
REMARK    4  A    between atoms: C_4  and  C_6
REMARK                            x       y       z     vdW  Elec       q    Type
REMARK                         _______ _______ _______ _____ _____    ______ ____
ROOT
ATOM      1  C   UNL     1       6.472   4.515  14.157  0.00  0.00    +0.000 A 
ATOM      2  C   UNL     1       5.391   4.115  14.934  0.00  0.00    +0.000 A 
ATOM      3  C   UNL     1       5.319   4.642  16.227  0.00  0.00    +0.000 A 
ATOM      4  C   UNL     1       6.309   5.531  16.640  0.00  0.00    +0.000 A 
ATOM      5  C   UNL     1       7.363   5.902  15.816  0.00  0.00    +0.000 A 
ATOM      6  N   UNL     1       7.437   5.380  14.572  0.00  0.00    +0.000 NA
ATOM      7  N   UNL     1       6.007   5.895  17.931  0.00  0.00    +0.000 N 
ATOM      8  C   UNL     1       4.869   5.257  18.369  0.00  0.00    +0.000 A 
ATOM      9  C   UNL     1       4.214   5.322  19.604  0.00  0.00    +0.000 A 
ATOM     10  C   UNL     1       3.064   4.543  19.766  0.00  0.00    +0.000 A 
ATOM     11  C   UNL     1       2.594   3.738  18.731  0.00  0.00    +0.000 A 
ATOM     12  I   UNL     1       0.880   2.589  19.018  0.00  0.00    +0.000 I 
ATOM     13  C   UNL     1       3.253   3.686  17.501  0.00  0.00    +0.000 A 
ATOM     14  C   UNL     1       4.417   4.462  17.318  0.00  0.00    +0.000 A 
ATOM     15  H   UNL     1       6.549   6.541  18.489  0.00  0.00    +0.000 HD
ENDROOT
BRANCH   1  16
ATOM     16  C   UNL     1       6.631   3.856  12.829  0.00  0.00    +0.000 C 
ATOM     17  O   UNL     1       7.292   4.336  11.916  0.00  0.00    +0.000 OA
BRANCH  16  18
ATOM     18  O   UNL     1       5.834   2.762  12.742  0.00  0.00    +0.000 OA
BRANCH  18  20
ATOM     19  C   UNL     1       4.032   3.307  11.284  0.00  0.00    +0.000 C 
ATOM     20  C   UNL     1       5.317   2.509  11.431  0.00  0.00    +0.000 C 
ENDBRANCH  18  20
ENDBRANCH  16  18
ENDBRANCH   1  16
TORSDOF 3
ENDMDL
MODEL 2
REMARK VINA RESULT:      -6.9      1.530      2.241
REMARK  Name = 
REMARK  4 active torsions:
REMARK  status: ('A' for Active; 'I' for Inactive)
REMARK    1  A    between atoms: C_1  and  C_2
REMARK    2  A    between atoms: C_2  and  O_3
REMARK    3  A    between atoms: O_3  and  C_4
REMARK    4  A    between atoms: C_4  and  C_6
REMARK                            x       y       z     vdW  Elec       q    Type
REMARK                         _______ _______ _______ _____ _____    ______ ____
ROOT
ATOM      1  C   UNL     1       5.912   3.686  12.696  0.00  0.00    +0.000 A 
ATOM      2  C   UNL     1       5.262   3.652  13.924  0.00  0.00    +0.000 A 
ATOM      3  C   UNL     1       5.885   4.322  14.982  0.00  0.00    +0.000 A 
ATOM      4  C   UNL     1       7.088   4.981  14.736  0.00  0.00    +0.000 A 
ATOM      5  C   UNL     1       7.687   4.989  13.484  0.00  0.00    +0.000 A 
ATOM      6  N   UNL     1       7.089   4.329  12.467  0.00  0.00    +0.000 NA
ATOM      7  N   UNL     1       7.482   5.550  15.924  0.00  0.00    +0.000 N 
ATOM      8  C   UNL     1       6.586   5.264  16.928  0.00  0.00    +0.000 A 
ATOM      9  C   UNL     1       6.596   5.625  18.280  0.00  0.00    +0.000 A 
ATOM     10  C   UNL     1       5.539   5.175  19.077  0.00  0.00    +0.000 A 
ATOM     11  C   UNL     1       4.516   4.398  18.536  0.00  0.00    +0.000 A 
ATOM     12  I   UNL     1       2.963   3.745  19.760  0.00  0.00    +0.000 I 
ATOM     13  C   UNL     1       4.514   4.050  17.184  0.00  0.00    +0.000 A 
ATOM     14  C   UNL     1       5.573   4.492  16.364  0.00  0.00    +0.000 A 
ATOM     15  H   UNL     1       8.321   6.102  16.048  0.00  0.00    +0.000 HD
ENDROOT
BRANCH   1  16
ATOM     16  C   UNL     1       5.326   2.864  11.598  0.00  0.00    +0.000 C 
ATOM     17  O   UNL     1       5.554   1.669  11.458  0.00  0.00    +0.000 OA
BRANCH  16  18
ATOM     18  O   UNL     1       4.650   3.651  10.723  0.00  0.00    +0.000 OA
BRANCH  18  20
ATOM     19  C   UNL     1       2.695   4.227   9.494  0.00  0.00    +0.000 C 
ATOM     20  C   UNL     1       3.289   3.265  10.509  0.00  0.00    +0.000 C 
ENDBRANCH  18  20
ENDBRANCH  16  18
ENDBRANCH   1  16
TORSDOF 3
ENDMDL
MODEL 3
REMARK VINA RESULT:      -6.8      4.086      5.185
REMARK  Name = 
REMARK  4 active torsions:
REMARK  status: ('A' for Active; 'I' for Inactive)
REMARK    1  A    between atoms: C_1  and  C_2
REMARK    2  A    between atoms: C_2  and  O_3
REMARK    3  A    between atoms: O_3  and  C_4
REMARK    4  A    between atoms: C_4  and  C_6
REMARK                            x       y       z     vdW  Elec       q    Type
REMARK                         _______ _______ _______ _____ _____    ______ ____
ROOT
ATOM      1  C   UNL     1       4.337   6.013  17.410  0.00  0.00    +0.000 A 
ATOM      2  C   UNL     1       3.548   7.144  17.585  0.00  0.00    +0.000 A 
ATOM      3  C   UNL     1       2.817   7.220  18.774  0.00  0.00    +0.000 A 
ATOM      4  C   UNL     1       2.936   6.183  19.697  0.00  0.00    +0.000 A 
ATOM      5  C   UNL     1       3.748   5.080  19.472  0.00  0.00    +0.000 A 
ATOM      6  N   UNL     1       4.444   5.003  18.316  0.00  0.00    +0.000 NA
ATOM      7  N   UNL     1       2.126   6.500  20.762  0.00  0.00    +0.000 N 
ATOM      8  C   UNL     1       1.476   7.694  20.548  0.00  0.00    +0.000 A 
ATOM      9  C   UNL     1       0.561   8.383  21.352  0.00  0.00    +0.000 A 
ATOM     10  C   UNL     1       0.051   9.590  20.862  0.00  0.00    +0.000 A 
ATOM     11  C   UNL     1       0.448  10.082  19.620  0.00  0.00    +0.000 A 
ATOM     12  I   UNL     1      -0.339  11.881  18.926  0.00  0.00    +0.000 I 
ATOM     13  C   UNL     1       1.367   9.388  18.830  0.00  0.00    +0.000 A 
ATOM     14  C   UNL     1       1.891   8.168  19.305  0.00  0.00    +0.000 A 
ATOM     15  H   UNL     1       2.016   5.932  21.592  0.00  0.00    +0.000 HD
ENDROOT
BRANCH   1  16
ATOM     16  C   UNL     1       5.015   5.858  16.091  0.00  0.00    +0.000 C 
ATOM     17  O   UNL     1       5.338   6.806  15.386  0.00  0.00    +0.000 OA
BRANCH  16  18
ATOM     18  O   UNL     1       5.075   4.550  15.737  0.00  0.00    +0.000 OA
BRANCH  18  20
ATOM     19  C   UNL     1       6.139   3.860  13.722  0.00  0.00    +0.000 C 
ATOM     20  C   UNL     1       6.338   4.139  15.203  0.00  0.00    +0.000 C 
ENDBRANCH  18  20
ENDBRANCH  16  18
ENDBRANCH   1  16
TORSDOF 3
ENDMDL
MODEL 4
REMARK VINA RESULT:      -6.8      0.997      1.129
REMARK  Name = 
REMARK  4 active torsions:
REMARK  status: ('A' for Active; 'I' for Inactive)
REMARK    1  A    between atoms: C_1  and  C_2
REMARK    2  A    between atoms: C_2  and  O_3
REMARK    3  A    between atoms: O_3  and  C_4
REMARK    4  A    between atoms: C_4  and  C_6
REMARK                            x       y       z     vdW  Elec       q    Type
REMARK                         _______ _______ _______ _____ _____    ______ ____
ROOT
ATOM      1  C   UNL     1       5.999   3.981  13.521  0.00  0.00    +0.000 A 
ATOM      2  C   UNL     1       5.035   3.771  14.499  0.00  0.00    +0.000 A 
ATOM      3  C   UNL     1       5.306   4.291  15.769  0.00  0.00    +0.000 A 
ATOM      4  C   UNL     1       6.496   4.988  15.963  0.00  0.00    +0.000 A 
ATOM      5  C   UNL     1       7.420   5.176  14.944  0.00  0.00    +0.000 A 
ATOM      6  N   UNL     1       7.162   4.660  13.722  0.00  0.00    +0.000 NA
ATOM      7  N   UNL     1       6.516   5.389  17.278  0.00  0.00    +0.000 N 
ATOM      8  C   UNL     1       5.389   4.958  17.940  0.00  0.00    +0.000 A 
ATOM      9  C   UNL     1       5.005   5.127  19.275  0.00  0.00    +0.000 A 
ATOM     10  C   UNL     1       3.789   4.561  19.674  0.00  0.00    +0.000 A 
ATOM     11  C   UNL     1       2.996   3.859  18.768  0.00  0.00    +0.000 A 
ATOM     12  I   UNL     1       1.196   3.027  19.405  0.00  0.00    +0.000 I 
ATOM     13  C   UNL     1       3.388   3.702  17.437  0.00  0.00    +0.000 A 
ATOM     14  C   UNL     1       4.612   4.264  17.016  0.00  0.00    +0.000 A 
ATOM     15  H   UNL     1       7.259   5.925  17.706  0.00  0.00    +0.000 HD
ENDROOT
BRANCH   1  16
ATOM     16  C   UNL     1       5.783   3.316  12.204  0.00  0.00    +0.000 C 
ATOM     17  O   UNL     1       6.509   2.430  11.771  0.00  0.00    +0.000 OA
BRANCH  16  18
ATOM     18  O   UNL     1       4.786   3.930  11.519  0.00  0.00    +0.000 OA
BRANCH  18  20
ATOM     19  C   UNL     1       3.070   3.786   9.875  0.00  0.00    +0.000 C 
ATOM     20  C   UNL     1       3.805   3.041  10.977  0.00  0.00    +0.000 C 
ENDBRANCH  18  20
ENDBRANCH  16  18
ENDBRANCH   1  16
TORSDOF 3
ENDMDL
MODEL 5
REMARK VINA RESULT:      -6.7      3.826      5.409
REMARK  Name = 
REMARK  4 active torsions:
REMARK  status: ('A' for Active; 'I' for Inactive)
REMARK    1  A    between atoms: C_1  and  C_2
REMARK    2  A    between atoms: C_2  and  O_3
REMARK    3  A    between atoms: O_3  and  C_4
REMARK    4  A    between atoms: C_4  and  C_6
REMARK                            x       y       z     vdW  Elec       q    Type
REMARK                         _______ _______ _______ _____ _____    ______ ____
ROOT
ATOM      1  C   UNL     1       4.545   5.492  17.455  0.00  0.00    +0.000 A 
ATOM      2  C   UNL     1       3.800   6.653  17.623  0.00  0.00    +0.000 A 
ATOM      3  C   UNL     1       3.045   6.750  18.796  0.00  0.00    +0.000 A 
ATOM      4  C   UNL     1       3.099   5.702  19.711  0.00  0.00    +0.000 A 
ATOM      5  C   UNL     1       3.869   4.567  19.495  0.00  0.00    +0.000 A 
ATOM      6  N   UNL     1       4.588   4.471  18.354  0.00  0.00    +0.000 NA
ATOM      7  N   UNL     1       2.279   6.043  20.761  0.00  0.00    +0.000 N 
ATOM      8  C   UNL     1       1.685   7.265  20.543  0.00  0.00    +0.000 A 
ATOM      9  C   UNL     1       0.781   7.985  21.333  0.00  0.00    +0.000 A 
ATOM     10  C   UNL     1       0.334   9.216  20.843  0.00  0.00    +0.000 A 
ATOM     11  C   UNL     1       0.780   9.702  19.615  0.00  0.00    +0.000 A 
ATOM     12  I   UNL     1       0.084  11.538  18.921  0.00  0.00    +0.000 I 
ATOM     13  C   UNL     1       1.686   8.977  18.839  0.00  0.00    +0.000 A 
ATOM     14  C   UNL     1       2.148   7.731  19.314  0.00  0.00    +0.000 A 
ATOM     15  H   UNL     1       2.127   5.473  21.583  0.00  0.00    +0.000 HD
ENDROOT
BRANCH   1  16
ATOM     16  C   UNL     1       5.245   5.320  16.150  0.00  0.00    +0.000 C 
ATOM     17  O   UNL     1       5.047   4.371  15.401  0.00  0.00    +0.000 OA
BRANCH  16  18
ATOM     18  O   UNL     1       6.210   6.261  16.001  0.00  0.00    +0.000 OA
BRANCH  18  20
ATOM     19  C   UNL     1       7.564   7.580  17.448  0.00  0.00    +0.000 C 
ATOM     20  C   UNL     1       7.276   6.173  16.953  0.00  0.00    +0.000 C 
ENDBRANCH  18  20
ENDBRANCH  16  18
ENDBRANCH   1  16
TORSDOF 3
ENDMDL
MODEL 6
REMARK VINA RESULT:      -6.7      2.985      3.621
REMARK  Name = 
REMARK  4 active torsions:
REMARK  status: ('A' for Active; 'I' for Inactive)
REMARK    1  A    between atoms: C_1  and  C_2
REMARK    2  A    between atoms: C_2  and  O_3
REMARK    3  A    between atoms: O_3  and  C_4
REMARK    4  A    between atoms: C_4  and  C_6
REMARK                            x       y       z     vdW  Elec       q    Type
REMARK                         _______ _______ _______ _____ _____    ______ ____
ROOT
ATOM      1  C   UNL     1       5.579   5.031  16.317  0.00  0.00    +0.000 A 
ATOM      2  C   UNL     1       4.794   6.137  16.626  0.00  0.00    +0.000 A 
ATOM      3  C   UNL     1       4.071   6.077  17.821  0.00  0.00    +0.000 A 
ATOM      4  C   UNL     1       4.194   4.941  18.618  0.00  0.00    +0.000 A 
ATOM      5  C   UNL     1       5.002   3.869  18.263  0.00  0.00    +0.000 A 
ATOM      6  N   UNL     1       5.689   3.924  17.100  0.00  0.00    +0.000 NA
ATOM      7  N   UNL     1       3.393   5.135  19.718  0.00  0.00    +0.000 N 
ATOM      8  C   UNL     1       2.744   6.347  19.647  0.00  0.00    +0.000 A 
ATOM      9  C   UNL     1       1.836   6.940  20.531  0.00  0.00    +0.000 A 
ATOM     10  C   UNL     1       1.326   8.196  20.187  0.00  0.00    +0.000 A 
ATOM     11  C   UNL     1       1.716   8.827  19.007  0.00  0.00    +0.000 A 
ATOM     12  I   UNL     1       0.928  10.695  18.530  0.00  0.00    +0.000 I 
ATOM     13  C   UNL     1       2.627   8.227  18.136  0.00  0.00    +0.000 A 
ATOM     14  C   UNL     1       3.151   6.959  18.464  0.00  0.00    +0.000 A 
ATOM     15  H   UNL     1       3.287   4.476  20.478  0.00  0.00    +0.000 HD
ENDROOT
BRANCH   1  16
ATOM     16  C   UNL     1       6.247   5.028  14.983  0.00  0.00    +0.000 C 
ATOM     17  O   UNL     1       7.305   5.602  14.761  0.00  0.00    +0.000 OA
BRANCH  16  18
ATOM     18  O   UNL     1       5.451   4.442  14.054  0.00  0.00    +0.000 OA
BRANCH  18  20
ATOM     19  C   UNL     1       5.158   3.279  11.997  0.00  0.00    +0.000 C 
ATOM     20  C   UNL     1       6.154   3.664  13.079  0.00  0.00    +0.000 C 
ENDBRANCH  18  20
ENDBRANCH  16  18
ENDBRANCH   1  16
TORSDOF 3
ENDMDL
MODEL 7
REMARK VINA RESULT:      -6.7      4.693      6.282
REMARK  Name = 
REMARK  4 active torsions:
REMARK  status: ('A' for Active; 'I' for Inactive)
REMARK    1  A    between atoms: C_1  and  C_2
REMARK    2  A    between atoms: C_2  and  O_3
REMARK    3  A    between atoms: O_3  and  C_4
REMARK    4  A    between atoms: C_4  and  C_6
REMARK                            x       y       z     vdW  Elec       q    Type
REMARK                         _______ _______ _______ _____ _____    ______ ____
ROOT
ATOM      1  C   UNL     1       3.549   4.656  19.081  0.00  0.00    +0.000 A 
ATOM      2  C   UNL     1       2.775   5.516  19.852  0.00  0.00    +0.000 A 
ATOM      3  C   UNL     1       2.521   6.782  19.315  0.00  0.00    +0.000 A 
ATOM      4  C   UNL     1       3.037   7.088  18.059  0.00  0.00    +0.000 A 
ATOM      5  C   UNL     1       3.797   6.184  17.328  0.00  0.00    +0.000 A 
ATOM      6  N   UNL     1       4.052   4.966  17.856  0.00  0.00    +0.000 NA
ATOM      7  N   UNL     1       2.647   8.374  17.768  0.00  0.00    +0.000 N 
ATOM      8  C   UNL     1       1.915   8.911  18.802  0.00  0.00    +0.000 A 
ATOM      9  C   UNL     1       1.335  10.178  18.937  0.00  0.00    +0.000 A 
ATOM     10  C   UNL     1       0.646  10.449  20.124  0.00  0.00    +0.000 A 
ATOM     11  C   UNL     1       0.542   9.487  21.127  0.00  0.00    +0.000 A 
ATOM     12  I   UNL     1      -0.489   9.935  22.879  0.00  0.00    +0.000 I 
ATOM     13  C   UNL     1       1.120   8.225  20.977  0.00  0.00    +0.000 A 
ATOM     14  C   UNL     1       1.822   7.932  19.789  0.00  0.00    +0.000 A 
ATOM     15  H   UNL     1       2.870   8.864  16.912  0.00  0.00    +0.000 HD
ENDROOT
BRANCH   1  16
ATOM     16  C   UNL     1       3.938   3.356  19.701  0.00  0.00    +0.000 C 
ATOM     17  O   UNL     1       5.092   2.950  19.740  0.00  0.00    +0.000 OA
BRANCH  16  18
ATOM     18  O   UNL     1       2.836   2.653  20.062  0.00  0.00    +0.000 OA
BRANCH  18  20
ATOM     19  C   UNL     1       0.812   2.381  18.837  0.00  0.00    +0.000 C 
ATOM     20  C   UNL     1       2.243   1.896  19.001  0.00  0.00    +0.000 C 
ENDBRANCH  18  20
ENDBRANCH  16  18
ENDBRANCH   1  16
TORSDOF 3
ENDMDL
MODEL 8
REMARK VINA RESULT:      -6.6      3.508      6.235
REMARK  Name = 
REMARK  4 active torsions:
REMARK  status: ('A' for Active; 'I' for Inactive)
REMARK    1  A    between atoms: C_1  and  C_2
REMARK    2  A    between atoms: C_2  and  O_3
REMARK    3  A    between atoms: O_3  and  C_4
REMARK    4  A    between atoms: C_4  and  C_6
REMARK                            x       y       z     vdW  Elec       q    Type
REMARK                         _______ _______ _______ _____ _____    ______ ____
ROOT
ATOM      1  C   UNL     1       4.890   4.425  18.584  0.00  0.00    +0.000 A 
ATOM      2  C   UNL     1       4.616   4.148  17.250  0.00  0.00    +0.000 A 
ATOM      3  C   UNL     1       5.666   4.330  16.344  0.00  0.00    +0.000 A 
ATOM      4  C   UNL     1       6.900   4.754  16.831  0.00  0.00    +0.000 A 
ATOM      5  C   UNL     1       7.119   5.007  18.178  0.00  0.00    +0.000 A 
ATOM      6  N   UNL     1       6.099   4.843  19.050  0.00  0.00    +0.000 NA
ATOM      7  N   UNL     1       7.745   4.851  15.751  0.00  0.00    +0.000 N 
ATOM      8  C   UNL     1       7.092   4.524  14.584  0.00  0.00    +0.000 A 
ATOM      9  C   UNL     1       7.556   4.497  13.264  0.00  0.00    +0.000 A 
ATOM     10  C   UNL     1       6.648   4.126  12.267  0.00  0.00    +0.000 A 
ATOM     11  C   UNL     1       5.332   3.794  12.587  0.00  0.00    +0.000 A 
ATOM     12  I   UNL     1       4.011   3.253  11.070  0.00  0.00    +0.000 I 
ATOM     13  C   UNL     1       4.883   3.819  13.908  0.00  0.00    +0.000 A 
ATOM     14  C   UNL     1       5.783   4.193  14.928  0.00  0.00    +0.000 A 
ATOM     15  H   UNL     1       8.716   5.130  15.801  0.00  0.00    +0.000 HD
ENDROOT
BRANCH   1  16
ATOM     16  C   UNL     1       3.744   4.364  19.537  0.00  0.00    +0.000 C 
ATOM     17  O   UNL     1       3.172   5.359  19.964  0.00  0.00    +0.000 OA
BRANCH  16  18
ATOM     18  O   UNL     1       3.543   3.090  19.958  0.00  0.00    +0.000 OA
BRANCH  18  20
ATOM     19  C   UNL     1       1.826   2.648  21.547  0.00  0.00    +0.000 C 
ATOM     20  C   UNL     1       2.166   2.714  20.067  0.00  0.00    +0.000 C 
ENDBRANCH  18  20
ENDBRANCH  16  18
ENDBRANCH   1  16
TORSDOF 3
ENDMDL
MODEL 9
REMARK VINA RESULT:      -6.6      3.499      6.089
REMARK  Name = 
REMARK  4 active torsions:
REMARK  status: ('A' for Active; 'I' for Inactive)
REMARK    1  A    between atoms: C_1  and  C_2
REMARK    2  A    between atoms: C_2  and  O_3
REMARK    3  A    between atoms: O_3  and  C_4
REMARK    4  A    between atoms: C_4  and  C_6
REMARK                            x       y       z     vdW  Elec       q    Type
REMARK                         _______ _______ _______ _____ _____    ______ ____
ROOT
ATOM      1  C   UNL     1       4.972   4.142  18.543  0.00  0.00    +0.000 A 
ATOM      2  C   UNL     1       4.712   3.888  17.201  0.00  0.00    +0.000 A 
ATOM      3  C   UNL     1       5.724   4.217  16.294  0.00  0.00    +0.000 A 
ATOM      4  C   UNL     1       6.912   4.753  16.786  0.00  0.00    +0.000 A 
ATOM      5  C   UNL     1       7.119   4.977  18.141  0.00  0.00    +0.000 A 
ATOM      6  N   UNL     1       6.134   4.670  19.014  0.00  0.00    +0.000 NA
ATOM      7  N   UNL     1       7.727   4.982  15.703  0.00  0.00    +0.000 N 
ATOM      8  C   UNL     1       7.098   4.631  14.531  0.00  0.00    +0.000 A 
ATOM      9  C   UNL     1       7.545   4.704  13.207  0.00  0.00    +0.000 A 
ATOM     10  C   UNL     1       6.669   4.275  12.204  0.00  0.00    +0.000 A 
ATOM     11  C   UNL     1       5.402   3.791  12.522  0.00  0.00    +0.000 A 
ATOM     12  I   UNL     1       4.127   3.168  10.997  0.00  0.00    +0.000 I 
ATOM     13  C   UNL     1       4.969   3.717  13.847  0.00  0.00    +0.000 A 
ATOM     14  C   UNL     1       5.837   4.147  14.873  0.00  0.00    +0.000 A 
ATOM     15  H   UNL     1       8.663   5.363  15.756  0.00  0.00    +0.000 HD
ENDROOT
BRANCH   1  16
ATOM     16  C   UNL     1       3.851   3.921  19.502  0.00  0.00    +0.000 C 
ATOM     17  O   UNL     1       3.297   2.839  19.650  0.00  0.00    +0.000 OA
BRANCH  16  18
ATOM     18  O   UNL     1       3.456   5.097  20.051  0.00  0.00    +0.000 OA
BRANCH  18  20
ATOM     19  C   UNL     1       2.637   6.928  18.770  0.00  0.00    +0.000 C 
ATOM     20  C   UNL     1       2.260   5.642  19.486  0.00  0.00    +0.000 C 
ENDBRANCH  18  20
ENDBRANCH  16  18
ENDBRANCH   1  16
TORSDOF 3
ENDMDL
