MODEL 1
REMARK VINA RESULT:      -6.1      0.000      0.000
REMARK  Name = 
REMARK  4 active torsions:
REMARK  status: ('A' for Active; 'I' for Inactive)
REMARK    1  A    between atoms: C_2  and  C_3
REMARK    2  A    between atoms: N_7  and  N_8
REMARK    3  A    between atoms: N_8  and  C_9
REMARK    4  A    between atoms: N_8  and  C_10
REMARK                            x       y       z     vdW  Elec       q    Type
REMARK                         _______ _______ _______ _____ _____    ______ ____
ROOT
ATOM      1  N   UNL     1       3.695   3.571  18.030  0.00  0.00    +0.000 N 
ATOM      2  C   UNL     1       3.394   2.164  17.764  0.00  0.00    +0.000 C 
ENDROOT
BRANCH   1   3
ATOM      3  C   UNL     1       4.984   3.964  17.591  0.00  0.00    +0.000 A 
ATOM      4  C   UNL     1       5.950   4.479  18.454  0.00  0.00    +0.000 A 
ATOM      5  C   UNL     1       7.174   4.875  17.933  0.00  0.00    +0.000 A 
ATOM      6  N   UNL     1       7.492   4.816  16.623  0.00  0.00    +0.000 NA
ATOM      7  C   UNL     1       6.542   4.337  15.796  0.00  0.00    +0.000 A 
ATOM      8  C   UNL     1       5.300   3.898  16.226  0.00  0.00    +0.000 A 
ENDBRANCH   1   3
BRANCH   1  13
ATOM      9  C   UNL     1       2.381   5.318  19.237  0.00  0.00    +0.000 A 
ATOM     10  C   UNL     1       1.823   5.403  20.505  0.00  0.00    +0.000 A 
ATOM     11  C   UNL     1       2.178   4.244  21.225  0.00  0.00    +0.000 A 
ATOM     12  C   UNL     1       2.972   3.485  20.399  0.00  0.00    +0.000 A 
ATOM     13  N   UNL     1       3.072   4.108  19.170  0.00  0.00    +0.000 N 
BRANCH   9  15
ATOM     14  C   UNL     1       3.181   7.244  18.015  0.00  0.00    +0.000 C 
ATOM     15  C   UNL     1       2.353   6.195  18.115  0.00  0.00    +0.000 C 
ENDBRANCH   9  15
ENDBRANCH   1  13
TORSDOF 3
ENDMDL
MODEL 2
REMARK VINA RESULT:      -6.1      0.266      1.239
REMARK  Name = 
REMARK  4 active torsions:
REMARK  status: ('A' for Active; 'I' for Inactive)
REMARK    1  A    between atoms: C_2  and  C_3
REMARK    2  A    between atoms: N_7  and  N_8
REMARK    3  A    between atoms: N_8  and  C_9
REMARK    4  A    between atoms: N_8  and  C_10
REMARK                            x       y       z     vdW  Elec       q    Type
REMARK                         _______ _______ _______ _____ _____    ______ ____
ROOT
ATOM      1  N   UNL     1       3.688   3.658  17.995  0.00  0.00    +0.000 N 
ATOM      2  C   UNL     1       3.397   2.240  17.783  0.00  0.00    +0.000 C 
ENDROOT
BRANCH   1   3
ATOM      3  C   UNL     1       4.962   4.051  17.514  0.00  0.00    +0.000 A 
ATOM      4  C   UNL     1       5.319   3.964  16.169  0.00  0.00    +0.000 A 
ATOM      5  C   UNL     1       6.601   4.336  15.789  0.00  0.00    +0.000 A 
ATOM      6  N   UNL     1       7.550   4.763  16.649  0.00  0.00    +0.000 NA
ATOM      7  C   UNL     1       7.200   4.821  17.949  0.00  0.00    +0.000 A 
ATOM      8  C   UNL     1       5.939   4.491  18.420  0.00  0.00    +0.000 A 
ENDBRANCH   1   3
BRANCH   1  13
ATOM      9  C   UNL     1       2.482   5.482  19.202  0.00  0.00    +0.000 A 
ATOM     10  C   UNL     1       1.910   5.592  20.462  0.00  0.00    +0.000 A 
ATOM     11  C   UNL     1       2.168   4.403  21.173  0.00  0.00    +0.000 A 
ATOM     12  C   UNL     1       2.919   3.598  20.351  0.00  0.00    +0.000 A 
ATOM     13  N   UNL     1       3.086   4.226  19.131  0.00  0.00    +0.000 N 
BRANCH   9  15
ATOM     14  C   UNL     1       2.445   7.700  18.242  0.00  0.00    +0.000 C 
ATOM     15  C   UNL     1       2.537   6.371  18.091  0.00  0.00    +0.000 C 
ENDBRANCH   9  15
ENDBRANCH   1  13
TORSDOF 3
ENDMDL
MODEL 3
REMARK VINA RESULT:      -6.0      1.479      4.872
REMARK  Name = 
REMARK  4 active torsions:
REMARK  status: ('A' for Active; 'I' for Inactive)
REMARK    1  A    between atoms: C_2  and  C_3
REMARK    2  A    between atoms: N_7  and  N_8
REMARK    3  A    between atoms: N_8  and  C_9
REMARK    4  A    between atoms: N_8  and  C_10
REMARK                            x       y       z     vdW  Elec       q    Type
REMARK                         _______ _______ _______ _____ _____    ______ ____
ROOT
ATOM      1  N   UNL     1       3.778   5.496  17.788  0.00  0.00    +0.000 N 
ATOM      2  C   UNL     1       3.451   6.921  17.825  0.00  0.00    +0.000 C 
ENDROOT
BRANCH   1   3
ATOM      3  C   UNL     1       2.786   4.674  18.379  0.00  0.00    +0.000 A 
ATOM      4  C   UNL     1       2.154   4.998  19.579  0.00  0.00    +0.000 A 
ATOM      5  C   UNL     1       1.220   4.116  20.106  0.00  0.00    +0.000 A 
ATOM      6  N   UNL     1       0.890   2.937  19.539  0.00  0.00    +0.000 NA
ATOM      7  C   UNL     1       1.524   2.625  18.391  0.00  0.00    +0.000 A 
ATOM      8  C   UNL     1       2.455   3.449  17.779  0.00  0.00    +0.000 A 
ENDBRANCH   1   3
BRANCH   1  13
ATOM      9  C   UNL     1       5.928   4.737  16.770  0.00  0.00    +0.000 A 
ATOM     10  C   UNL     1       7.243   4.694  17.211  0.00  0.00    +0.000 A 
ATOM     11  C   UNL     1       7.276   5.123  18.554  0.00  0.00    +0.000 A 
ATOM     12  C   UNL     1       5.980   5.391  18.921  0.00  0.00    +0.000 A 
ATOM     13  N   UNL     1       5.151   5.198  17.833  0.00  0.00    +0.000 N 
BRANCH   9  15
ATOM     14  C   UNL     1       6.044   3.994  14.473  0.00  0.00    +0.000 C 
ATOM     15  C   UNL     1       5.323   4.412  15.523  0.00  0.00    +0.000 C 
ENDBRANCH   9  15
ENDBRANCH   1  13
TORSDOF 3
ENDMDL
MODEL 4
REMARK VINA RESULT:      -6.0      1.442      4.983
REMARK  Name = 
REMARK  4 active torsions:
REMARK  status: ('A' for Active; 'I' for Inactive)
REMARK    1  A    between atoms: C_2  and  C_3
REMARK    2  A    between atoms: N_7  and  N_8
REMARK    3  A    between atoms: N_8  and  C_9
REMARK    4  A    between atoms: N_8  and  C_10
REMARK                            x       y       z     vdW  Elec       q    Type
REMARK                         _______ _______ _______ _____ _____    ______ ____
ROOT
ATOM      1  N   UNL     1       3.869   5.357  17.781  0.00  0.00    +0.000 N 
ATOM      2  C   UNL     1       3.495   6.771  17.813  0.00  0.00    +0.000 C 
ENDROOT
BRANCH   1   3
ATOM      3  C   UNL     1       2.898   4.503  18.360  0.00  0.00    +0.000 A 
ATOM      4  C   UNL     1       2.545   3.275  17.802  0.00  0.00    +0.000 A 
ATOM      5  C   UNL     1       1.556   2.519  18.416  0.00  0.00    +0.000 A 
ATOM      6  N   UNL     1       0.886   2.904  19.522  0.00  0.00    +0.000 NA
ATOM      7  C   UNL     1       1.221   4.103  20.039  0.00  0.00    +0.000 A 
ATOM      8  C   UNL     1       2.208   4.919  19.509  0.00  0.00    +0.000 A 
ENDBRANCH   1   3
BRANCH   1  13
ATOM      9  C   UNL     1       6.034   4.557  16.826  0.00  0.00    +0.000 A 
ATOM     10  C   UNL     1       7.353   4.599  17.256  0.00  0.00    +0.000 A 
ATOM     11  C   UNL     1       7.383   5.169  18.545  0.00  0.00    +0.000 A 
ATOM     12  C   UNL     1       6.082   5.437  18.896  0.00  0.00    +0.000 A 
ATOM     13  N   UNL     1       5.251   5.106  17.842  0.00  0.00    +0.000 N 
BRANCH   9  15
ATOM     14  C   UNL     1       5.908   4.408  14.418  0.00  0.00    +0.000 C 
ATOM     15  C   UNL     1       5.429   4.084  15.627  0.00  0.00    +0.000 C 
ENDBRANCH   9  15
ENDBRANCH   1  13
TORSDOF 3
ENDMDL
MODEL 5
REMARK VINA RESULT:      -6.0      0.884      1.066
REMARK  Name = 
REMARK  4 active torsions:
REMARK  status: ('A' for Active; 'I' for Inactive)
REMARK    1  A    between atoms: C_2  and  C_3
REMARK    2  A    between atoms: N_7  and  N_8
REMARK    3  A    between atoms: N_8  and  C_9
REMARK    4  A    between atoms: N_8  and  C_10
REMARK                            x       y       z     vdW  Elec       q    Type
REMARK                         _______ _______ _______ _____ _____    ______ ____
ROOT
ATOM      1  N   UNL     1       3.563   4.138  18.005  0.00  0.00    +0.000 N 
ATOM      2  C   UNL     1       2.780   3.386  17.025  0.00  0.00    +0.000 C 
ENDROOT
BRANCH   1   3
ATOM      3  C   UNL     1       4.925   4.289  17.643  0.00  0.00    +0.000 A 
ATOM      4  C   UNL     1       5.896   4.746  18.534  0.00  0.00    +0.000 A 
ATOM      5  C   UNL     1       7.200   4.899  18.085  0.00  0.00    +0.000 A 
ATOM      6  N   UNL     1       7.598   4.655  16.819  0.00  0.00    +0.000 NA
ATOM      7  C   UNL     1       6.646   4.236  15.962  0.00  0.00    +0.000 A 
ATOM      8  C   UNL     1       5.323   4.033  16.322  0.00  0.00    +0.000 A 
ENDBRANCH   1   3
BRANCH   1  13
ATOM      9  C   UNL     1       2.581   5.029  20.121  0.00  0.00    +0.000 A 
ATOM     10  C   UNL     1       2.178   4.450  21.317  0.00  0.00    +0.000 A 
ATOM     11  C   UNL     1       2.485   3.075  21.271  0.00  0.00    +0.000 A 
ATOM     12  C   UNL     1       3.098   2.840  20.064  0.00  0.00    +0.000 A 
ATOM     13  N   UNL     1       3.129   4.014  19.336  0.00  0.00    +0.000 N 
BRANCH   9  15
ATOM     14  C   UNL     1       1.895   7.338  20.308  0.00  0.00    +0.000 C 
ATOM     15  C   UNL     1       2.524   6.365  19.634  0.00  0.00    +0.000 C 
ENDBRANCH   9  15
ENDBRANCH   1  13
TORSDOF 3
ENDMDL
MODEL 6
REMARK VINA RESULT:      -5.9      1.376      4.992
REMARK  Name = 
REMARK  4 active torsions:
REMARK  status: ('A' for Active; 'I' for Inactive)
REMARK    1  A    between atoms: C_2  and  C_3
REMARK    2  A    between atoms: N_7  and  N_8
REMARK    3  A    between atoms: N_8  and  C_9
REMARK    4  A    between atoms: N_8  and  C_10
REMARK                            x       y       z     vdW  Elec       q    Type
REMARK                         _______ _______ _______ _____ _____    ______ ____
ROOT
ATOM      1  N   UNL     1       4.143   5.168  18.250  0.00  0.00    +0.000 N 
ATOM      2  C   UNL     1       3.623   6.461  17.807  0.00  0.00    +0.000 C 
ENDROOT
BRANCH   1   3
ATOM      3  C   UNL     1       3.362   4.562  19.265  0.00  0.00    +0.000 A 
ATOM      4  C   UNL     1       3.625   3.286  19.759  0.00  0.00    +0.000 A 
ATOM      5  C   UNL     1       2.785   2.754  20.728  0.00  0.00    +0.000 A 
ATOM      6  N   UNL     1       1.700   3.388  21.218  0.00  0.00    +0.000 NA
ATOM      7  C   UNL     1       1.443   4.612  20.716  0.00  0.00    +0.000 A 
ATOM      8  C   UNL     1       2.235   5.233  19.764  0.00  0.00    +0.000 A 
ENDBRANCH   1   3
BRANCH   1  13
ATOM      9  C   UNL     1       6.249   4.481  17.097  0.00  0.00    +0.000 A 
ATOM     10  C   UNL     1       7.600   4.650  17.371  0.00  0.00    +0.000 A 
ATOM     11  C   UNL     1       7.723   5.296  18.618  0.00  0.00    +0.000 A 
ATOM     12  C   UNL     1       6.450   5.484  19.100  0.00  0.00    +0.000 A 
ATOM     13  N   UNL     1       5.540   5.027  18.166  0.00  0.00    +0.000 N 
BRANCH   9  15
ATOM     14  C   UNL     1       5.880   4.172  14.729  0.00  0.00    +0.000 C 
ATOM     15  C   UNL     1       5.559   3.892  15.999  0.00  0.00    +0.000 C 
ENDBRANCH   9  15
ENDBRANCH   1  13
TORSDOF 3
ENDMDL
MODEL 7
REMARK VINA RESULT:      -5.9      1.735      5.028
REMARK  Name = 
REMARK  4 active torsions:
REMARK  status: ('A' for Active; 'I' for Inactive)
REMARK    1  A    between atoms: C_2  and  C_3
REMARK    2  A    between atoms: N_7  and  N_8
REMARK    3  A    between atoms: N_8  and  C_9
REMARK    4  A    between atoms: N_8  and  C_10
REMARK                            x       y       z     vdW  Elec       q    Type
REMARK                         _______ _______ _______ _____ _____    ______ ____
ROOT
ATOM      1  N   UNL     1       4.764   4.903  18.180  0.00  0.00    +0.000 N 
ATOM      2  C   UNL     1       4.375   3.642  18.811  0.00  0.00    +0.000 C 
ENDROOT
BRANCH   1   3
ATOM      3  C   UNL     1       3.847   5.958  18.414  0.00  0.00    +0.000 A 
ATOM      4  C   UNL     1       3.724   7.054  17.561  0.00  0.00    +0.000 A 
ATOM      5  C   UNL     1       2.826   8.061  17.887  0.00  0.00    +0.000 A 
ATOM      6  N   UNL     1       2.066   8.064  19.002  0.00  0.00    +0.000 NA
ATOM      7  C   UNL     1       2.210   7.010  19.830  0.00  0.00    +0.000 A 
ATOM      8  C   UNL     1       3.065   5.948  19.579  0.00  0.00    +0.000 A 
ENDBRANCH   1   3
BRANCH   1  13
ATOM      9  C   UNL     1       6.784   5.258  16.755  0.00  0.00    +0.000 A 
ATOM     10  C   UNL     1       7.175   4.802  15.504  0.00  0.00    +0.000 A 
ATOM     11  C   UNL     1       6.123   4.038  14.960  0.00  0.00    +0.000 A 
ATOM     12  C   UNL     1       5.095   4.064  15.871  0.00  0.00    +0.000 A 
ATOM     13  N   UNL     1       5.498   4.771  16.988  0.00  0.00    +0.000 N 
BRANCH   9  15
ATOM     14  C   UNL     1       7.566   7.390  17.580  0.00  0.00    +0.000 C 
ATOM     15  C   UNL     1       7.437   6.065  17.730  0.00  0.00    +0.000 C 
ENDBRANCH   9  15
ENDBRANCH   1  13
TORSDOF 3
ENDMDL
MODEL 8
REMARK VINA RESULT:      -5.9      0.868      1.597
REMARK  Name = 
REMARK  4 active torsions:
REMARK  status: ('A' for Active; 'I' for Inactive)
REMARK    1  A    between atoms: C_2  and  C_3
REMARK    2  A    between atoms: N_7  and  N_8
REMARK    3  A    between atoms: N_8  and  C_9
REMARK    4  A    between atoms: N_8  and  C_10
REMARK                            x       y       z     vdW  Elec       q    Type
REMARK                         _______ _______ _______ _____ _____    ______ ____
ROOT
ATOM      1  N   UNL     1       3.532   4.098  17.950  0.00  0.00    +0.000 N 
ATOM      2  C   UNL     1       2.778   3.282  16.999  0.00  0.00    +0.000 C 
ENDROOT
BRANCH   1   3
ATOM      3  C   UNL     1       4.881   4.305  17.570  0.00  0.00    +0.000 A 
ATOM      4  C   UNL     1       5.345   4.068  16.276  0.00  0.00    +0.000 A 
ATOM      5  C   UNL     1       6.692   4.261  16.000  0.00  0.00    +0.000 A 
ATOM      6  N   UNL     1       7.603   4.649  16.916  0.00  0.00    +0.000 NA
ATOM      7  C   UNL     1       7.147   4.854  18.167  0.00  0.00    +0.000 A 
ATOM      8  C   UNL     1       5.819   4.707  18.533  0.00  0.00    +0.000 A 
ENDBRANCH   1   3
BRANCH   1  13
ATOM      9  C   UNL     1       2.599   5.019  20.076  0.00  0.00    +0.000 A 
ATOM     10  C   UNL     1       2.205   4.455  21.281  0.00  0.00    +0.000 A 
ATOM     11  C   UNL     1       2.489   3.075  21.241  0.00  0.00    +0.000 A 
ATOM     12  C   UNL     1       3.079   2.822  20.026  0.00  0.00    +0.000 A 
ATOM     13  N   UNL     1       3.118   3.990  19.289  0.00  0.00    +0.000 N 
BRANCH   9  15
ATOM     14  C   UNL     1       1.936   7.336  20.247  0.00  0.00    +0.000 C 
ATOM     15  C   UNL     1       2.555   6.353  19.580  0.00  0.00    +0.000 C 
ENDBRANCH   9  15
ENDBRANCH   1  13
TORSDOF 3
ENDMDL
MODEL 9
REMARK VINA RESULT:      -5.8      1.740      4.906
REMARK  Name = 
REMARK  4 active torsions:
REMARK  status: ('A' for Active; 'I' for Inactive)
REMARK    1  A    between atoms: C_2  and  C_3
REMARK    2  A    between atoms: N_7  and  N_8
REMARK    3  A    between atoms: N_8  and  C_9
REMARK    4  A    between atoms: N_8  and  C_10
REMARK                            x       y       z     vdW  Elec       q    Type
REMARK                         _______ _______ _______ _____ _____    ______ ____
ROOT
ATOM      1  N   UNL     1       4.835   4.882  18.330  0.00  0.00    +0.000 N 
ATOM      2  C   UNL     1       4.479   3.626  18.991  0.00  0.00    +0.000 C 
ENDROOT
BRANCH   1   3
ATOM      3  C   UNL     1       3.920   5.934  18.587  0.00  0.00    +0.000 A 
ATOM      4  C   UNL     1       3.085   5.951  19.703  0.00  0.00    +0.000 A 
ATOM      5  C   UNL     1       2.193   7.003  19.857  0.00  0.00    +0.000 A 
ATOM      6  N   UNL     1       2.058   8.016  18.977  0.00  0.00    +0.000 NA
ATOM      7  C   UNL     1       2.855   7.976  17.890  0.00  0.00    +0.000 A 
ATOM      8  C   UNL     1       3.791   6.980  17.661  0.00  0.00    +0.000 A 
ENDBRANCH   1   3
BRANCH   1  13
ATOM      9  C   UNL     1       6.787   5.252  16.817  0.00  0.00    +0.000 A 
ATOM     10  C   UNL     1       7.139   4.776  15.561  0.00  0.00    +0.000 A 
ATOM     11  C   UNL     1       6.084   3.975  15.077  0.00  0.00    +0.000 A 
ATOM     12  C   UNL     1       5.093   3.999  16.029  0.00  0.00    +0.000 A 
ATOM     13  N   UNL     1       5.523   4.741  17.112  0.00  0.00    +0.000 N 
BRANCH   9  15
ATOM     14  C   UNL     1       7.566   7.417  17.554  0.00  0.00    +0.000 C 
ATOM     15  C   UNL     1       7.458   6.095  17.747  0.00  0.00    +0.000 C 
ENDBRANCH   9  15
ENDBRANCH   1  13
TORSDOF 3
ENDMDL
