MODEL 1
REMARK VINA RESULT:      -4.8      0.000      0.000
REMARK  Name = 
REMARK  2 active torsions:
REMARK  status: ('A' for Active; 'I' for Inactive)
REMARK    1  A    between atoms: C_2  and  O_3
REMARK    2  A    between atoms: C_2  and  C_4
REMARK                            x       y       z     vdW  Elec       q    Type
REMARK                         _______ _______ _______ _____ _____    ______ ____
ROOT
ATOM      1  C   UNL     1       3.637   3.416  17.790  0.00  0.00    +0.000 C 
ATOM      2  C   UNL     1       2.438   4.369  17.801  0.00  0.00    +0.000 C 
ATOM      3  C   UNL     1       1.395   3.966  18.843  0.00  0.00    +0.000 C 
ATOM      4  C   UNL     1       1.057   2.479  18.762  0.00  0.00    +0.000 C 
ATOM      5  N   UNL     1       2.268   1.647  18.850  0.00  0.00    +0.000 NA
ATOM      6  C   UNL     1       3.188   1.954  17.739  0.00  0.00    +0.000 C 
ATOM      7  H   UNL     1       1.980   0.667  18.764  0.00  0.00    +0.000 HD
ENDROOT
BRANCH   1   9
ATOM      8  O   UNL     1       4.814   4.833  19.352  0.00  0.00    +0.000 OA
ATOM      9  C   UNL     1       4.565   3.700  18.960  0.00  0.00    +0.000 C 
BRANCH   9  10
ATOM     10  O   UNL     1       5.048   2.602  19.584  0.00  0.00    +0.000 OA
ATOM     11  H   UNL     1       6.033   2.540  19.504  0.00  0.00    +0.000 HD
ENDBRANCH   9  10
ENDBRANCH   1   9
TORSDOF 2
ENDMDL
MODEL 2
REMARK VINA RESULT:      -4.8      4.893      5.512
REMARK  Name = 
REMARK  2 active torsions:
REMARK  status: ('A' for Active; 'I' for Inactive)
REMARK    1  A    between atoms: C_2  and  O_3
REMARK    2  A    between atoms: C_2  and  C_4
REMARK                            x       y       z     vdW  Elec       q    Type
REMARK                         _______ _______ _______ _____ _____    ______ ____
ROOT
ATOM      1  C   UNL     1       6.361   4.282  15.931  0.00  0.00    +0.000 C 
ATOM      2  C   UNL     1       4.977   4.908  16.131  0.00  0.00    +0.000 C 
ATOM      3  C   UNL     1       5.041   6.433  16.198  0.00  0.00    +0.000 C 
ATOM      4  C   UNL     1       6.128   6.914  17.156  0.00  0.00    +0.000 C 
ATOM      5  N   UNL     1       7.436   6.325  16.824  0.00  0.00    +0.000 NA
ATOM      6  C   UNL     1       7.379   4.854  16.919  0.00  0.00    +0.000 C 
ATOM      7  H   UNL     1       8.114   6.663  17.515  0.00  0.00    +0.000 HD
ENDROOT
BRANCH   1   9
ATOM      8  O   UNL     1       7.597   5.279  14.111  0.00  0.00    +0.000 OA
ATOM      9  C   UNL     1       6.811   4.418  14.485  0.00  0.00    +0.000 C 
BRANCH   9  10
ATOM     10  O   UNL     1       6.328   3.474  13.647  0.00  0.00    +0.000 OA
ATOM     11  H   UNL     1       6.578   3.657  12.707  0.00  0.00    +0.000 HD
ENDBRANCH   9  10
ENDBRANCH   1   9
TORSDOF 2
ENDMDL
MODEL 3
REMARK VINA RESULT:      -4.7      2.471      3.518
REMARK  Name = 
REMARK  2 active torsions:
REMARK  status: ('A' for Active; 'I' for Inactive)
REMARK    1  A    between atoms: C_2  and  O_3
REMARK    2  A    between atoms: C_2  and  C_4
REMARK                            x       y       z     vdW  Elec       q    Type
REMARK                         _______ _______ _______ _____ _____    ______ ____
ROOT
ATOM      1  C   UNL     1       4.023   3.867  18.700  0.00  0.00    +0.000 C 
ATOM      2  C   UNL     1       3.797   4.101  17.204  0.00  0.00    +0.000 C 
ATOM      3  C   UNL     1       5.061   3.841  16.385  0.00  0.00    +0.000 C 
ATOM      4  C   UNL     1       6.279   4.539  16.986  0.00  0.00    +0.000 C 
ATOM      5  N   UNL     1       6.460   4.179  18.402  0.00  0.00    +0.000 NA
ATOM      6  C   UNL     1       5.282   4.582  19.192  0.00  0.00    +0.000 C 
ATOM      7  H   UNL     1       7.273   4.696  18.754  0.00  0.00    +0.000 HD
ENDROOT
BRANCH   1   9
ATOM      8  O   UNL     1       3.242   1.588  18.527  0.00  0.00    +0.000 OA
ATOM      9  C   UNL     1       4.034   2.381  19.019  0.00  0.00    +0.000 C 
BRANCH   9  10
ATOM     10  O   UNL     1       5.030   1.983  19.843  0.00  0.00    +0.000 OA
ATOM     11  H   UNL     1       5.889   2.421  19.617  0.00  0.00    +0.000 HD
ENDBRANCH   9  10
ENDBRANCH   1   9
TORSDOF 2
ENDMDL
MODEL 4
REMARK VINA RESULT:      -4.7      3.820      4.434
REMARK  Name = 
REMARK  2 active torsions:
REMARK  status: ('A' for Active; 'I' for Inactive)
REMARK    1  A    between atoms: C_2  and  O_3
REMARK    2  A    between atoms: C_2  and  C_4
REMARK                            x       y       z     vdW  Elec       q    Type
REMARK                         _______ _______ _______ _____ _____    ______ ____
ROOT
ATOM      1  C   UNL     1       5.639   4.947  15.532  0.00  0.00    +0.000 C 
ATOM      2  C   UNL     1       5.124   6.312  15.999  0.00  0.00    +0.000 C 
ATOM      3  C   UNL     1       5.272   6.494  17.510  0.00  0.00    +0.000 C 
ATOM      4  C   UNL     1       4.742   5.288  18.282  0.00  0.00    +0.000 C 
ATOM      5  N   UNL     1       5.364   4.037  17.818  0.00  0.00    +0.000 NA
ATOM      6  C   UNL     1       5.072   3.814  16.389  0.00  0.00    +0.000 C 
ATOM      7  H   UNL     1       4.950   3.266  18.352  0.00  0.00    +0.000 HD
ENDROOT
BRANCH   1   9
ATOM      8  O   UNL     1       7.852   4.449  16.362  0.00  0.00    +0.000 OA
ATOM      9  C   UNL     1       7.158   4.933  15.477  0.00  0.00    +0.000 C 
BRANCH   9  10
ATOM     10  O   UNL     1       7.692   5.439  14.343  0.00  0.00    +0.000 OA
ATOM     11  H   UNL     1       7.048   5.412  13.592  0.00  0.00    +0.000 HD
ENDBRANCH   9  10
ENDBRANCH   1   9
TORSDOF 2
ENDMDL
MODEL 5
REMARK VINA RESULT:      -4.6      0.827      1.154
REMARK  Name = 
REMARK  2 active torsions:
REMARK  status: ('A' for Active; 'I' for Inactive)
REMARK    1  A    between atoms: C_2  and  O_3
REMARK    2  A    between atoms: C_2  and  C_4
REMARK                            x       y       z     vdW  Elec       q    Type
REMARK                         _______ _______ _______ _____ _____    ______ ____
ROOT
ATOM      1  C   UNL     1       3.417   3.408  18.192  0.00  0.00    +0.000 C 
ATOM      2  C   UNL     1       2.437   4.482  18.673  0.00  0.00    +0.000 C 
ATOM      3  C   UNL     1       1.388   3.914  19.629  0.00  0.00    +0.000 C 
ATOM      4  C   UNL     1       0.753   2.638  19.081  0.00  0.00    +0.000 C 
ATOM      5  N   UNL     1       1.775   1.637  18.733  0.00  0.00    +0.000 NA
ATOM      6  C   UNL     1       2.681   2.163  17.694  0.00  0.00    +0.000 C 
ATOM      7  H   UNL     1       1.291   0.818  18.349  0.00  0.00    +0.000 HD
ENDROOT
BRANCH   1   9
ATOM      8  O   UNL     1       4.213   2.321  20.197  0.00  0.00    +0.000 OA
ATOM      9  C   UNL     1       4.440   3.088  19.271  0.00  0.00    +0.000 C 
BRANCH   9  10
ATOM     10  O   UNL     1       5.650   3.666  19.098  0.00  0.00    +0.000 OA
ATOM     11  H   UNL     1       6.388   3.033  19.287  0.00  0.00    +0.000 HD
ENDBRANCH   9  10
ENDBRANCH   1   9
TORSDOF 2
ENDMDL
MODEL 6
REMARK VINA RESULT:      -4.6      1.524      1.879
REMARK  Name = 
REMARK  2 active torsions:
REMARK  status: ('A' for Active; 'I' for Inactive)
REMARK    1  A    between atoms: C_2  and  O_3
REMARK    2  A    between atoms: C_2  and  C_4
REMARK                            x       y       z     vdW  Elec       q    Type
REMARK                         _______ _______ _______ _____ _____    ______ ____
ROOT
ATOM      1  C   UNL     1       3.555   3.155  19.015  0.00  0.00    +0.000 C 
ATOM      2  C   UNL     1       2.652   3.633  20.156  0.00  0.00    +0.000 C 
ATOM      3  C   UNL     1       1.409   2.756  20.309  0.00  0.00    +0.000 C 
ATOM      4  C   UNL     1       0.714   2.518  18.971  0.00  0.00    +0.000 C 
ATOM      5  N   UNL     1       1.646   1.975  17.970  0.00  0.00    +0.000 NA
ATOM      6  C   UNL     1       2.756   2.918  17.732  0.00  0.00    +0.000 C 
ATOM      7  H   UNL     1       1.130   1.863  17.091  0.00  0.00    +0.000 HD
ENDROOT
BRANCH   1   9
ATOM      8  O   UNL     1       5.012   1.891  20.469  0.00  0.00    +0.000 OA
ATOM      9  C   UNL     1       4.357   1.934  19.436  0.00  0.00    +0.000 C 
BRANCH   9  10
ATOM     10  O   UNL     1       4.244   0.868  18.613  0.00  0.00    +0.000 OA
ATOM     11  H   UNL     1       3.996   0.047  19.109  0.00  0.00    +0.000 HD
ENDBRANCH   9  10
ENDBRANCH   1   9
TORSDOF 2
ENDMDL
MODEL 7
REMARK VINA RESULT:      -4.6      4.888      5.574
REMARK  Name = 
REMARK  2 active torsions:
REMARK  status: ('A' for Active; 'I' for Inactive)
REMARK    1  A    between atoms: C_2  and  O_3
REMARK    2  A    between atoms: C_2  and  C_4
REMARK                            x       y       z     vdW  Elec       q    Type
REMARK                         _______ _______ _______ _____ _____    ______ ____
ROOT
ATOM      1  C   UNL     1       6.337   4.272  15.873  0.00  0.00    +0.000 C 
ATOM      2  C   UNL     1       4.954   4.857  16.172  0.00  0.00    +0.000 C 
ATOM      3  C   UNL     1       4.986   6.382  16.275  0.00  0.00    +0.000 C 
ATOM      4  C   UNL     1       6.117   6.866  17.179  0.00  0.00    +0.000 C 
ATOM      5  N   UNL     1       7.416   6.319  16.754  0.00  0.00    +0.000 NA
ATOM      6  C   UNL     1       7.400   4.845  16.813  0.00  0.00    +0.000 C 
ATOM      7  H   UNL     1       8.127   6.657  17.412  0.00  0.00    +0.000 HD
ENDROOT
BRANCH   1   9
ATOM      8  O   UNL     1       6.084   3.909  13.499  0.00  0.00    +0.000 OA
ATOM      9  C   UNL     1       6.697   4.455  14.408  0.00  0.00    +0.000 C 
BRANCH   9  10
ATOM     10  O   UNL     1       7.709   5.318  14.173  0.00  0.00    +0.000 OA
ATOM     11  H   UNL     1       7.375   6.204  13.880  0.00  0.00    +0.000 HD
ENDBRANCH   9  10
ENDBRANCH   1   9
TORSDOF 2
ENDMDL
MODEL 8
REMARK VINA RESULT:      -4.6      2.326      2.971
REMARK  Name = 
REMARK  2 active torsions:
REMARK  status: ('A' for Active; 'I' for Inactive)
REMARK    1  A    between atoms: C_2  and  O_3
REMARK    2  A    between atoms: C_2  and  C_4
REMARK                            x       y       z     vdW  Elec       q    Type
REMARK                         _______ _______ _______ _____ _____    ______ ____
ROOT
ATOM      1  C   UNL     1       2.667   3.773  19.969  0.00  0.00    +0.000 C 
ATOM      2  C   UNL     1       1.807   3.577  18.717  0.00  0.00    +0.000 C 
ATOM      3  C   UNL     1       2.069   2.229  18.046  0.00  0.00    +0.000 C 
ATOM      4  C   UNL     1       3.563   1.963  17.871  0.00  0.00    +0.000 C 
ATOM      5  N   UNL     1       4.284   2.088  19.148  0.00  0.00    +0.000 NA
ATOM      6  C   UNL     1       4.137   3.451  19.693  0.00  0.00    +0.000 C 
ATOM      7  H   UNL     1       5.279   1.926  18.961  0.00  0.00    +0.000 HD
ENDROOT
BRANCH   1   9
ATOM      8  O   UNL     1       2.815   2.470  21.998  0.00  0.00    +0.000 OA
ATOM      9  C   UNL     1       2.107   2.980  21.139  0.00  0.00    +0.000 C 
BRANCH   9  10
ATOM     10  O   UNL     1       0.757   2.929  21.199  0.00  0.00    +0.000 OA
ATOM     11  H   UNL     1       0.351   3.821  21.056  0.00  0.00    +0.000 HD
ENDBRANCH   9  10
ENDBRANCH   1   9
TORSDOF 2
ENDMDL
MODEL 9
REMARK VINA RESULT:      -4.6      2.746      3.978
REMARK  Name = 
REMARK  2 active torsions:
REMARK  status: ('A' for Active; 'I' for Inactive)
REMARK    1  A    between atoms: C_2  and  O_3
REMARK    2  A    between atoms: C_2  and  C_4
REMARK                            x       y       z     vdW  Elec       q    Type
REMARK                         _______ _______ _______ _____ _____    ______ ____
ROOT
ATOM      1  C   UNL     1       4.727   4.728  18.292  0.00  0.00    +0.000 C 
ATOM      2  C   UNL     1       4.686   4.827  16.764  0.00  0.00    +0.000 C 
ATOM      3  C   UNL     1       5.888   4.143  16.112  0.00  0.00    +0.000 C 
ATOM      4  C   UNL     1       7.202   4.560  16.767  0.00  0.00    +0.000 C 
ATOM      5  N   UNL     1       7.171   4.342  18.222  0.00  0.00    +0.000 NA
ATOM      6  C   UNL     1       6.095   5.138  18.841  0.00  0.00    +0.000 C 
ATOM      7  H   UNL     1       8.066   4.664  18.605  0.00  0.00    +0.000 HD
ENDROOT
BRANCH   1   9
ATOM      8  O   UNL     1       3.257   2.815  18.406  0.00  0.00    +0.000 OA
ATOM      9  C   UNL     1       4.305   3.343  18.755  0.00  0.00    +0.000 C 
BRANCH   9  10
ATOM     10  O   UNL     1       5.205   2.704  19.535  0.00  0.00    +0.000 OA
ATOM     11  H   UNL     1       4.890   2.630  20.471  0.00  0.00    +0.000 HD
ENDBRANCH   9  10
ENDBRANCH   1   9
TORSDOF 2
ENDMDL
