MODEL 1
REMARK VINA RESULT:      -6.5      0.000      0.000
REMARK  Name = 
REMARK  6 active torsions:
REMARK  status: ('A' for Active; 'I' for Inactive)
REMARK    1  A    between atoms: C_3  and  C_4
REMARK    2  A    between atoms: C_6  and  C_7
REMARK    3  A    between atoms: C_7  and  C_8
REMARK    4  A    between atoms: C_8  and  N_9
REMARK    5  A    between atoms: N_9  and  C_10
REMARK    6  A    between atoms: C_10  and  C_11
REMARK                            x       y       z     vdW  Elec       q    Type
REMARK                         _______ _______ _______ _____ _____    ______ ____
ROOT
ATOM      1  C   UNL     1       2.605   6.508  18.206  0.00  0.00    +0.000 C 
ENDROOT
BRANCH   1   4
ATOM      2  C   UNL     1       4.602   5.083  17.373  0.00  0.00    +0.000 C 
ATOM      3  C   UNL     1       4.939   5.540  18.774  0.00  0.00    +0.000 C 
ATOM      4  C   UNL     1       4.075   6.403  17.906  0.00  0.00    +0.000 C 
BRANCH   2   7
ATOM      5  C   UNL     1       6.476   4.681  14.360  0.00  0.00    +0.000 A 
ATOM      6  N   UNL     1       5.368   4.559  15.049  0.00  0.00    +0.000 NA
ATOM      7  C   UNL     1       5.656   5.061  16.293  0.00  0.00    +0.000 A 
ATOM      8  C   UNL     1       6.962   5.481  16.358  0.00  0.00    +0.000 A 
ATOM      9  N   UNL     1       7.477   5.221  15.115  0.00  0.00    +0.000 N 
ATOM     10  H   UNL     1       8.424   5.391  14.805  0.00  0.00    +0.000 HD
ENDBRANCH   2   7
ENDBRANCH   1   4
BRANCH   1  11
ATOM     11  C   UNL     1       2.312   7.101  19.589  0.00  0.00    +0.000 C 
BRANCH  11  12
ATOM     12  N   UNL     1       1.548   6.109  20.355  0.00  0.00    +0.000 NA
ATOM     13  H   UNL     1       0.883   5.663  19.731  0.00  0.00    +0.000 HD
BRANCH  12  14
ATOM     14  C   UNL     1       2.396   5.097  20.976  0.00  0.00    +0.000 C 
BRANCH  14  15
ATOM     15  C   UNL     1       1.641   3.743  21.079  0.00  0.00    +0.000 C 
ATOM     16  C   UNL     1       0.808   3.395  19.833  0.00  0.00    +0.000 C 
ATOM     17  C   UNL     1       1.675   3.139  18.604  0.00  0.00    +0.000 C 
ATOM     18  C   UNL     1       2.760   2.092  18.859  0.00  0.00    +0.000 C 
ATOM     19  C   UNL     1       3.527   2.295  20.164  0.00  0.00    +0.000 C 
ATOM     20  C   UNL     1       2.611   2.584  21.351  0.00  0.00    +0.000 C 
ENDBRANCH  14  15
ENDBRANCH  12  14
ENDBRANCH  11  12
ENDBRANCH   1  11
TORSDOF 6
ENDMDL
MODEL 2
REMARK VINA RESULT:      -6.3      1.942      2.995
REMARK  Name = 
REMARK  6 active torsions:
REMARK  status: ('A' for Active; 'I' for Inactive)
REMARK    1  A    between atoms: C_3  and  C_4
REMARK    2  A    between atoms: C_6  and  C_7
REMARK    3  A    between atoms: C_7  and  C_8
REMARK    4  A    between atoms: C_8  and  N_9
REMARK    5  A    between atoms: N_9  and  C_10
REMARK    6  A    between atoms: C_10  and  C_11
REMARK                            x       y       z     vdW  Elec       q    Type
REMARK                         _______ _______ _______ _____ _____    ______ ____
ROOT
ATOM      1  C   UNL     1       6.656   5.172  17.947  0.00  0.00    +0.000 C 
ENDROOT
BRANCH   1   4
ATOM      2  C   UNL     1       6.086   5.353  15.426  0.00  0.00    +0.000 C 
ATOM      3  C   UNL     1       4.877   4.756  16.111  0.00  0.00    +0.000 C 
ATOM      4  C   UNL     1       6.243   4.495  16.669  0.00  0.00    +0.000 C 
BRANCH   2   7
ATOM      5  C   UNL     1       7.724   4.778  12.306  0.00  0.00    +0.000 A 
ATOM      6  N   UNL     1       7.582   5.450  13.422  0.00  0.00    +0.000 NA
ATOM      7  C   UNL     1       6.544   4.841  14.082  0.00  0.00    +0.000 A 
ATOM      8  C   UNL     1       6.047   3.793  13.347  0.00  0.00    +0.000 A 
ATOM      9  N   UNL     1       6.806   3.772  12.207  0.00  0.00    +0.000 N 
ATOM     10  H   UNL     1       6.710   3.136  11.428  0.00  0.00    +0.000 HD
ENDBRANCH   2   7
ENDBRANCH   1   4
BRANCH   1  11
ATOM     11  C   UNL     1       5.650   4.974  19.087  0.00  0.00    +0.000 C 
BRANCH  11  12
ATOM     12  N   UNL     1       5.540   3.535  19.351  0.00  0.00    +0.000 NA
ATOM     13  H   UNL     1       6.004   3.331  20.230  0.00  0.00    +0.000 HD
BRANCH  12  14
ATOM     14  C   UNL     1       4.157   3.072  19.405  0.00  0.00    +0.000 C 
BRANCH  14  15
ATOM     15  C   UNL     1       3.180   4.279  19.442  0.00  0.00    +0.000 C 
ATOM     16  C   UNL     1       2.079   4.225  18.369  0.00  0.00    +0.000 C 
ATOM     17  C   UNL     1       1.105   3.072  18.590  0.00  0.00    +0.000 C 
ATOM     18  C   UNL     1       0.512   3.066  19.998  0.00  0.00    +0.000 C 
ATOM     19  C   UNL     1       1.540   3.268  21.109  0.00  0.00    +0.000 C 
ATOM     20  C   UNL     1       2.510   4.411  20.817  0.00  0.00    +0.000 C 
ENDBRANCH  14  15
ENDBRANCH  12  14
ENDBRANCH  11  12
ENDBRANCH   1  11
TORSDOF 6
ENDMDL
MODEL 3
REMARK VINA RESULT:      -6.2      2.500      3.970
REMARK  Name = 
REMARK  6 active torsions:
REMARK  status: ('A' for Active; 'I' for Inactive)
REMARK    1  A    between atoms: C_3  and  C_4
REMARK    2  A    between atoms: C_6  and  C_7
REMARK    3  A    between atoms: C_7  and  C_8
REMARK    4  A    between atoms: C_8  and  N_9
REMARK    5  A    between atoms: N_9  and  C_10
REMARK    6  A    between atoms: C_10  and  C_11
REMARK                            x       y       z     vdW  Elec       q    Type
REMARK                         _______ _______ _______ _____ _____    ______ ____
ROOT
ATOM      1  C   UNL     1       7.145   4.348  16.631  0.00  0.00    +0.000 C 
ENDROOT
BRANCH   1   4
ATOM      2  C   UNL     1       6.465   4.503  14.136  0.00  0.00    +0.000 C 
ATOM      3  C   UNL     1       5.440   5.288  14.923  0.00  0.00    +0.000 C 
ATOM      4  C   UNL     1       6.116   4.112  15.561  0.00  0.00    +0.000 C 
BRANCH   2   7
ATOM      5  C   UNL     1       4.731   2.816  11.510  0.00  0.00    +0.000 A 
ATOM      6  N   UNL     1       4.767   3.684  12.491  0.00  0.00    +0.000 NA
ATOM      7  C   UNL     1       6.048   3.628  12.979  0.00  0.00    +0.000 A 
ATOM      8  C   UNL     1       6.792   2.703  12.289  0.00  0.00    +0.000 A 
ATOM      9  N   UNL     1       5.931   2.183  11.359  0.00  0.00    +0.000 N 
ATOM     10  H   UNL     1       6.136   1.462  10.682  0.00  0.00    +0.000 HD
ENDBRANCH   2   7
ENDBRANCH   1   4
BRANCH   1  11
ATOM     11  C   UNL     1       6.556   4.948  17.914  0.00  0.00    +0.000 C 
BRANCH  11  12
ATOM     12  N   UNL     1       6.026   3.847  18.728  0.00  0.00    +0.000 NA
ATOM     13  H   UNL     1       6.482   3.868  19.634  0.00  0.00    +0.000 HD
BRANCH  12  14
ATOM     14  C   UNL     1       4.579   3.916  18.902  0.00  0.00    +0.000 C 
BRANCH  14  15
ATOM     15  C   UNL     1       3.866   2.930  17.937  0.00  0.00    +0.000 C 
ATOM     16  C   UNL     1       3.226   1.720  18.639  0.00  0.00    +0.000 C 
ATOM     17  C   UNL     1       2.062   2.118  19.541  0.00  0.00    +0.000 C 
ATOM     18  C   UNL     1       1.014   2.957  18.810  0.00  0.00    +0.000 C 
ATOM     19  C   UNL     1       1.598   4.089  17.967  0.00  0.00    +0.000 C 
ATOM     20  C   UNL     1       2.782   3.641  17.114  0.00  0.00    +0.000 C 
ENDBRANCH  14  15
ENDBRANCH  12  14
ENDBRANCH  11  12
ENDBRANCH   1  11
TORSDOF 6
ENDMDL
MODEL 4
REMARK VINA RESULT:      -6.2      1.429      2.527
REMARK  Name = 
REMARK  6 active torsions:
REMARK  status: ('A' for Active; 'I' for Inactive)
REMARK    1  A    between atoms: C_3  and  C_4
REMARK    2  A    between atoms: C_6  and  C_7
REMARK    3  A    between atoms: C_7  and  C_8
REMARK    4  A    between atoms: C_8  and  N_9
REMARK    5  A    between atoms: N_9  and  C_10
REMARK    6  A    between atoms: C_10  and  C_11
REMARK                            x       y       z     vdW  Elec       q    Type
REMARK                         _______ _______ _______ _____ _____    ______ ____
ROOT
ATOM      1  C   UNL     1       5.168   5.945  18.588  0.00  0.00    +0.000 C 
ENDROOT
BRANCH   1   4
ATOM      2  C   UNL     1       6.812   5.135  16.756  0.00  0.00    +0.000 C 
ATOM      3  C   UNL     1       7.270   6.510  17.185  0.00  0.00    +0.000 C 
ATOM      4  C   UNL     1       5.813   6.168  17.248  0.00  0.00    +0.000 C 
BRANCH   2   7
ATOM      5  C   UNL     1       7.419   4.821  13.252  0.00  0.00    +0.000 A 
ATOM      6  N   UNL     1       7.623   5.409  14.405  0.00  0.00    +0.000 NA
ATOM      7  C   UNL     1       6.838   4.730  15.303  0.00  0.00    +0.000 A 
ATOM      8  C   UNL     1       6.143   3.724  14.678  0.00  0.00    +0.000 A 
ATOM      9  N   UNL     1       6.517   3.802  13.363  0.00  0.00    +0.000 N 
ATOM     10  H   UNL     1       6.189   3.219  12.605  0.00  0.00    +0.000 HD
ENDBRANCH   2   7
ENDBRANCH   1   4
BRANCH   1  11
ATOM     11  C   UNL     1       3.640   6.075  18.551  0.00  0.00    +0.000 C 
BRANCH  11  12
ATOM     12  N   UNL     1       3.118   5.035  17.657  0.00  0.00    +0.000 NA
ATOM     13  H   UNL     1       3.772   4.259  17.647  0.00  0.00    +0.000 HD
BRANCH  12  14
ATOM     14  C   UNL     1       1.796   4.560  18.051  0.00  0.00    +0.000 C 
BRANCH  14  15
ATOM     15  C   UNL     1       1.808   3.020  18.251  0.00  0.00    +0.000 C 
ATOM     16  C   UNL     1       3.159   2.462  18.732  0.00  0.00    +0.000 C 
ATOM     17  C   UNL     1       3.514   2.928  20.141  0.00  0.00    +0.000 C 
ATOM     18  C   UNL     1       2.402   2.645  21.150  0.00  0.00    +0.000 C 
ATOM     19  C   UNL     1       1.007   3.039  20.669  0.00  0.00    +0.000 C 
ATOM     20  C   UNL     1       0.721   2.578  19.242  0.00  0.00    +0.000 C 
ENDBRANCH  14  15
ENDBRANCH  12  14
ENDBRANCH  11  12
ENDBRANCH   1  11
TORSDOF 6
ENDMDL
MODEL 5
REMARK VINA RESULT:      -6.1      1.365      2.022
REMARK  Name = 
REMARK  6 active torsions:
REMARK  status: ('A' for Active; 'I' for Inactive)
REMARK    1  A    between atoms: C_3  and  C_4
REMARK    2  A    between atoms: C_6  and  C_7
REMARK    3  A    between atoms: C_7  and  C_8
REMARK    4  A    between atoms: C_8  and  N_9
REMARK    5  A    between atoms: N_9  and  C_10
REMARK    6  A    between atoms: C_10  and  C_11
REMARK                            x       y       z     vdW  Elec       q    Type
REMARK                         _______ _______ _______ _____ _____    ______ ____
ROOT
ATOM      1  C   UNL     1       4.680   6.442  17.980  0.00  0.00    +0.000 C 
ENDROOT
BRANCH   1   4
ATOM      2  C   UNL     1       6.436   5.247  16.496  0.00  0.00    +0.000 C 
ATOM      3  C   UNL     1       7.076   6.522  16.999  0.00  0.00    +0.000 C 
ATOM      4  C   UNL     1       5.594   6.477  16.786  0.00  0.00    +0.000 C 
BRANCH   2   7
ATOM      5  C   UNL     1       7.480   4.803  13.111  0.00  0.00    +0.000 A 
ATOM      6  N   UNL     1       7.531   5.441  14.254  0.00  0.00    +0.000 NA
ATOM      7  C   UNL     1       6.649   4.785  15.075  0.00  0.00    +0.000 A 
ATOM      8  C   UNL     1       6.049   3.742  14.412  0.00  0.00    +0.000 A 
ATOM      9  N   UNL     1       6.584   3.774  13.151  0.00  0.00    +0.000 N 
ATOM     10  H   UNL     1       6.360   3.155  12.384  0.00  0.00    +0.000 HD
ENDBRANCH   2   7
ENDBRANCH   1   4
BRANCH   1  11
ATOM     11  C   UNL     1       3.461   7.361  17.833  0.00  0.00    +0.000 C 
BRANCH  11  12
ATOM     12  N   UNL     1       2.344   6.752  18.567  0.00  0.00    +0.000 NA
ATOM     13  H   UNL     1       1.671   6.398  17.895  0.00  0.00    +0.000 HD
BRANCH  12  14
ATOM     14  C   UNL     1       2.769   5.674  19.454  0.00  0.00    +0.000 C 
BRANCH  14  15
ATOM     15  C   UNL     1       1.817   4.454  19.322  0.00  0.00    +0.000 C 
ATOM     16  C   UNL     1       1.560   4.014  17.871  0.00  0.00    +0.000 C 
ATOM     17  C   UNL     1       2.813   3.463  17.198  0.00  0.00    +0.000 C 
ATOM     18  C   UNL     1       3.474   2.349  18.009  0.00  0.00    +0.000 C 
ATOM     19  C   UNL     1       3.621   2.663  19.496  0.00  0.00    +0.000 C 
ATOM     20  C   UNL     1       2.348   3.246  20.107  0.00  0.00    +0.000 C 
ENDBRANCH  14  15
ENDBRANCH  12  14
ENDBRANCH  11  12
ENDBRANCH   1  11
TORSDOF 6
ENDMDL
MODEL 6
REMARK VINA RESULT:      -6.1      1.806      2.316
REMARK  Name = 
REMARK  6 active torsions:
REMARK  status: ('A' for Active; 'I' for Inactive)
REMARK    1  A    between atoms: C_3  and  C_4
REMARK    2  A    between atoms: C_6  and  C_7
REMARK    3  A    between atoms: C_7  and  C_8
REMARK    4  A    between atoms: C_8  and  N_9
REMARK    5  A    between atoms: N_9  and  C_10
REMARK    6  A    between atoms: C_10  and  C_11
REMARK                            x       y       z     vdW  Elec       q    Type
REMARK                         _______ _______ _______ _____ _____    ______ ____
ROOT
ATOM      1  C   UNL     1       3.251   7.728  17.783  0.00  0.00    +0.000 C 
ENDROOT
BRANCH   1   4
ATOM      2  C   UNL     1       5.645   6.922  17.203  0.00  0.00    +0.000 C 
ATOM      3  C   UNL     1       4.786   6.673  15.983  0.00  0.00    +0.000 C 
ATOM      4  C   UNL     1       4.164   6.616  17.345  0.00  0.00    +0.000 C 
BRANCH   2   7
ATOM      5  C   UNL     1       8.137   5.029  18.921  0.00  0.00    +0.000 A 
ATOM      6  N   UNL     1       7.315   6.047  18.848  0.00  0.00    +0.000 NA
ATOM      7  C   UNL     1       6.679   5.913  17.640  0.00  0.00    +0.000 A 
ATOM      8  C   UNL     1       7.132   4.803  16.970  0.00  0.00    +0.000 A 
ATOM      9  N   UNL     1       8.075   4.254  17.799  0.00  0.00    +0.000 N 
ATOM     10  H   UNL     1       8.630   3.428  17.621  0.00  0.00    +0.000 HD
ENDBRANCH   2   7
ENDBRANCH   1   4
BRANCH   1  11
ATOM     11  C   UNL     1       2.469   7.399  19.060  0.00  0.00    +0.000 C 
BRANCH  11  12
ATOM     12  N   UNL     1       3.063   6.197  19.658  0.00  0.00    +0.000 NA
ATOM     13  H   UNL     1       3.500   6.456  20.537  0.00  0.00    +0.000 HD
BRANCH  12  14
ATOM     14  C   UNL     1       2.087   5.137  19.888  0.00  0.00    +0.000 C 
BRANCH  14  15
ATOM     15  C   UNL     1       2.802   3.809  20.260  0.00  0.00    +0.000 C 
ATOM     16  C   UNL     1       1.878   2.580  20.261  0.00  0.00    +0.000 C 
ATOM     17  C   UNL     1       1.362   2.236  18.867  0.00  0.00    +0.000 C 
ATOM     18  C   UNL     1       2.488   2.086  17.845  0.00  0.00    +0.000 C 
ATOM     19  C   UNL     1       3.529   3.203  17.895  0.00  0.00    +0.000 C 
ATOM     20  C   UNL     1       3.981   3.528  19.316  0.00  0.00    +0.000 C 
ENDBRANCH  14  15
ENDBRANCH  12  14
ENDBRANCH  11  12
ENDBRANCH   1  11
TORSDOF 6
ENDMDL
MODEL 7
REMARK VINA RESULT:      -6.1      1.676      2.562
REMARK  Name = 
REMARK  6 active torsions:
REMARK  status: ('A' for Active; 'I' for Inactive)
REMARK    1  A    between atoms: C_3  and  C_4
REMARK    2  A    between atoms: C_6  and  C_7
REMARK    3  A    between atoms: C_7  and  C_8
REMARK    4  A    between atoms: C_8  and  N_9
REMARK    5  A    between atoms: N_9  and  C_10
REMARK    6  A    between atoms: C_10  and  C_11
REMARK                            x       y       z     vdW  Elec       q    Type
REMARK                         _______ _______ _______ _____ _____    ______ ____
ROOT
ATOM      1  C   UNL     1       5.728   4.242  18.192  0.00  0.00    +0.000 C 
ENDROOT
BRANCH   1   4
ATOM      2  C   UNL     1       6.982   4.970  16.045  0.00  0.00    +0.000 C 
ATOM      3  C   UNL     1       6.328   6.208  16.616  0.00  0.00    +0.000 C 
ATOM      4  C   UNL     1       5.684   4.872  16.827  0.00  0.00    +0.000 C 
BRANCH   2   7
ATOM      5  C   UNL     1       7.602   4.995  12.529  0.00  0.00    +0.000 A 
ATOM      6  N   UNL     1       7.830   5.444  13.739  0.00  0.00    +0.000 NA
ATOM      7  C   UNL     1       6.998   4.722  14.556  0.00  0.00    +0.000 A 
ATOM      8  C   UNL     1       6.249   3.832  13.826  0.00  0.00    +0.000 A 
ATOM      9  N   UNL     1       6.639   4.027  12.527  0.00  0.00    +0.000 N 
ATOM     10  H   UNL     1       6.284   3.550  11.711  0.00  0.00    +0.000 HD
ENDBRANCH   2   7
ENDBRANCH   1   4
BRANCH   1  11
ATOM     11  C   UNL     1       5.457   5.239  19.325  0.00  0.00    +0.000 C 
BRANCH  11  12
ATOM     12  N   UNL     1       4.073   5.708  19.196  0.00  0.00    +0.000 NA
ATOM     13  H   UNL     1       3.770   5.561  18.238  0.00  0.00    +0.000 HD
BRANCH  12  14
ATOM     14  C   UNL     1       3.157   5.032  20.110  0.00  0.00    +0.000 C 
BRANCH  14  15
ATOM     15  C   UNL     1       1.735   4.948  19.493  0.00  0.00    +0.000 C 
ATOM     16  C   UNL     1       1.719   4.537  18.010  0.00  0.00    +0.000 C 
ATOM     17  C   UNL     1       2.200   3.105  17.796  0.00  0.00    +0.000 C 
ATOM     18  C   UNL     1       1.444   2.097  18.662  0.00  0.00    +0.000 C 
ATOM     19  C   UNL     1       1.292   2.520  20.122  0.00  0.00    +0.000 C 
ATOM     20  C   UNL     1       0.845   3.971  20.275  0.00  0.00    +0.000 C 
ENDBRANCH  14  15
ENDBRANCH  12  14
ENDBRANCH  11  12
ENDBRANCH   1  11
TORSDOF 6
ENDMDL
MODEL 8
REMARK VINA RESULT:      -6.0      2.187      3.758
REMARK  Name = 
REMARK  6 active torsions:
REMARK  status: ('A' for Active; 'I' for Inactive)
REMARK    1  A    between atoms: C_3  and  C_4
REMARK    2  A    between atoms: C_6  and  C_7
REMARK    3  A    between atoms: C_7  and  C_8
REMARK    4  A    between atoms: C_8  and  N_9
REMARK    5  A    between atoms: N_9  and  C_10
REMARK    6  A    between atoms: C_10  and  C_11
REMARK                            x       y       z     vdW  Elec       q    Type
REMARK                         _______ _______ _______ _____ _____    ______ ____
ROOT
ATOM      1  C   UNL     1       7.288   4.544  16.900  0.00  0.00    +0.000 C 
ENDROOT
BRANCH   1   4
ATOM      2  C   UNL     1       6.572   4.761  14.419  0.00  0.00    +0.000 C 
ATOM      3  C   UNL     1       5.471   5.377  15.253  0.00  0.00    +0.000 C 
ATOM      4  C   UNL     1       6.283   4.253  15.820  0.00  0.00    +0.000 C 
BRANCH   2   7
ATOM      5  C   UNL     1       6.635   2.814  11.428  0.00  0.00    +0.000 A 
ATOM      6  N   UNL     1       7.238   3.526  12.348  0.00  0.00    +0.000 NA
ATOM      7  C   UNL     1       6.247   3.911  13.215  0.00  0.00    +0.000 A 
ATOM      8  C   UNL     1       5.027   3.433  12.806  0.00  0.00    +0.000 A 
ATOM      9  N   UNL     1       5.290   2.741  11.652  0.00  0.00    +0.000 N 
ATOM     10  H   UNL     1       4.619   2.264  11.067  0.00  0.00    +0.000 HD
ENDBRANCH   2   7
ENDBRANCH   1   4
BRANCH   1  11
ATOM     11  C   UNL     1       6.643   4.963  18.227  0.00  0.00    +0.000 C 
BRANCH  11  12
ATOM     12  N   UNL     1       5.755   3.879  18.661  0.00  0.00    +0.000 NA
ATOM     13  H   UNL     1       6.243   3.318  19.352  0.00  0.00    +0.000 HD
BRANCH  12  14
ATOM     14  C   UNL     1       4.498   4.365  19.222  0.00  0.00    +0.000 C 
BRANCH  14  15
ATOM     15  C   UNL     1       3.427   4.515  18.108  0.00  0.00    +0.000 C 
ATOM     16  C   UNL     1       3.140   3.215  17.337  0.00  0.00    +0.000 C 
ATOM     17  C   UNL     1       2.485   2.151  18.211  0.00  0.00    +0.000 C 
ATOM     18  C   UNL     1       1.234   2.664  18.923  0.00  0.00    +0.000 C 
ATOM     19  C   UNL     1       1.409   4.029  19.585  0.00  0.00    +0.000 C 
ATOM     20  C   UNL     1       2.102   5.043  18.677  0.00  0.00    +0.000 C 
ENDBRANCH  14  15
ENDBRANCH  12  14
ENDBRANCH  11  12
ENDBRANCH   1  11
TORSDOF 6
ENDMDL
MODEL 9
REMARK VINA RESULT:      -6.0      2.044      3.004
REMARK  Name = 
REMARK  6 active torsions:
REMARK  status: ('A' for Active; 'I' for Inactive)
REMARK    1  A    between atoms: C_3  and  C_4
REMARK    2  A    between atoms: C_6  and  C_7
REMARK    3  A    between atoms: C_7  and  C_8
REMARK    4  A    between atoms: C_8  and  N_9
REMARK    5  A    between atoms: N_9  and  C_10
REMARK    6  A    between atoms: C_10  and  C_11
REMARK                            x       y       z     vdW  Elec       q    Type
REMARK                         _______ _______ _______ _____ _____    ______ ____
ROOT
ATOM      1  C   UNL     1       5.258   5.530  17.759  0.00  0.00    +0.000 C 
ENDROOT
BRANCH   1   4
ATOM      2  C   UNL     1       6.459   4.274  15.837  0.00  0.00    +0.000 C 
ATOM      3  C   UNL     1       7.499   4.560  16.896  0.00  0.00    +0.000 C 
ATOM      4  C   UNL     1       6.347   5.502  16.722  0.00  0.00    +0.000 C 
BRANCH   2   7
ATOM      5  C   UNL     1       7.764   5.211  12.649  0.00  0.00    +0.000 A 
ATOM      6  N   UNL     1       7.713   5.339  13.952  0.00  0.00    +0.000 NA
ATOM      7  C   UNL     1       6.789   4.416  14.371  0.00  0.00    +0.000 A 
ATOM      8  C   UNL     1       6.266   3.729  13.303  0.00  0.00    +0.000 A 
ATOM      9  N   UNL     1       6.892   4.258  12.205  0.00  0.00    +0.000 N 
ATOM     10  H   UNL     1       6.742   4.000  11.240  0.00  0.00    +0.000 HD
ENDBRANCH   2   7
ENDBRANCH   1   4
BRANCH   1  11
ATOM     11  C   UNL     1       5.728   5.060  19.141  0.00  0.00    +0.000 C 
BRANCH  11  12
ATOM     12  N   UNL     1       5.415   3.632  19.264  0.00  0.00    +0.000 NA
ATOM     13  H   UNL     1       6.169   3.178  19.770  0.00  0.00    +0.000 HD
BRANCH  12  14
ATOM     14  C   UNL     1       4.148   3.386  19.945  0.00  0.00    +0.000 C 
BRANCH  14  15
ATOM     15  C   UNL     1       3.353   2.260  19.227  0.00  0.00    +0.000 C 
ATOM     16  C   UNL     1       1.933   2.048  19.778  0.00  0.00    +0.000 C 
ATOM     17  C   UNL     1       1.021   3.243  19.516  0.00  0.00    +0.000 C 
ATOM     18  C   UNL     1       0.992   3.648  18.043  0.00  0.00    +0.000 C 
ATOM     19  C   UNL     1       2.371   3.729  17.392  0.00  0.00    +0.000 C 
ATOM     20  C   UNL     1       3.252   2.526  17.718  0.00  0.00    +0.000 C 
ENDBRANCH  14  15
ENDBRANCH  12  14
ENDBRANCH  11  12
ENDBRANCH   1  11
TORSDOF 6
ENDMDL
