MODEL 1
REMARK VINA RESULT:      -6.8      0.000      0.000
REMARK  Name = 
REMARK  7 active torsions:
REMARK  status: ('A' for Active; 'I' for Inactive)
REMARK    1  A    between atoms: C_1  and  C_2
REMARK    2  A    between atoms: C_2  and  C_3
REMARK    3  A    between atoms: C_2  and  S_4
REMARK    4  A    between atoms: C_2  and  C_16
REMARK    5  A    between atoms: S_4  and  C_5
REMARK    6  A    between atoms: C_9  and  C_10
REMARK    7  A    between atoms: C_16  and  O_18
REMARK                            x       y       z     vdW  Elec       q    Type
REMARK                         _______ _______ _______ _____ _____    ______ ____
ROOT
ATOM      1  C   UNL     1       3.856   4.676  18.657  0.00  0.00    +0.000 A 
ATOM      2  N   UNL     1       3.665   4.264  17.430  0.00  0.00    +0.000 NA
ATOM      3  C   UNL     1       4.830   4.416  16.693  0.00  0.00    +0.000 A 
ATOM      4  C   UNL     1       5.000   4.081  15.331  0.00  0.00    +0.000 A 
ATOM      5  C   UNL     1       6.243   4.287  14.716  0.00  0.00    +0.000 A 
ATOM      6  C   UNL     1       7.307   4.827  15.443  0.00  0.00    +0.000 A 
ATOM      7  C   UNL     1       7.159   5.169  16.792  0.00  0.00    +0.000 A 
ATOM      8  C   UNL     1       5.911   4.952  17.398  0.00  0.00    +0.000 A 
ATOM      9  S   UNL     1       5.421   5.265  19.018  0.00  0.00    +0.000 S 
ENDROOT
BRANCH   5  10
ATOM     10  C   UNL     1       6.427   3.938  13.337  0.00  0.00    +0.000 C 
ATOM     11  N   UNL     1       6.594   3.649  12.225  0.00  0.00    +0.000 NA
ENDBRANCH   5  10
BRANCH   1  12
ATOM     12  S   UNL     1       2.559   4.710  19.834  0.00  0.00    +0.000 S 
BRANCH  12  14
ATOM     13  C   UNL     1       3.584   2.231  20.555  0.00  0.00    +0.000 C 
ATOM     14  C   UNL     1       2.264   2.932  20.214  0.00  0.00    +0.000 C 
ATOM     15  C   UNL     1       1.345   2.895  21.450  0.00  0.00    +0.000 C 
BRANCH  14  16
ATOM     16  C   UNL     1       1.515   2.201  19.091  0.00  0.00    +0.000 C 
ATOM     17  O   UNL     1       0.307   2.283  18.912  0.00  0.00    +0.000 OA
BRANCH  16  18
ATOM     18  O   UNL     1       2.310   1.548  18.208  0.00  0.00    +0.000 OA
ATOM     19  H   UNL     1       2.501   0.634  18.498  0.00  0.00    +0.000 HD
ENDBRANCH  16  18
ENDBRANCH  14  16
ENDBRANCH  12  14
ENDBRANCH   1  12
TORSDOF 5
ENDMDL
MODEL 2
REMARK VINA RESULT:      -6.7      0.790      1.323
REMARK  Name = 
REMARK  7 active torsions:
REMARK  status: ('A' for Active; 'I' for Inactive)
REMARK    1  A    between atoms: C_1  and  C_2
REMARK    2  A    between atoms: C_2  and  C_3
REMARK    3  A    between atoms: C_2  and  S_4
REMARK    4  A    between atoms: C_2  and  C_16
REMARK    5  A    between atoms: S_4  and  C_5
REMARK    6  A    between atoms: C_9  and  C_10
REMARK    7  A    between atoms: C_16  and  O_18
REMARK                            x       y       z     vdW  Elec       q    Type
REMARK                         _______ _______ _______ _____ _____    ______ ____
ROOT
ATOM      1  C   UNL     1       3.787   4.808  18.561  0.00  0.00    +0.000 A 
ATOM      2  N   UNL     1       3.596   4.401  17.332  0.00  0.00    +0.000 NA
ATOM      3  C   UNL     1       4.779   4.490  16.614  0.00  0.00    +0.000 A 
ATOM      4  C   UNL     1       4.954   4.141  15.257  0.00  0.00    +0.000 A 
ATOM      5  C   UNL     1       6.216   4.281  14.662  0.00  0.00    +0.000 A 
ATOM      6  C   UNL     1       7.294   4.770  15.404  0.00  0.00    +0.000 A 
ATOM      7  C   UNL     1       7.141   5.126  16.749  0.00  0.00    +0.000 A 
ATOM      8  C   UNL     1       5.873   4.975  17.335  0.00  0.00    +0.000 A 
ATOM      9  S   UNL     1       5.373   5.320  18.945  0.00  0.00    +0.000 S 
ENDROOT
BRANCH   5  10
ATOM     10  C   UNL     1       6.405   3.917  13.287  0.00  0.00    +0.000 C 
ATOM     11  N   UNL     1       6.561   3.603  12.181  0.00  0.00    +0.000 NA
ENDBRANCH   5  10
BRANCH   1  12
ATOM     12  S   UNL     1       2.474   4.914  19.715  0.00  0.00    +0.000 S 
BRANCH  12  14
ATOM     13  C   UNL     1       1.786   3.006  21.613  0.00  0.00    +0.000 C 
ATOM     14  C   UNL     1       2.103   3.156  20.120  0.00  0.00    +0.000 C 
ATOM     15  C   UNL     1       0.855   2.771  19.304  0.00  0.00    +0.000 C 
BRANCH  14  16
ATOM     16  C   UNL     1       3.221   2.197  19.687  0.00  0.00    +0.000 C 
ATOM     17  O   UNL     1       4.246   2.011  20.330  0.00  0.00    +0.000 OA
BRANCH  16  18
ATOM     18  O   UNL     1       2.939   1.451  18.591  0.00  0.00    +0.000 OA
ATOM     19  H   UNL     1       3.698   0.895  18.326  0.00  0.00    +0.000 HD
ENDBRANCH  16  18
ENDBRANCH  14  16
ENDBRANCH  12  14
ENDBRANCH   1  12
TORSDOF 5
ENDMDL
MODEL 3
REMARK VINA RESULT:      -6.3      1.160      1.528
REMARK  Name = 
REMARK  7 active torsions:
REMARK  status: ('A' for Active; 'I' for Inactive)
REMARK    1  A    between atoms: C_1  and  C_2
REMARK    2  A    between atoms: C_2  and  C_3
REMARK    3  A    between atoms: C_2  and  S_4
REMARK    4  A    between atoms: C_2  and  C_16
REMARK    5  A    between atoms: S_4  and  C_5
REMARK    6  A    between atoms: C_9  and  C_10
REMARK    7  A    between atoms: C_16  and  O_18
REMARK                            x       y       z     vdW  Elec       q    Type
REMARK                         _______ _______ _______ _____ _____    ______ ____
ROOT
ATOM      1  C   UNL     1       4.572   3.721  18.686  0.00  0.00    +0.000 A 
ATOM      2  N   UNL     1       4.430   3.214  17.488  0.00  0.00    +0.000 NA
ATOM      3  C   UNL     1       5.319   3.816  16.610  0.00  0.00    +0.000 A 
ATOM      4  C   UNL     1       5.450   3.527  15.234  0.00  0.00    +0.000 A 
ATOM      5  C   UNL     1       6.400   4.216  14.468  0.00  0.00    +0.000 A 
ATOM      6  C   UNL     1       7.209   5.190  15.059  0.00  0.00    +0.000 A 
ATOM      7  C   UNL     1       7.092   5.496  16.420  0.00  0.00    +0.000 A 
ATOM      8  C   UNL     1       6.140   4.793  17.177  0.00  0.00    +0.000 A 
ATOM      9  S   UNL     1       5.763   4.938  18.851  0.00  0.00    +0.000 S 
ENDROOT
BRANCH   5  10
ATOM     10  C   UNL     1       6.549   3.919  13.072  0.00  0.00    +0.000 C 
ATOM     11  N   UNL     1       6.657   3.663  11.945  0.00  0.00    +0.000 NA
ENDBRANCH   5  10
BRANCH   1  12
ATOM     12  S   UNL     1       3.537   3.250  20.019  0.00  0.00    +0.000 S 
BRANCH  12  14
ATOM     13  C   UNL     1       0.972   3.974  20.800  0.00  0.00    +0.000 C 
ATOM     14  C   UNL     1       1.899   3.969  19.579  0.00  0.00    +0.000 C 
ATOM     15  C   UNL     1       2.160   5.423  19.144  0.00  0.00    +0.000 C 
BRANCH  14  16
ATOM     16  C   UNL     1       1.244   3.266  18.381  0.00  0.00    +0.000 C 
ATOM     17  O   UNL     1       0.573   2.246  18.474  0.00  0.00    +0.000 OA
BRANCH  16  18
ATOM     18  O   UNL     1       1.344   3.932  17.204  0.00  0.00    +0.000 OA
ATOM     19  H   UNL     1       0.467   4.114  16.815  0.00  0.00    +0.000 HD
ENDBRANCH  16  18
ENDBRANCH  14  16
ENDBRANCH  12  14
ENDBRANCH   1  12
TORSDOF 5
ENDMDL
MODEL 4
REMARK VINA RESULT:      -6.2      1.223      1.388
REMARK  Name = 
REMARK  7 active torsions:
REMARK  status: ('A' for Active; 'I' for Inactive)
REMARK    1  A    between atoms: C_1  and  C_2
REMARK    2  A    between atoms: C_2  and  C_3
REMARK    3  A    between atoms: C_2  and  S_4
REMARK    4  A    between atoms: C_2  and  C_16
REMARK    5  A    between atoms: S_4  and  C_5
REMARK    6  A    between atoms: C_9  and  C_10
REMARK    7  A    between atoms: C_16  and  O_18
REMARK                            x       y       z     vdW  Elec       q    Type
REMARK                         _______ _______ _______ _____ _____    ______ ____
ROOT
ATOM      1  C   UNL     1       4.256   4.040  19.061  0.00  0.00    +0.000 A 
ATOM      2  N   UNL     1       4.596   3.251  18.074  0.00  0.00    +0.000 NA
ATOM      3  C   UNL     1       4.941   4.005  16.962  0.00  0.00    +0.000 A 
ATOM      4  C   UNL     1       5.357   3.497  15.712  0.00  0.00    +0.000 A 
ATOM      5  C   UNL     1       5.679   4.384  14.675  0.00  0.00    +0.000 A 
ATOM      6  C   UNL     1       5.583   5.764  14.874  0.00  0.00    +0.000 A 
ATOM      7  C   UNL     1       5.169   6.288  16.104  0.00  0.00    +0.000 A 
ATOM      8  C   UNL     1       4.855   5.389  17.136  0.00  0.00    +0.000 A 
ATOM      9  S   UNL     1       4.324   5.719  18.740  0.00  0.00    +0.000 S 
ENDROOT
BRANCH   5  10
ATOM     10  C   UNL     1       6.114   3.876  13.406  0.00  0.00    +0.000 C 
ATOM     11  N   UNL     1       6.482   3.477  12.380  0.00  0.00    +0.000 NA
ENDBRANCH   5  10
BRANCH   1  12
ATOM     12  S   UNL     1       3.674   3.412  20.589  0.00  0.00    +0.000 S 
BRANCH  12  14
ATOM     13  C   UNL     1       1.214   2.501  21.501  0.00  0.00    +0.000 C 
ATOM     14  C   UNL     1       1.854   3.277  20.344  0.00  0.00    +0.000 C 
ATOM     15  C   UNL     1       1.303   4.714  20.342  0.00  0.00    +0.000 C 
BRANCH  14  16
ATOM     16  C   UNL     1       1.481   2.664  18.987  0.00  0.00    +0.000 C 
ATOM     17  O   UNL     1       0.893   3.274  18.103  0.00  0.00    +0.000 OA
BRANCH  16  18
ATOM     18  O   UNL     1       1.971   1.418  18.769  0.00  0.00    +0.000 OA
ATOM     19  H   UNL     1       2.251   1.296  17.841  0.00  0.00    +0.000 HD
ENDBRANCH  16  18
ENDBRANCH  14  16
ENDBRANCH  12  14
ENDBRANCH   1  12
TORSDOF 5
ENDMDL
MODEL 5
REMARK VINA RESULT:      -6.2      1.486      1.680
REMARK  Name = 
REMARK  7 active torsions:
REMARK  status: ('A' for Active; 'I' for Inactive)
REMARK    1  A    between atoms: C_1  and  C_2
REMARK    2  A    between atoms: C_2  and  C_3
REMARK    3  A    between atoms: C_2  and  S_4
REMARK    4  A    between atoms: C_2  and  C_16
REMARK    5  A    between atoms: S_4  and  C_5
REMARK    6  A    between atoms: C_9  and  C_10
REMARK    7  A    between atoms: C_16  and  O_18
REMARK                            x       y       z     vdW  Elec       q    Type
REMARK                         _______ _______ _______ _____ _____    ______ ____
ROOT
ATOM      1  C   UNL     1       4.507   3.714  18.728  0.00  0.00    +0.000 A 
ATOM      2  N   UNL     1       4.386   3.186  17.536  0.00  0.00    +0.000 NA
ATOM      3  C   UNL     1       5.267   3.797  16.656  0.00  0.00    +0.000 A 
ATOM      4  C   UNL     1       5.416   3.491  15.285  0.00  0.00    +0.000 A 
ATOM      5  C   UNL     1       6.354   4.193  14.517  0.00  0.00    +0.000 A 
ATOM      6  C   UNL     1       7.134   5.195  15.100  0.00  0.00    +0.000 A 
ATOM      7  C   UNL     1       7.000   5.517  16.455  0.00  0.00    +0.000 A 
ATOM      8  C   UNL     1       6.060   4.802  17.215  0.00  0.00    +0.000 A 
ATOM      9  S   UNL     1       5.666   4.961  18.884  0.00  0.00    +0.000 S 
ENDROOT
BRANCH   5  10
ATOM     10  C   UNL     1       6.521   3.880  13.126  0.00  0.00    +0.000 C 
ATOM     11  N   UNL     1       6.637   3.619  12.001  0.00  0.00    +0.000 NA
ENDBRANCH   5  10
BRANCH   1  12
ATOM     12  S   UNL     1       3.474   3.236  20.060  0.00  0.00    +0.000 S 
BRANCH  12  14
ATOM     13  C   UNL     1       1.138   2.212  18.961  0.00  0.00    +0.000 C 
ATOM     14  C   UNL     1       1.771   3.530  19.423  0.00  0.00    +0.000 C 
ATOM     15  C   UNL     1       0.953   4.092  20.599  0.00  0.00    +0.000 C 
BRANCH  14  16
ATOM     16  C   UNL     1       1.726   4.590  18.313  0.00  0.00    +0.000 C 
ATOM     17  O   UNL     1       2.107   5.744  18.459  0.00  0.00    +0.000 OA
BRANCH  16  18
ATOM     18  O   UNL     1       1.355   4.125  17.095  0.00  0.00    +0.000 OA
ATOM     19  H   UNL     1       2.020   3.513  16.722  0.00  0.00    +0.000 HD
ENDBRANCH  16  18
ENDBRANCH  14  16
ENDBRANCH  12  14
ENDBRANCH   1  12
TORSDOF 5
ENDMDL
MODEL 6
REMARK VINA RESULT:      -6.0      1.235      1.746
REMARK  Name = 
REMARK  7 active torsions:
REMARK  status: ('A' for Active; 'I' for Inactive)
REMARK    1  A    between atoms: C_1  and  C_2
REMARK    2  A    between atoms: C_2  and  C_3
REMARK    3  A    between atoms: C_2  and  S_4
REMARK    4  A    between atoms: C_2  and  C_16
REMARK    5  A    between atoms: S_4  and  C_5
REMARK    6  A    between atoms: C_9  and  C_10
REMARK    7  A    between atoms: C_16  and  O_18
REMARK                            x       y       z     vdW  Elec       q    Type
REMARK                         _______ _______ _______ _____ _____    ______ ____
ROOT
ATOM      1  C   UNL     1       4.255   4.862  18.372  0.00  0.00    +0.000 A 
ATOM      2  N   UNL     1       3.984   4.292  17.226  0.00  0.00    +0.000 NA
ATOM      3  C   UNL     1       5.056   4.439  16.358  0.00  0.00    +0.000 A 
ATOM      4  C   UNL     1       5.122   3.956  15.033  0.00  0.00    +0.000 A 
ATOM      5  C   UNL     1       6.278   4.178  14.271  0.00  0.00    +0.000 A 
ATOM      6  C   UNL     1       7.356   4.880  14.816  0.00  0.00    +0.000 A 
ATOM      7  C   UNL     1       7.309   5.371  16.126  0.00  0.00    +0.000 A 
ATOM      8  C   UNL     1       6.148   5.137  16.880  0.00  0.00    +0.000 A 
ATOM      9  S   UNL     1       5.790   5.606  18.497  0.00  0.00    +0.000 S 
ENDROOT
BRANCH   5  10
ATOM     10  C   UNL     1       6.359   3.679  12.928  0.00  0.00    +0.000 C 
ATOM     11  N   UNL     1       6.407   3.284  11.838  0.00  0.00    +0.000 NA
ENDBRANCH   5  10
BRANCH   1  12
ATOM     12  S   UNL     1       3.079   4.942  19.668  0.00  0.00    +0.000 S 
BRANCH  12  14
ATOM     13  C   UNL     1       1.901   2.583  18.795  0.00  0.00    +0.000 C 
ATOM     14  C   UNL     1       2.658   3.178  19.988  0.00  0.00    +0.000 C 
ATOM     15  C   UNL     1       3.994   2.431  20.155  0.00  0.00    +0.000 C 
BRANCH  14  16
ATOM     16  C   UNL     1       1.881   2.980  21.298  0.00  0.00    +0.000 C 
ATOM     17  O   UNL     1       2.375   3.113  22.410  0.00  0.00    +0.000 OA
BRANCH  16  18
ATOM     18  O   UNL     1       0.549   2.776  21.145  0.00  0.00    +0.000 OA
ATOM     19  H   UNL     1       0.269   2.889  20.215  0.00  0.00    +0.000 HD
ENDBRANCH  16  18
ENDBRANCH  14  16
ENDBRANCH  12  14
ENDBRANCH   1  12
TORSDOF 5
ENDMDL
MODEL 7
REMARK VINA RESULT:      -6.0      4.656      7.037
REMARK  Name = 
REMARK  7 active torsions:
REMARK  status: ('A' for Active; 'I' for Inactive)
REMARK    1  A    between atoms: C_1  and  C_2
REMARK    2  A    between atoms: C_2  and  C_3
REMARK    3  A    between atoms: C_2  and  S_4
REMARK    4  A    between atoms: C_2  and  C_16
REMARK    5  A    between atoms: S_4  and  C_5
REMARK    6  A    between atoms: C_9  and  C_10
REMARK    7  A    between atoms: C_16  and  O_18
REMARK                            x       y       z     vdW  Elec       q    Type
REMARK                         _______ _______ _______ _____ _____    ______ ____
ROOT
ATOM      1  C   UNL     1       3.639   6.306  17.987  0.00  0.00    +0.000 A 
ATOM      2  N   UNL     1       3.262   7.439  17.450  0.00  0.00    +0.000 NA
ATOM      3  C   UNL     1       2.441   8.129  18.329  0.00  0.00    +0.000 A 
ATOM      4  C   UNL     1       1.842   9.386  18.092  0.00  0.00    +0.000 A 
ATOM      5  C   UNL     1       1.035   9.967  19.080  0.00  0.00    +0.000 A 
ATOM      6  C   UNL     1       0.817   9.305  20.290  0.00  0.00    +0.000 A 
ATOM      7  C   UNL     1       1.397   8.056  20.544  0.00  0.00    +0.000 A 
ATOM      8  C   UNL     1       2.208   7.488  19.548  0.00  0.00    +0.000 A 
ATOM      9  S   UNL     1       3.051   5.986  19.560  0.00  0.00    +0.000 S 
ENDROOT
BRANCH   5  10
ATOM     10  C   UNL     1       0.434  11.250  18.851  0.00  0.00    +0.000 C 
ATOM     11  N   UNL     1      -0.036  12.293  18.657  0.00  0.00    +0.000 NA
ENDBRANCH   5  10
BRANCH   1  12
ATOM     12  S   UNL     1       4.611   5.144  17.107  0.00  0.00    +0.000 S 
BRANCH  12  14
ATOM     13  C   UNL     1       6.604   7.070  17.295  0.00  0.00    +0.000 C 
ATOM     14  C   UNL     1       6.341   5.583  17.563  0.00  0.00    +0.000 C 
ATOM     15  C   UNL     1       6.478   5.316  19.073  0.00  0.00    +0.000 C 
BRANCH  14  16
ATOM     16  C   UNL     1       7.383   4.697  16.866  0.00  0.00    +0.000 C 
ATOM     17  O   UNL     1       7.541   4.657  15.653  0.00  0.00    +0.000 OA
BRANCH  16  18
ATOM     18  O   UNL     1       8.227   4.044  17.703  0.00  0.00    +0.000 OA
ATOM     19  H   UNL     1       8.331   3.105  17.453  0.00  0.00    +0.000 HD
ENDBRANCH  16  18
ENDBRANCH  14  16
ENDBRANCH  12  14
ENDBRANCH   1  12
TORSDOF 5
ENDMDL
MODEL 8
REMARK VINA RESULT:      -6.0      1.958      2.234
REMARK  Name = 
REMARK  7 active torsions:
REMARK  status: ('A' for Active; 'I' for Inactive)
REMARK    1  A    between atoms: C_1  and  C_2
REMARK    2  A    between atoms: C_2  and  C_3
REMARK    3  A    between atoms: C_2  and  S_4
REMARK    4  A    between atoms: C_2  and  C_16
REMARK    5  A    between atoms: S_4  and  C_5
REMARK    6  A    between atoms: C_9  and  C_10
REMARK    7  A    between atoms: C_16  and  O_18
REMARK                            x       y       z     vdW  Elec       q    Type
REMARK                         _______ _______ _______ _____ _____    ______ ____
ROOT
ATOM      1  C   UNL     1       4.548   3.692  18.595  0.00  0.00    +0.000 A 
ATOM      2  N   UNL     1       4.434   3.195  17.390  0.00  0.00    +0.000 NA
ATOM      3  C   UNL     1       5.342   3.806  16.538  0.00  0.00    +0.000 A 
ATOM      4  C   UNL     1       5.506   3.529  15.163  0.00  0.00    +0.000 A 
ATOM      5  C   UNL     1       6.472   4.227  14.425  0.00  0.00    +0.000 A 
ATOM      6  C   UNL     1       7.265   5.196  15.043  0.00  0.00    +0.000 A 
ATOM      7  C   UNL     1       7.117   5.489  16.404  0.00  0.00    +0.000 A 
ATOM      8  C   UNL     1       6.149   4.779  17.133  0.00  0.00    +0.000 A 
ATOM      9  S   UNL     1       5.733   4.909  18.798  0.00  0.00    +0.000 S 
ENDROOT
BRANCH   5  10
ATOM     10  C   UNL     1       6.653   3.942  13.030  0.00  0.00    +0.000 C 
ATOM     11  N   UNL     1       6.780   3.714  11.899  0.00  0.00    +0.000 NA
ENDBRANCH   5  10
BRANCH   1  12
ATOM     12  S   UNL     1       3.484   3.208  19.900  0.00  0.00    +0.000 S 
BRANCH  12  14
ATOM     13  C   UNL     1       1.345   3.847  18.248  0.00  0.00    +0.000 C 
ATOM     14  C   UNL     1       1.956   4.195  19.610  0.00  0.00    +0.000 C 
ATOM     15  C   UNL     1       0.963   3.803  20.719  0.00  0.00    +0.000 C 
BRANCH  14  16
ATOM     16  C   UNL     1       2.190   5.707  19.747  0.00  0.00    +0.000 C 
ATOM     17  O   UNL     1       2.368   6.458  18.797  0.00  0.00    +0.000 OA
BRANCH  16  18
ATOM     18  O   UNL     1       2.052   6.193  21.006  0.00  0.00    +0.000 OA
ATOM     19  H   UNL     1       2.397   5.569  21.675  0.00  0.00    +0.000 HD
ENDBRANCH  16  18
ENDBRANCH  14  16
ENDBRANCH  12  14
ENDBRANCH   1  12
TORSDOF 5
ENDMDL
MODEL 9
REMARK VINA RESULT:      -6.0      4.695      7.011
REMARK  Name = 
REMARK  7 active torsions:
REMARK  status: ('A' for Active; 'I' for Inactive)
REMARK    1  A    between atoms: C_1  and  C_2
REMARK    2  A    between atoms: C_2  and  C_3
REMARK    3  A    between atoms: C_2  and  S_4
REMARK    4  A    between atoms: C_2  and  C_16
REMARK    5  A    between atoms: S_4  and  C_5
REMARK    6  A    between atoms: C_9  and  C_10
REMARK    7  A    between atoms: C_16  and  O_18
REMARK                            x       y       z     vdW  Elec       q    Type
REMARK                         _______ _______ _______ _____ _____    ______ ____
ROOT
ATOM      1  C   UNL     1       2.859   6.227  19.330  0.00  0.00    +0.000 A 
ATOM      2  N   UNL     1       2.302   6.504  20.481  0.00  0.00    +0.000 NA
ATOM      3  C   UNL     1       1.689   7.747  20.424  0.00  0.00    +0.000 A 
ATOM      4  C   UNL     1       0.991   8.377  21.478  0.00  0.00    +0.000 A 
ATOM      5  C   UNL     1       0.417   9.639  21.273  0.00  0.00    +0.000 A 
ATOM      6  C   UNL     1       0.540  10.275  20.035  0.00  0.00    +0.000 A 
ATOM      7  C   UNL     1       1.231   9.671  18.979  0.00  0.00    +0.000 A 
ATOM      8  C   UNL     1       1.797   8.404  19.196  0.00  0.00    +0.000 A 
ATOM      9  S   UNL     1       2.694   7.415  18.110  0.00  0.00    +0.000 S 
ENDROOT
BRANCH   5  10
ATOM     10  C   UNL     1      -0.305  10.280  22.335  0.00  0.00    +0.000 C 
ATOM     11  N   UNL     1      -0.884  10.783  23.205  0.00  0.00    +0.000 NA
ENDBRANCH   5  10
BRANCH   1  12
ATOM     12  S   UNL     1       3.800   4.771  19.084  0.00  0.00    +0.000 S 
BRANCH  12  14
ATOM     13  C   UNL     1       1.430   3.766  18.041  0.00  0.00    +0.000 C 
ATOM     14  C   UNL     1       2.535   3.432  19.049  0.00  0.00    +0.000 C 
ATOM     15  C   UNL     1       3.262   2.154  18.590  0.00  0.00    +0.000 C 
BRANCH  14  16
ATOM     16  C   UNL     1       1.953   3.128  20.437  0.00  0.00    +0.000 C 
ATOM     17  O   UNL     1       2.591   2.611  21.345  0.00  0.00    +0.000 OA
BRANCH  16  18
ATOM     18  O   UNL     1       0.699   3.600  20.645  0.00  0.00    +0.000 OA
ATOM     19  H   UNL     1       0.021   3.000  20.277  0.00  0.00    +0.000 HD
ENDBRANCH  16  18
ENDBRANCH  14  16
ENDBRANCH  12  14
ENDBRANCH   1  12
TORSDOF 5
ENDMDL
