MODEL 1
REMARK VINA RESULT:      -7.8      0.000      0.000
REMARK  Name = 
REMARK  6 active torsions:
REMARK  status: ('A' for Active; 'I' for Inactive)
REMARK    1  A    between atoms: C_1  and  C_2
REMARK    2  A    between atoms: C_4  and  C_5
REMARK    3  A    between atoms: C_5  and  C_6
REMARK    4  A    between atoms: C_6  and  N_7
REMARK    5  A    between atoms: C_8  and  C_10
REMARK    6  A    between atoms: C_15  and  C_17
REMARK                            x       y       z     vdW  Elec       q    Type
REMARK                         _______ _______ _______ _____ _____    ______ ____
ROOT
ATOM      1  C   UNL     1       2.665   6.840  19.147  0.00  0.00    +0.000 C 
ATOM      2  C   UNL     1       1.758   6.372  20.291  0.00  0.00    +0.000 C 
ATOM      3  C   UNL     1       2.309   5.090  20.911  0.00  0.00    +0.000 C 
ATOM      4  C   UNL     1       2.466   4.004  19.850  0.00  0.00    +0.000 C 
ATOM      5  N   UNL     1       3.295   4.481  18.740  0.00  0.00    +0.000 N 
ATOM      6  C   UNL     1       4.590   3.949  18.608  0.00  0.00    +0.000 C 
ATOM      7  O   UNL     1       5.033   3.184  19.474  0.00  0.00    +0.000 OA
ATOM      8  C   UNL     1       2.812   5.719  18.105  0.00  0.00    +0.000 C 
ENDROOT
BRANCH   6   9
ATOM      9  C   UNL     1       5.377   4.294  17.426  0.00  0.00    +0.000 A 
ATOM     10  C   UNL     1       5.251   3.890  16.110  0.00  0.00    +0.000 A 
ATOM     11  C   UNL     1       6.242   4.462  15.259  0.00  0.00    +0.000 A 
ATOM     12  C   UNL     1       7.136   5.236  15.962  0.00  0.00    +0.000 A 
ATOM     13  S   UNL     1       6.765   5.289  17.627  0.00  0.00    +0.000 S 
ENDBRANCH   6   9
BRANCH   1  15
ATOM     14  N   UNL     1       1.379   8.893  19.357  0.00  0.00    +0.000 N 
ATOM     15  C   UNL     1       2.136   8.118  18.507  0.00  0.00    +0.000 C 
ATOM     16  O   UNL     1       2.384   8.439  17.348  0.00  0.00    +0.000 OA
ATOM     17  H   UNL     1       1.052   8.512  20.238  0.00  0.00    +0.000 HD
BRANCH  14  18
ATOM     18  C   UNL     1       0.757  10.138  18.944  0.00  0.00    +0.000 C 
BRANCH  18  19
ATOM     19  C   UNL     1      -0.670  10.305  19.466  0.00  0.00    +0.000 C 
BRANCH  19  23
ATOM     20  C   UNL     1      -2.876   9.903  15.014  0.00  0.00    +0.000 C 
ATOM     21  C   UNL     1      -2.644  10.348  16.415  0.00  0.00    +0.000 A 
ATOM     22  N   UNL     1      -1.614   9.996  17.155  0.00  0.00    +0.000 NA
ATOM     23  C   UNL     1      -1.711  10.572  18.417  0.00  0.00    +0.000 A 
ATOM     24  C   UNL     1      -2.826  11.373  18.594  0.00  0.00    +0.000 A 
ATOM     25  S   UNL     1      -3.774  11.401  17.169  0.00  0.00    +0.000 S 
ENDBRANCH  19  23
ENDBRANCH  18  19
ENDBRANCH  14  18
ENDBRANCH   1  15
TORSDOF 5
ENDMDL
MODEL 2
REMARK VINA RESULT:      -7.7      1.755      2.177
REMARK  Name = 
REMARK  6 active torsions:
REMARK  status: ('A' for Active; 'I' for Inactive)
REMARK    1  A    between atoms: C_1  and  C_2
REMARK    2  A    between atoms: C_4  and  C_5
REMARK    3  A    between atoms: C_5  and  C_6
REMARK    4  A    between atoms: C_6  and  N_7
REMARK    5  A    between atoms: C_8  and  C_10
REMARK    6  A    between atoms: C_15  and  C_17
REMARK                            x       y       z     vdW  Elec       q    Type
REMARK                         _______ _______ _______ _____ _____    ______ ____
ROOT
ATOM      1  C   UNL     1       2.259   5.598  19.755  0.00  0.00    +0.000 C 
ATOM      2  C   UNL     1       1.092   4.784  20.328  0.00  0.00    +0.000 C 
ATOM      3  C   UNL     1       1.316   3.294  20.079  0.00  0.00    +0.000 C 
ATOM      4  C   UNL     1       1.502   3.021  18.588  0.00  0.00    +0.000 C 
ATOM      5  N   UNL     1       2.587   3.841  18.044  0.00  0.00    +0.000 N 
ATOM      6  C   UNL     1       3.788   3.197  17.694  0.00  0.00    +0.000 C 
ATOM      7  O   UNL     1       3.939   1.995  17.945  0.00  0.00    +0.000 OA
ATOM      8  C   UNL     1       2.426   5.289  18.259  0.00  0.00    +0.000 C 
ENDROOT
BRANCH   6   9
ATOM      9  C   UNL     1       4.826   3.965  17.009  0.00  0.00    +0.000 A 
ATOM     10  C   UNL     1       5.024   4.215  15.664  0.00  0.00    +0.000 A 
ATOM     11  C   UNL     1       6.176   5.015  15.413  0.00  0.00    +0.000 A 
ATOM     12  C   UNL     1       6.862   5.301  16.571  0.00  0.00    +0.000 A 
ATOM     13  S   UNL     1       6.106   4.630  17.946  0.00  0.00    +0.000 S 
ENDBRANCH   6   9
BRANCH   1  15
ATOM     14  N   UNL     1       1.620   7.402  21.255  0.00  0.00    +0.000 N 
ATOM     15  C   UNL     1       2.060   7.091  19.988  0.00  0.00    +0.000 C 
ATOM     16  O   UNL     1       2.295   7.939  19.133  0.00  0.00    +0.000 OA
ATOM     17  H   UNL     1       1.270   6.672  21.867  0.00  0.00    +0.000 HD
BRANCH  14  18
ATOM     18  C   UNL     1       1.340   8.762  21.681  0.00  0.00    +0.000 C 
BRANCH  18  19
ATOM     19  C   UNL     1      -0.086   9.215  21.365  0.00  0.00    +0.000 C 
BRANCH  19  23
ATOM     20  C   UNL     1      -2.057  11.527  17.413  0.00  0.00    +0.000 C 
ATOM     21  C   UNL     1      -1.131  11.259  18.547  0.00  0.00    +0.000 A 
ATOM     22  N   UNL     1      -1.205  10.215  19.347  0.00  0.00    +0.000 NA
ATOM     23  C   UNL     1      -0.203  10.277  20.310  0.00  0.00    +0.000 A 
ATOM     24  C   UNL     1       0.628  11.378  20.197  0.00  0.00    +0.000 A 
ATOM     25  S   UNL     1       0.147  12.358  18.879  0.00  0.00    +0.000 S 
ENDBRANCH  19  23
ENDBRANCH  18  19
ENDBRANCH  14  18
ENDBRANCH   1  15
TORSDOF 5
ENDMDL
MODEL 3
REMARK VINA RESULT:      -7.6      2.644      3.341
REMARK  Name = 
REMARK  6 active torsions:
REMARK  status: ('A' for Active; 'I' for Inactive)
REMARK    1  A    between atoms: C_1  and  C_2
REMARK    2  A    between atoms: C_4  and  C_5
REMARK    3  A    between atoms: C_5  and  C_6
REMARK    4  A    between atoms: C_6  and  N_7
REMARK    5  A    between atoms: C_8  and  C_10
REMARK    6  A    between atoms: C_15  and  C_17
REMARK                            x       y       z     vdW  Elec       q    Type
REMARK                         _______ _______ _______ _____ _____    ______ ____
ROOT
ATOM      1  C   UNL     1       2.220   5.666  19.827  0.00  0.00    +0.000 C 
ATOM      2  C   UNL     1       1.051   4.841  20.379  0.00  0.00    +0.000 C 
ATOM      3  C   UNL     1       1.277   3.355  20.105  0.00  0.00    +0.000 C 
ATOM      4  C   UNL     1       1.472   3.109  18.612  0.00  0.00    +0.000 C 
ATOM      5  N   UNL     1       2.559   3.938  18.087  0.00  0.00    +0.000 N 
ATOM      6  C   UNL     1       3.762   3.302  17.732  0.00  0.00    +0.000 C 
ATOM      7  O   UNL     1       3.913   2.096  17.964  0.00  0.00    +0.000 OA
ATOM      8  C   UNL     1       2.395   5.382  18.326  0.00  0.00    +0.000 C 
ENDROOT
BRANCH   6   9
ATOM      9  C   UNL     1       4.803   4.082  17.066  0.00  0.00    +0.000 A 
ATOM     10  C   UNL     1       4.996   4.372  15.728  0.00  0.00    +0.000 A 
ATOM     11  C   UNL     1       6.154   5.170  15.497  0.00  0.00    +0.000 A 
ATOM     12  C   UNL     1       6.849   5.415  16.659  0.00  0.00    +0.000 A 
ATOM     13  S   UNL     1       6.094   4.706  18.017  0.00  0.00    +0.000 S 
ENDBRANCH   6   9
BRANCH   1  15
ATOM     14  N   UNL     1       1.667   7.451  21.382  0.00  0.00    +0.000 N 
ATOM     15  C   UNL     1       2.018   7.154  20.084  0.00  0.00    +0.000 C 
ATOM     16  O   UNL     1       2.179   8.011  19.219  0.00  0.00    +0.000 OA
ATOM     17  H   UNL     1       1.372   6.713  22.011  0.00  0.00    +0.000 HD
BRANCH  14  18
ATOM     18  C   UNL     1       1.400   8.805  21.836  0.00  0.00    +0.000 C 
BRANCH  18  19
ATOM     19  C   UNL     1      -0.089   9.105  22.004  0.00  0.00    +0.000 C 
BRANCH  19  23
ATOM     20  C   UNL     1      -1.141  13.787  23.358  0.00  0.00    +0.000 C 
ATOM     21  C   UNL     1      -0.936  12.609  22.471  0.00  0.00    +0.000 A 
ATOM     22  N   UNL     1      -0.612  11.402  22.887  0.00  0.00    +0.000 NA
ATOM     23  C   UNL     1      -0.481  10.541  21.803  0.00  0.00    +0.000 A 
ATOM     24  C   UNL     1      -0.733  11.128  20.575  0.00  0.00    +0.000 A 
ATOM     25  S   UNL     1      -1.127  12.782  20.772  0.00  0.00    +0.000 S 
ENDBRANCH  19  23
ENDBRANCH  18  19
ENDBRANCH  14  18
ENDBRANCH   1  15
TORSDOF 5
ENDMDL
MODEL 4
REMARK VINA RESULT:      -7.6      0.884      1.115
REMARK  Name = 
REMARK  6 active torsions:
REMARK  status: ('A' for Active; 'I' for Inactive)
REMARK    1  A    between atoms: C_1  and  C_2
REMARK    2  A    between atoms: C_4  and  C_5
REMARK    3  A    between atoms: C_5  and  C_6
REMARK    4  A    between atoms: C_6  and  N_7
REMARK    5  A    between atoms: C_8  and  C_10
REMARK    6  A    between atoms: C_15  and  C_17
REMARK                            x       y       z     vdW  Elec       q    Type
REMARK                         _______ _______ _______ _____ _____    ______ ____
ROOT
ATOM      1  C   UNL     1       2.658   6.873  19.146  0.00  0.00    +0.000 C 
ATOM      2  C   UNL     1       1.745   6.434  20.297  0.00  0.00    +0.000 C 
ATOM      3  C   UNL     1       2.263   5.137  20.916  0.00  0.00    +0.000 C 
ATOM      4  C   UNL     1       2.381   4.045  19.856  0.00  0.00    +0.000 C 
ATOM      5  N   UNL     1       3.216   4.496  18.740  0.00  0.00    +0.000 N 
ATOM      6  C   UNL     1       4.494   3.925  18.600  0.00  0.00    +0.000 C 
ATOM      7  O   UNL     1       4.920   3.150  19.465  0.00  0.00    +0.000 OA
ATOM      8  C   UNL     1       2.765   5.746  18.106  0.00  0.00    +0.000 C 
ENDROOT
BRANCH   6   9
ATOM      9  C   UNL     1       5.283   4.245  17.412  0.00  0.00    +0.000 A 
ATOM     10  C   UNL     1       5.016   4.040  16.071  0.00  0.00    +0.000 A 
ATOM     11  C   UNL     1       6.066   4.497  15.222  0.00  0.00    +0.000 A 
ATOM     12  C   UNL     1       7.133   4.981  15.943  0.00  0.00    +0.000 A 
ATOM     13  S   UNL     1       6.856   4.905  17.626  0.00  0.00    +0.000 S 
ENDBRANCH   6   9
BRANCH   1  15
ATOM     14  N   UNL     1       1.371   8.927  19.337  0.00  0.00    +0.000 N 
ATOM     15  C   UNL     1       2.162   8.164  18.507  0.00  0.00    +0.000 C 
ATOM     16  O   UNL     1       2.461   8.505  17.366  0.00  0.00    +0.000 OA
ATOM     17  H   UNL     1       1.005   8.532  20.196  0.00  0.00    +0.000 HD
BRANCH  14  18
ATOM     18  C   UNL     1       0.772  10.182  18.919  0.00  0.00    +0.000 C 
BRANCH  18  19
ATOM     19  C   UNL     1      -0.671  10.352  19.395  0.00  0.00    +0.000 C 
BRANCH  19  23
ATOM     20  C   UNL     1      -4.898  11.841  17.210  0.00  0.00    +0.000 C 
ATOM     21  C   UNL     1      -3.597  11.139  17.387  0.00  0.00    +0.000 A 
ATOM     22  N   UNL     1      -2.858  11.189  18.476  0.00  0.00    +0.000 NA
ATOM     23  C   UNL     1      -1.701  10.437  18.305  0.00  0.00    +0.000 A 
ATOM     24  C   UNL     1      -1.604   9.813  17.073  0.00  0.00    +0.000 A 
ATOM     25  S   UNL     1      -2.970  10.177  16.109  0.00  0.00    +0.000 S 
ENDBRANCH  19  23
ENDBRANCH  18  19
ENDBRANCH  14  18
ENDBRANCH   1  15
TORSDOF 5
ENDMDL
MODEL 5
REMARK VINA RESULT:      -7.5      5.374      8.375
REMARK  Name = 
REMARK  6 active torsions:
REMARK  status: ('A' for Active; 'I' for Inactive)
REMARK    1  A    between atoms: C_1  and  C_2
REMARK    2  A    between atoms: C_4  and  C_5
REMARK    3  A    between atoms: C_5  and  C_6
REMARK    4  A    between atoms: C_6  and  N_7
REMARK    5  A    between atoms: C_8  and  C_10
REMARK    6  A    between atoms: C_15  and  C_17
REMARK                            x       y       z     vdW  Elec       q    Type
REMARK                         _______ _______ _______ _____ _____    ______ ____
ROOT
ATOM      1  C   UNL     1       6.149   5.706  17.430  0.00  0.00    +0.000 C 
ATOM      2  C   UNL     1       6.605   5.449  15.989  0.00  0.00    +0.000 C 
ATOM      3  C   UNL     1       5.498   4.753  15.200  0.00  0.00    +0.000 C 
ATOM      4  C   UNL     1       5.084   3.455  15.890  0.00  0.00    +0.000 C 
ATOM      5  N   UNL     1       4.697   3.708  17.279  0.00  0.00    +0.000 N 
ATOM      6  C   UNL     1       3.334   3.610  17.613  0.00  0.00    +0.000 C 
ATOM      7  O   UNL     1       2.494   3.421  16.724  0.00  0.00    +0.000 OA
ATOM      8  C   UNL     1       5.727   4.382  18.087  0.00  0.00    +0.000 C 
ENDROOT
BRANCH   6   9
ATOM      9  C   UNL     1       2.943   3.707  19.018  0.00  0.00    +0.000 A 
ATOM     10  C   UNL     1       2.868   2.739  20.002  0.00  0.00    +0.000 A 
ATOM     11  C   UNL     1       2.429   3.257  21.255  0.00  0.00    +0.000 A 
ATOM     12  C   UNL     1       2.119   4.595  21.176  0.00  0.00    +0.000 A 
ATOM     13  S   UNL     1       2.381   5.221  19.610  0.00  0.00    +0.000 S 
ENDBRANCH   6   9
BRANCH   1  15
ATOM     14  N   UNL     1       7.550   7.661  17.788  0.00  0.00    +0.000 N 
ATOM     15  C   UNL     1       7.238   6.398  18.240  0.00  0.00    +0.000 C 
ATOM     16  O   UNL     1       7.770   5.887  19.222  0.00  0.00    +0.000 OA
ATOM     17  H   UNL     1       7.222   7.972  16.881  0.00  0.00    +0.000 HD
BRANCH  14  18
ATOM     18  C   UNL     1       8.578   8.486  18.399  0.00  0.00    +0.000 C 
BRANCH  18  19
ATOM     19  C   UNL     1       8.395   9.979  18.132  0.00  0.00    +0.000 C 
BRANCH  19  23
ATOM     20  C   UNL     1      12.225  13.145  17.738  0.00  0.00    +0.000 C 
ATOM     21  C   UNL     1      11.205  12.271  18.379  0.00  0.00    +0.000 A 
ATOM     22  N   UNL     1      10.321  11.545  17.726  0.00  0.00    +0.000 NA
ATOM     23  C   UNL     1       9.507  10.861  18.623  0.00  0.00    +0.000 A 
ATOM     24  C   UNL     1       9.816  11.080  19.954  0.00  0.00    +0.000 A 
ATOM     25  S   UNL     1      11.133  12.163  20.092  0.00  0.00    +0.000 S 
ENDBRANCH  19  23
ENDBRANCH  18  19
ENDBRANCH  14  18
ENDBRANCH   1  15
TORSDOF 5
ENDMDL
MODEL 6
REMARK VINA RESULT:      -7.5      2.094      2.606
REMARK  Name = 
REMARK  6 active torsions:
REMARK  status: ('A' for Active; 'I' for Inactive)
REMARK    1  A    between atoms: C_1  and  C_2
REMARK    2  A    between atoms: C_4  and  C_5
REMARK    3  A    between atoms: C_5  and  C_6
REMARK    4  A    between atoms: C_6  and  N_7
REMARK    5  A    between atoms: C_8  and  C_10
REMARK    6  A    between atoms: C_15  and  C_17
REMARK                            x       y       z     vdW  Elec       q    Type
REMARK                         _______ _______ _______ _____ _____    ______ ____
ROOT
ATOM      1  C   UNL     1       2.246   5.648  19.786  0.00  0.00    +0.000 C 
ATOM      2  C   UNL     1       1.083   4.837  20.370  0.00  0.00    +0.000 C 
ATOM      3  C   UNL     1       1.314   3.344  20.141  0.00  0.00    +0.000 C 
ATOM      4  C   UNL     1       1.501   3.053  18.654  0.00  0.00    +0.000 C 
ATOM      5  N   UNL     1       2.582   3.870  18.099  0.00  0.00    +0.000 N 
ATOM      6  C   UNL     1       3.786   3.227  17.756  0.00  0.00    +0.000 C 
ATOM      7  O   UNL     1       3.942   2.029  18.024  0.00  0.00    +0.000 OA
ATOM      8  C   UNL     1       2.414   5.320  18.294  0.00  0.00    +0.000 C 
ENDROOT
BRANCH   6   9
ATOM      9  C   UNL     1       4.820   3.991  17.062  0.00  0.00    +0.000 A 
ATOM     10  C   UNL     1       5.004   4.241  15.714  0.00  0.00    +0.000 A 
ATOM     11  C   UNL     1       6.158   5.036  15.452  0.00  0.00    +0.000 A 
ATOM     12  C   UNL     1       6.859   5.316  16.602  0.00  0.00    +0.000 A 
ATOM     13  S   UNL     1       6.115   4.646  17.985  0.00  0.00    +0.000 S 
ENDBRANCH   6   9
BRANCH   1  15
ATOM     14  N   UNL     1       1.628   7.472  21.271  0.00  0.00    +0.000 N 
ATOM     15  C   UNL     1       2.040   7.143  19.999  0.00  0.00    +0.000 C 
ATOM     16  O   UNL     1       2.247   7.979  19.124  0.00  0.00    +0.000 OA
ATOM     17  H   UNL     1       1.299   6.749  21.903  0.00  0.00    +0.000 HD
BRANCH  14  18
ATOM     18  C   UNL     1       1.347   8.837  21.681  0.00  0.00    +0.000 C 
BRANCH  18  19
ATOM     19  C   UNL     1      -0.134   9.203  21.595  0.00  0.00    +0.000 C 
BRANCH  19  23
ATOM     20  C   UNL     1      -1.149  13.910  20.305  0.00  0.00    +0.000 C 
ATOM     21  C   UNL     1      -0.907  12.449  20.155  0.00  0.00    +0.000 A 
ATOM     22  N   UNL     1      -0.657  11.622  21.149  0.00  0.00    +0.000 NA
ATOM     23  C   UNL     1      -0.463  10.334  20.663  0.00  0.00    +0.000 A 
ATOM     24  C   UNL     1      -0.592  10.217  19.290  0.00  0.00    +0.000 A 
ATOM     25  S   UNL     1      -0.949  11.738  18.591  0.00  0.00    +0.000 S 
ENDBRANCH  19  23
ENDBRANCH  18  19
ENDBRANCH  14  18
ENDBRANCH   1  15
TORSDOF 5
ENDMDL
MODEL 7
REMARK VINA RESULT:      -7.4      1.693      2.123
REMARK  Name = 
REMARK  6 active torsions:
REMARK  status: ('A' for Active; 'I' for Inactive)
REMARK    1  A    between atoms: C_1  and  C_2
REMARK    2  A    between atoms: C_4  and  C_5
REMARK    3  A    between atoms: C_5  and  C_6
REMARK    4  A    between atoms: C_6  and  N_7
REMARK    5  A    between atoms: C_8  and  C_10
REMARK    6  A    between atoms: C_15  and  C_17
REMARK                            x       y       z     vdW  Elec       q    Type
REMARK                         _______ _______ _______ _____ _____    ______ ____
ROOT
ATOM      1  C   UNL     1       2.371   6.097  20.287  0.00  0.00    +0.000 C 
ATOM      2  C   UNL     1       1.197   5.182  20.655  0.00  0.00    +0.000 C 
ATOM      3  C   UNL     1       1.660   3.728  20.721  0.00  0.00    +0.000 C 
ATOM      4  C   UNL     1       2.297   3.308  19.398  0.00  0.00    +0.000 C 
ATOM      5  N   UNL     1       3.386   4.218  19.036  0.00  0.00    +0.000 N 
ATOM      6  C   UNL     1       4.705   3.739  19.127  0.00  0.00    +0.000 C 
ATOM      7  O   UNL     1       4.921   2.617  19.602  0.00  0.00    +0.000 OA
ATOM      8  C   UNL     1       2.996   5.637  18.961  0.00  0.00    +0.000 C 
ENDROOT
BRANCH   6   9
ATOM      9  C   UNL     1       5.795   4.574  18.626  0.00  0.00    +0.000 A 
ATOM     10  C   UNL     1       6.650   5.433  19.291  0.00  0.00    +0.000 A 
ATOM     11  C   UNL     1       7.581   6.070  18.420  0.00  0.00    +0.000 A 
ATOM     12  C   UNL     1       7.369   5.728  17.105  0.00  0.00    +0.000 A 
ATOM     13  S   UNL     1       6.074   4.628  16.930  0.00  0.00    +0.000 S 
ENDBRANCH   6   9
BRANCH   1  15
ATOM     14  N   UNL     1       1.666   8.119  21.439  0.00  0.00    +0.000 N 
ATOM     15  C   UNL     1       1.936   7.555  20.212  0.00  0.00    +0.000 C 
ATOM     16  O   UNL     1       1.856   8.177  19.156  0.00  0.00    +0.000 OA
ATOM     17  H   UNL     1       1.571   7.531  22.260  0.00  0.00    +0.000 HD
BRANCH  14  18
ATOM     18  C   UNL     1       1.210   9.489  21.594  0.00  0.00    +0.000 C 
BRANCH  18  19
ATOM     19  C   UNL     1      -0.298   9.651  21.406  0.00  0.00    +0.000 C 
BRANCH  19  23
ATOM     20  C   UNL     1      -2.151  11.191  17.042  0.00  0.00    +0.000 C 
ATOM     21  C   UNL     1      -1.550  11.268  18.402  0.00  0.00    +0.000 A 
ATOM     22  N   UNL     1      -1.235  10.227  19.145  0.00  0.00    +0.000 NA
ATOM     23  C   UNL     1      -0.712  10.648  20.362  0.00  0.00    +0.000 A 
ATOM     24  C   UNL     1      -0.629  12.022  20.502  0.00  0.00    +0.000 A 
ATOM     25  S   UNL     1      -1.221  12.803  19.099  0.00  0.00    +0.000 S 
ENDBRANCH  19  23
ENDBRANCH  18  19
ENDBRANCH  14  18
ENDBRANCH   1  15
TORSDOF 5
ENDMDL
MODEL 8
REMARK VINA RESULT:      -7.4      1.816      2.133
REMARK  Name = 
REMARK  6 active torsions:
REMARK  status: ('A' for Active; 'I' for Inactive)
REMARK    1  A    between atoms: C_1  and  C_2
REMARK    2  A    between atoms: C_4  and  C_5
REMARK    3  A    between atoms: C_5  and  C_6
REMARK    4  A    between atoms: C_6  and  N_7
REMARK    5  A    between atoms: C_8  and  C_10
REMARK    6  A    between atoms: C_15  and  C_17
REMARK                            x       y       z     vdW  Elec       q    Type
REMARK                         _______ _______ _______ _____ _____    ______ ____
ROOT
ATOM      1  C   UNL     1       2.371   6.088  20.215  0.00  0.00    +0.000 C 
ATOM      2  C   UNL     1       1.251   5.149  20.680  0.00  0.00    +0.000 C 
ATOM      3  C   UNL     1       1.788   3.730  20.851  0.00  0.00    +0.000 C 
ATOM      4  C   UNL     1       2.422   3.236  19.552  0.00  0.00    +0.000 C 
ATOM      5  N   UNL     1       3.456   4.167  19.094  0.00  0.00    +0.000 N 
ATOM      6  C   UNL     1       4.799   3.761  19.194  0.00  0.00    +0.000 C 
ATOM      7  O   UNL     1       5.080   2.693  19.752  0.00  0.00    +0.000 OA
ATOM      8  C   UNL     1       2.994   5.554  18.916  0.00  0.00    +0.000 C 
ENDROOT
BRANCH   6   9
ATOM      9  C   UNL     1       5.837   4.606  18.606  0.00  0.00    +0.000 A 
ATOM     10  C   UNL     1       6.709   5.503  19.193  0.00  0.00    +0.000 A 
ATOM     11  C   UNL     1       7.570   6.135  18.249  0.00  0.00    +0.000 A 
ATOM     12  C   UNL     1       7.287   5.750  16.959  0.00  0.00    +0.000 A 
ATOM     13  S   UNL     1       6.011   4.618  16.895  0.00  0.00    +0.000 S 
ENDBRANCH   6   9
BRANCH   1  15
ATOM     14  N   UNL     1       2.160   8.058  18.806  0.00  0.00    +0.000 N 
ATOM     15  C   UNL     1       1.860   7.512  20.034  0.00  0.00    +0.000 C 
ATOM     16  O   UNL     1       1.218   8.108  20.894  0.00  0.00    +0.000 OA
ATOM     17  H   UNL     1       2.837   7.607  18.200  0.00  0.00    +0.000 HD
BRANCH  14  18
ATOM     18  C   UNL     1       1.792   9.413  18.434  0.00  0.00    +0.000 C 
BRANCH  18  19
ATOM     19  C   UNL     1       0.436   9.502  17.734  0.00  0.00    +0.000 C 
BRANCH  19  23
ATOM     20  C   UNL     1      -3.989  11.702  18.391  0.00  0.00    +0.000 C 
ATOM     21  C   UNL     1      -2.560  11.358  18.623  0.00  0.00    +0.000 A 
ATOM     22  N   UNL     1      -1.857  10.525  17.884  0.00  0.00    +0.000 NA
ATOM     23  C   UNL     1      -0.564  10.415  18.384  0.00  0.00    +0.000 A 
ATOM     24  C   UNL     1      -0.315  11.197  19.498  0.00  0.00    +0.000 A 
ATOM     25  S   UNL     1      -1.716  12.075  19.938  0.00  0.00    +0.000 S 
ENDBRANCH  19  23
ENDBRANCH  18  19
ENDBRANCH  14  18
ENDBRANCH   1  15
TORSDOF 5
ENDMDL
MODEL 9
REMARK VINA RESULT:      -7.4      2.859      3.051
REMARK  Name = 
REMARK  6 active torsions:
REMARK  status: ('A' for Active; 'I' for Inactive)
REMARK    1  A    between atoms: C_1  and  C_2
REMARK    2  A    between atoms: C_4  and  C_5
REMARK    3  A    between atoms: C_5  and  C_6
REMARK    4  A    between atoms: C_6  and  N_7
REMARK    5  A    between atoms: C_8  and  C_10
REMARK    6  A    between atoms: C_15  and  C_17
REMARK                            x       y       z     vdW  Elec       q    Type
REMARK                         _______ _______ _______ _____ _____    ______ ____
ROOT
ATOM      1  C   UNL     1       2.255   5.572  19.783  0.00  0.00    +0.000 C 
ATOM      2  C   UNL     1       1.103   4.758  20.383  0.00  0.00    +0.000 C 
ATOM      3  C   UNL     1       1.340   3.265  20.163  0.00  0.00    +0.000 C 
ATOM      4  C   UNL     1       1.518   2.963  18.678  0.00  0.00    +0.000 C 
ATOM      5  N   UNL     1       2.589   3.783  18.107  0.00  0.00    +0.000 N 
ATOM      6  C   UNL     1       3.794   3.145  17.760  0.00  0.00    +0.000 C 
ATOM      7  O   UNL     1       3.960   1.950  18.036  0.00  0.00    +0.000 OA
ATOM      8  C   UNL     1       2.413   5.233  18.292  0.00  0.00    +0.000 C 
ENDROOT
BRANCH   6   9
ATOM      9  C   UNL     1       4.818   3.910  17.050  0.00  0.00    +0.000 A 
ATOM     10  C   UNL     1       4.995   4.141  15.699  0.00  0.00    +0.000 A 
ATOM     11  C   UNL     1       6.139   4.945  15.421  0.00  0.00    +0.000 A 
ATOM     12  C   UNL     1       6.839   5.252  16.565  0.00  0.00    +0.000 A 
ATOM     13  S   UNL     1       6.106   4.595  17.960  0.00  0.00    +0.000 S 
ENDBRANCH   6   9
BRANCH   1  15
ATOM     14  N   UNL     1       1.540   7.394  21.226  0.00  0.00    +0.000 N 
ATOM     15  C   UNL     1       2.041   7.067  19.986  0.00  0.00    +0.000 C 
ATOM     16  O   UNL     1       2.315   7.905  19.131  0.00  0.00    +0.000 OA
ATOM     17  H   UNL     1       1.163   6.672  21.829  0.00  0.00    +0.000 HD
BRANCH  14  18
ATOM     18  C   UNL     1       1.236   8.759  21.619  0.00  0.00    +0.000 C 
BRANCH  18  19
ATOM     19  C   UNL     1      -0.148   9.227  21.168  0.00  0.00    +0.000 C 
BRANCH  19  23
ATOM     20  C   UNL     1      -1.052  14.081  20.484  0.00  0.00    +0.000 C 
ATOM     21  C   UNL     1      -0.905  12.781  21.194  0.00  0.00    +0.000 A 
ATOM     22  N   UNL     1      -0.532  11.653  20.627  0.00  0.00    +0.000 NA
ATOM     23  C   UNL     1      -0.514  10.627  21.566  0.00  0.00    +0.000 A 
ATOM     24  C   UNL     1      -0.864  11.021  22.846  0.00  0.00    +0.000 A 
ATOM     25  S   UNL     1      -1.231  12.692  22.879  0.00  0.00    +0.000 S 
ENDBRANCH  19  23
ENDBRANCH  18  19
ENDBRANCH  14  18
ENDBRANCH   1  15
TORSDOF 5
ENDMDL
