MODEL 1
REMARK VINA RESULT:      -7.1      0.000      0.000
REMARK  Name = 
REMARK  1 active torsions:
REMARK  status: ('A' for Active; 'I' for Inactive)
REMARK    1  A    between atoms: C_6  and  C_7
REMARK                            x       y       z     vdW  Elec       q    Type
REMARK                         _______ _______ _______ _____ _____    ______ ____
ROOT
ATOM      1  C   UNL     1       3.824   5.090  18.693  0.00  0.00    +0.000 A 
ATOM      2  C   UNL     1       3.094   6.271  19.002  0.00  0.00    +0.000 A 
ATOM      3 CL   UNL     1       3.191   7.668  17.959  0.00  0.00    +0.000 Cl
ATOM      4  C   UNL     1       2.203   6.316  20.091  0.00  0.00    +0.000 A 
ATOM      5 CL   UNL     1       1.438   7.774  20.620  0.00  0.00    +0.000 Cl
ATOM      6  C   UNL     1       1.911   5.159  20.807  0.00  0.00    +0.000 A 
ATOM      7  C   UNL     1       2.530   3.962  20.466  0.00  0.00    +0.000 A 
ATOM      8 CL   UNL     1       2.011   2.549  21.324  0.00  0.00    +0.000 Cl
ATOM      9  C   UNL     1       3.519   3.927  19.466  0.00  0.00    +0.000 A 
ATOM     10 CL   UNL     1       4.375   2.429  19.204  0.00  0.00    +0.000 Cl
ENDROOT
BRANCH   1  16
ATOM     11 CL   UNL     1       7.968   4.962  14.254  0.00  0.00    +0.000 Cl
ATOM     12  C   UNL     1       6.766   4.988  15.493  0.00  0.00    +0.000 A 
ATOM     13  C   UNL     1       7.153   5.370  16.773  0.00  0.00    +0.000 A 
ATOM     14  C   UNL     1       6.231   5.358  17.828  0.00  0.00    +0.000 A 
ATOM     15 CL   UNL     1       6.880   5.632  19.409  0.00  0.00    +0.000 Cl
ATOM     16  C   UNL     1       4.863   5.064  17.613  0.00  0.00    +0.000 A 
ATOM     17  C   UNL     1       4.496   4.711  16.292  0.00  0.00    +0.000 A 
ATOM     18  C   UNL     1       5.437   4.617  15.258  0.00  0.00    +0.000 A 
ATOM     19 CL   UNL     1       4.906   3.998  13.738  0.00  0.00    +0.000 Cl
ENDBRANCH   1  16
TORSDOF 1
ENDMDL
MODEL 2
REMARK VINA RESULT:      -6.9      0.135      2.720
REMARK  Name = 
REMARK  1 active torsions:
REMARK  status: ('A' for Active; 'I' for Inactive)
REMARK    1  A    between atoms: C_6  and  C_7
REMARK                            x       y       z     vdW  Elec       q    Type
REMARK                         _______ _______ _______ _____ _____    ______ ____
ROOT
ATOM      1  C   UNL     1       3.870   5.140  18.742  0.00  0.00    +0.000 A 
ATOM      2  C   UNL     1       3.610   4.011  19.567  0.00  0.00    +0.000 A 
ATOM      3 CL   UNL     1       4.653   2.612  19.506  0.00  0.00    +0.000 Cl
ATOM      4  C   UNL     1       2.573   4.024  20.520  0.00  0.00    +0.000 A 
ATOM      5 CL   UNL     1       2.096   2.621  21.411  0.00  0.00    +0.000 Cl
ATOM      6  C   UNL     1       1.868   5.197  20.774  0.00  0.00    +0.000 A 
ATOM      7  C   UNL     1       2.166   6.350  20.056  0.00  0.00    +0.000 A 
ATOM      8 CL   UNL     1       1.332   7.793  20.526  0.00  0.00    +0.000 Cl
ATOM      9  C   UNL     1       3.109   6.319  19.012  0.00  0.00    +0.000 A 
ATOM     10 CL   UNL     1       3.313   7.756  18.042  0.00  0.00    +0.000 Cl
ENDROOT
BRANCH   1  16
ATOM     11 CL   UNL     1       7.932   4.938  14.232  0.00  0.00    +0.000 Cl
ATOM     12  C   UNL     1       6.752   4.985  15.492  0.00  0.00    +0.000 A 
ATOM     13  C   UNL     1       7.166   5.375  16.761  0.00  0.00    +0.000 A 
ATOM     14  C   UNL     1       6.263   5.381  17.832  0.00  0.00    +0.000 A 
ATOM     15 CL   UNL     1       6.942   5.664  19.399  0.00  0.00    +0.000 Cl
ATOM     16  C   UNL     1       4.888   5.096  17.645  0.00  0.00    +0.000 A 
ATOM     17  C   UNL     1       4.495   4.734  16.334  0.00  0.00    +0.000 A 
ATOM     18  C   UNL     1       5.417   4.623  15.284  0.00  0.00    +0.000 A 
ATOM     19 CL   UNL     1       4.853   3.994  13.779  0.00  0.00    +0.000 Cl
ENDBRANCH   1  16
TORSDOF 1
ENDMDL
MODEL 3
REMARK VINA RESULT:      -6.9      1.168      3.439
REMARK  Name = 
REMARK  1 active torsions:
REMARK  status: ('A' for Active; 'I' for Inactive)
REMARK    1  A    between atoms: C_6  and  C_7
REMARK                            x       y       z     vdW  Elec       q    Type
REMARK                         _______ _______ _______ _____ _____    ______ ____
ROOT
ATOM      1  C   UNL     1       3.474   5.082  19.091  0.00  0.00    +0.000 A 
ATOM      2  C   UNL     1       3.285   3.956  19.938  0.00  0.00    +0.000 A 
ATOM      3 CL   UNL     1       4.357   2.582  19.836  0.00  0.00    +0.000 Cl
ATOM      4  C   UNL     1       2.298   3.954  20.943  0.00  0.00    +0.000 A 
ATOM      5 CL   UNL     1       1.902   2.549  21.870  0.00  0.00    +0.000 Cl
ATOM      6  C   UNL     1       1.578   5.113  21.222  0.00  0.00    +0.000 A 
ATOM      7  C   UNL     1       1.811   6.264  20.479  0.00  0.00    +0.000 A 
ATOM      8 CL   UNL     1       0.967   7.692  20.978  0.00  0.00    +0.000 Cl
ATOM      9  C   UNL     1       2.700   6.246  19.388  0.00  0.00    +0.000 A 
ATOM     10 CL   UNL     1       2.819   7.677  18.396  0.00  0.00    +0.000 Cl
ENDROOT
BRANCH   1  16
ATOM     11 CL   UNL     1       7.426   5.024  14.479  0.00  0.00    +0.000 Cl
ATOM     12  C   UNL     1       6.322   5.066  15.805  0.00  0.00    +0.000 A 
ATOM     13  C   UNL     1       5.240   4.191  15.784  0.00  0.00    +0.000 A 
ATOM     14  C   UNL     1       4.285   4.218  16.808  0.00  0.00    +0.000 A 
ATOM     15 CL   UNL     1       2.874   3.246  16.557  0.00  0.00    +0.000 Cl
ATOM     16  C   UNL     1       4.436   5.051  17.943  0.00  0.00    +0.000 A 
ATOM     17  C   UNL     1       5.565   5.906  17.947  0.00  0.00    +0.000 A 
ATOM     18  C   UNL     1       6.464   5.958  16.873  0.00  0.00    +0.000 A 
ATOM     19 CL   UNL     1       7.693   7.169  16.909  0.00  0.00    +0.000 Cl
ENDBRANCH   1  16
TORSDOF 1
ENDMDL
MODEL 4
REMARK VINA RESULT:      -6.9      1.162      2.120
REMARK  Name = 
REMARK  1 active torsions:
REMARK  status: ('A' for Active; 'I' for Inactive)
REMARK    1  A    between atoms: C_6  and  C_7
REMARK                            x       y       z     vdW  Elec       q    Type
REMARK                         _______ _______ _______ _____ _____    ______ ____
ROOT
ATOM      1  C   UNL     1       3.446   5.084  19.055  0.00  0.00    +0.000 A 
ATOM      2  C   UNL     1       2.672   6.239  19.352  0.00  0.00    +0.000 A 
ATOM      3 CL   UNL     1       2.645   7.593  18.249  0.00  0.00    +0.000 Cl
ATOM      4  C   UNL     1       1.835   6.288  20.483  0.00  0.00    +0.000 A 
ATOM      5 CL   UNL     1       1.022   7.728  20.990  0.00  0.00    +0.000 Cl
ATOM      6  C   UNL     1       1.639   5.150  21.261  0.00  0.00    +0.000 A 
ATOM      7  C   UNL     1       2.302   3.972  20.938  0.00  0.00    +0.000 A 
ATOM      8 CL   UNL     1       1.901   2.574  21.878  0.00  0.00    +0.000 Cl
ATOM      9  C   UNL     1       3.241   3.942  19.889  0.00  0.00    +0.000 A 
ATOM     10 CL   UNL     1       4.160   2.479  19.646  0.00  0.00    +0.000 Cl
ENDROOT
BRANCH   1  16
ATOM     11 CL   UNL     1       7.485   5.064  14.518  0.00  0.00    +0.000 Cl
ATOM     12  C   UNL     1       6.356   5.094  15.824  0.00  0.00    +0.000 A 
ATOM     13  C   UNL     1       5.268   4.229  15.769  0.00  0.00    +0.000 A 
ATOM     14  C   UNL     1       4.293   4.248  16.775  0.00  0.00    +0.000 A 
ATOM     15 CL   UNL     1       2.880   3.291  16.483  0.00  0.00    +0.000 Cl
ATOM     16  C   UNL     1       4.430   5.063  17.925  0.00  0.00    +0.000 A 
ATOM     17  C   UNL     1       5.565   5.909  17.963  0.00  0.00    +0.000 A 
ATOM     18  C   UNL     1       6.484   5.969  16.908  0.00  0.00    +0.000 A 
ATOM     19 CL   UNL     1       7.722   7.170  16.985  0.00  0.00    +0.000 Cl
ENDBRANCH   1  16
TORSDOF 1
ENDMDL
MODEL 5
REMARK VINA RESULT:      -6.6      0.983      2.851
REMARK  Name = 
REMARK  1 active torsions:
REMARK  status: ('A' for Active; 'I' for Inactive)
REMARK    1  A    between atoms: C_6  and  C_7
REMARK                            x       y       z     vdW  Elec       q    Type
REMARK                         _______ _______ _______ _____ _____    ______ ____
ROOT
ATOM      1  C   UNL     1       3.873   4.796  17.819  0.00  0.00    +0.000 A 
ATOM      2  C   UNL     1       3.377   3.565  18.329  0.00  0.00    +0.000 A 
ATOM      3 CL   UNL     1       4.142   2.056  17.896  0.00  0.00    +0.000 Cl
ATOM      4  C   UNL     1       2.327   3.531  19.266  0.00  0.00    +0.000 A 
ATOM      5 CL   UNL     1       1.564   2.064  19.772  0.00  0.00    +0.000 Cl
ATOM      6  C   UNL     1       1.843   4.712  19.822  0.00  0.00    +0.000 A 
ATOM      7  C   UNL     1       2.378   5.931  19.422  0.00  0.00    +0.000 A 
ATOM      8 CL   UNL     1       1.810   7.338  20.258  0.00  0.00    +0.000 Cl
ATOM      9  C   UNL     1       3.336   5.990  18.393  0.00  0.00    +0.000 A 
ATOM     10 CL   UNL     1       3.840   7.561  17.823  0.00  0.00    +0.000 Cl
ENDROOT
BRANCH   1  16
ATOM     11 CL   UNL     1       7.994   4.950  13.361  0.00  0.00    +0.000 Cl
ATOM     12  C   UNL     1       6.799   4.894  14.605  0.00  0.00    +0.000 A 
ATOM     13  C   UNL     1       7.159   5.324  15.878  0.00  0.00    +0.000 A 
ATOM     14  C   UNL     1       6.246   5.251  16.937  0.00  0.00    +0.000 A 
ATOM     15 CL   UNL     1       6.876   5.601  18.511  0.00  0.00    +0.000 Cl
ATOM     16  C   UNL     1       4.905   4.842  16.734  0.00  0.00    +0.000 A 
ATOM     17  C   UNL     1       4.564   4.440  15.421  0.00  0.00    +0.000 A 
ATOM     18  C   UNL     1       5.505   4.410  14.383  0.00  0.00    +0.000 A 
ATOM     19 CL   UNL     1       5.020   3.727  12.874  0.00  0.00    +0.000 Cl
ENDBRANCH   1  16
TORSDOF 1
ENDMDL
MODEL 6
REMARK VINA RESULT:      -5.8      2.152      5.921
REMARK  Name = 
REMARK  1 active torsions:
REMARK  status: ('A' for Active; 'I' for Inactive)
REMARK    1  A    between atoms: C_6  and  C_7
REMARK                            x       y       z     vdW  Elec       q    Type
REMARK                         _______ _______ _______ _____ _____    ______ ____
ROOT
ATOM      1  C   UNL     1       3.393   5.650  18.040  0.00  0.00    +0.000 A 
ATOM      2  C   UNL     1       2.831   4.347  17.940  0.00  0.00    +0.000 A 
ATOM      3 CL   UNL     1       1.161   4.069  18.368  0.00  0.00    +0.000 Cl
ATOM      4  C   UNL     1       3.567   3.273  17.405  0.00  0.00    +0.000 A 
ATOM      5 CL   UNL     1       3.002   1.638  17.435  0.00  0.00    +0.000 Cl
ATOM      6  C   UNL     1       4.816   3.494  16.831  0.00  0.00    +0.000 A 
ATOM      7  C   UNL     1       5.352   4.776  16.820  0.00  0.00    +0.000 A 
ATOM      8 CL   UNL     1       6.848   4.983  15.972  0.00  0.00    +0.000 Cl
ATOM      9  C   UNL     1       4.688   5.836  17.465  0.00  0.00    +0.000 A 
ATOM     10 CL   UNL     1       5.494   7.381  17.558  0.00  0.00    +0.000 Cl
ENDROOT
BRANCH   1  16
ATOM     11 CL   UNL     1       0.455  10.251  20.703  0.00  0.00    +0.000 Cl
ATOM     12  C   UNL     1       1.295   8.963  19.918  0.00  0.00    +0.000 A 
ATOM     13  C   UNL     1       1.450   7.766  20.609  0.00  0.00    +0.000 A 
ATOM     14  C   UNL     1       2.168   6.706  20.041  0.00  0.00    +0.000 A 
ATOM     15 CL   UNL     1       2.486   5.358  21.080  0.00  0.00    +0.000 Cl
ATOM     16  C   UNL     1       2.666   6.772  18.716  0.00  0.00    +0.000 A 
ATOM     17  C   UNL     1       2.462   7.993  18.030  0.00  0.00    +0.000 A 
ATOM     18  C   UNL     1       1.839   9.093  18.636  0.00  0.00    +0.000 A 
ATOM     19 CL   UNL     1       1.814  10.584  17.768  0.00  0.00    +0.000 Cl
ENDBRANCH   1  16
TORSDOF 1
ENDMDL
MODEL 7
REMARK VINA RESULT:      -5.6      2.158      5.628
REMARK  Name = 
REMARK  1 active torsions:
REMARK  status: ('A' for Active; 'I' for Inactive)
REMARK    1  A    between atoms: C_6  and  C_7
REMARK                            x       y       z     vdW  Elec       q    Type
REMARK                         _______ _______ _______ _____ _____    ______ ____
ROOT
ATOM      1  C   UNL     1       3.285   5.687  18.049  0.00  0.00    +0.000 A 
ATOM      2  C   UNL     1       4.553   5.867  17.431  0.00  0.00    +0.000 A 
ATOM      3 CL   UNL     1       5.459   7.338  17.683  0.00  0.00    +0.000 Cl
ATOM      4  C   UNL     1       5.156   4.835  16.686  0.00  0.00    +0.000 A 
ATOM      5 CL   UNL     1       6.601   5.063  15.763  0.00  0.00    +0.000 Cl
ATOM      6  C   UNL     1       4.586   3.566  16.655  0.00  0.00    +0.000 A 
ATOM      7  C   UNL     1       3.397   3.328  17.334  0.00  0.00    +0.000 A 
ATOM      8 CL   UNL     1       2.827   1.692  17.350  0.00  0.00    +0.000 Cl
ATOM      9  C   UNL     1       2.715   4.379  17.975  0.00  0.00    +0.000 A 
ATOM     10 CL   UNL     1       1.146   4.046  18.663  0.00  0.00    +0.000 Cl
ENDROOT
BRANCH   1  16
ATOM     11 CL   UNL     1       0.430  10.302  20.778  0.00  0.00    +0.000 Cl
ATOM     12  C   UNL     1       1.245   9.010  19.973  0.00  0.00    +0.000 A 
ATOM     13  C   UNL     1       1.437   7.822  20.671  0.00  0.00    +0.000 A 
ATOM     14  C   UNL     1       2.137   6.759  20.086  0.00  0.00    +0.000 A 
ATOM     15 CL   UNL     1       2.507   5.426  21.127  0.00  0.00    +0.000 Cl
ATOM     16  C   UNL     1       2.579   6.813  18.741  0.00  0.00    +0.000 A 
ATOM     17  C   UNL     1       2.339   8.025  18.050  0.00  0.00    +0.000 A 
ATOM     18  C   UNL     1       1.735   9.128  18.668  0.00  0.00    +0.000 A 
ATOM     19 CL   UNL     1       1.664  10.609  17.785  0.00  0.00    +0.000 Cl
ENDBRANCH   1  16
TORSDOF 1
ENDMDL
MODEL 8
REMARK VINA RESULT:      -5.6      6.968     11.229
REMARK  Name = 
REMARK  1 active torsions:
REMARK  status: ('A' for Active; 'I' for Inactive)
REMARK    1  A    between atoms: C_6  and  C_7
REMARK                            x       y       z     vdW  Elec       q    Type
REMARK                         _______ _______ _______ _____ _____    ______ ____
ROOT
ATOM      1  C   UNL     1      -1.024  11.272  21.393  0.00  0.00    +0.000 A 
ATOM      2  C   UNL     1      -0.228  10.157  21.777  0.00  0.00    +0.000 A 
ATOM      3 CL   UNL     1      -0.022   9.759  23.465  0.00  0.00    +0.000 Cl
ATOM      4  C   UNL     1       0.330   9.291  20.818  0.00  0.00    +0.000 A 
ATOM      5 CL   UNL     1       1.453   8.039  21.221  0.00  0.00    +0.000 Cl
ATOM      6  C   UNL     1      -0.001   9.426  19.473  0.00  0.00    +0.000 A 
ATOM      7  C   UNL     1      -0.860  10.444  19.073  0.00  0.00    +0.000 A 
ATOM      8 CL   UNL     1      -1.320  10.459  17.404  0.00  0.00    +0.000 Cl
ATOM      9  C   UNL     1      -1.323  11.396  20.001  0.00  0.00    +0.000 A 
ATOM     10 CL   UNL     1      -2.259  12.742  19.404  0.00  0.00    +0.000 Cl
ENDROOT
BRANCH   1  16
ATOM     11 CL   UNL     1      -3.120  15.254  25.471  0.00  0.00    +0.000 Cl
ATOM     12  C   UNL     1      -2.553  14.102  24.317  0.00  0.00    +0.000 A 
ATOM     13  C   UNL     1      -1.338  14.351  23.687  0.00  0.00    +0.000 A 
ATOM     14  C   UNL     1      -0.855  13.477  22.705  0.00  0.00    +0.000 A 
ATOM     15 CL   UNL     1       0.546  14.008  21.836  0.00  0.00    +0.000 Cl
ATOM     16  C   UNL     1      -1.522  12.268  22.395  0.00  0.00    +0.000 A 
ATOM     17  C   UNL     1      -2.740  12.030  23.077  0.00  0.00    +0.000 A 
ATOM     18  C   UNL     1      -3.279  12.955  23.982  0.00  0.00    +0.000 A 
ATOM     19 CL   UNL     1      -4.856  12.642  24.610  0.00  0.00    +0.000 Cl
ENDBRANCH   1  16
TORSDOF 1
ENDMDL
MODEL 9
REMARK VINA RESULT:      -5.2      7.877     11.881
REMARK  Name = 
REMARK  1 active torsions:
REMARK  status: ('A' for Active; 'I' for Inactive)
REMARK    1  A    between atoms: C_6  and  C_7
REMARK                            x       y       z     vdW  Elec       q    Type
REMARK                         _______ _______ _______ _____ _____    ______ ____
ROOT
ATOM      1  C   UNL     1      -2.245  12.056  20.202  0.00  0.00    +0.000 A 
ATOM      2  C   UNL     1      -1.068  11.314  19.908  0.00  0.00    +0.000 A 
ATOM      3 CL   UNL     1       0.152  11.071  21.133  0.00  0.00    +0.000 Cl
ATOM      4  C   UNL     1      -0.898  10.675  18.665  0.00  0.00    +0.000 A 
ATOM      5 CL   UNL     1       0.585   9.923  18.190  0.00  0.00    +0.000 Cl
ATOM      6  C   UNL     1      -1.942  10.638  17.745  0.00  0.00    +0.000 A 
ATOM      7  C   UNL     1      -3.145  11.267  18.043  0.00  0.00    +0.000 A 
ATOM      8 CL   UNL     1      -4.431  11.061  16.901  0.00  0.00    +0.000 Cl
ATOM      9  C   UNL     1      -3.287  12.019  19.224  0.00  0.00    +0.000 A 
ATOM     10 CL   UNL     1      -4.764  12.920  19.456  0.00  0.00    +0.000 Cl
ENDROOT
BRANCH   1  16
ATOM     11 CL   UNL     1      -2.872  15.159  25.385  0.00  0.00    +0.000 Cl
ATOM     12  C   UNL     1      -2.714  14.251  23.926  0.00  0.00    +0.000 A 
ATOM     13  C   UNL     1      -1.954  14.796  22.895  0.00  0.00    +0.000 A 
ATOM     14  C   UNL     1      -1.835  14.127  21.670  0.00  0.00    +0.000 A 
ATOM     15 CL   UNL     1      -1.058  15.005  20.397  0.00  0.00    +0.000 Cl
ATOM     16  C   UNL     1      -2.388  12.838  21.472  0.00  0.00    +0.000 A 
ATOM     17  C   UNL     1      -3.127  12.300  22.552  0.00  0.00    +0.000 A 
ATOM     18  C   UNL     1      -3.338  13.013  23.739  0.00  0.00    +0.000 A 
ATOM     19 CL   UNL     1      -4.410  12.333  24.909  0.00  0.00    +0.000 Cl
ENDBRANCH   1  16
TORSDOF 1
ENDMDL
