MODEL 1
REMARK VINA RESULT:      -7.6      0.000      0.000
REMARK  Name = 
REMARK  4 active torsions:
REMARK  status: ('A' for Active; 'I' for Inactive)
REMARK    1  A    between atoms: C_1  and  C_2
REMARK    2  A    between atoms: C_2  and  C_3
REMARK    3  A    between atoms: C_3  and  N_4
REMARK    4  A    between atoms: C_11  and  C_12
REMARK                            x       y       z     vdW  Elec       q    Type
REMARK                         _______ _______ _______ _____ _____    ______ ____
ROOT
ATOM      1  N   UNL     1       2.941   4.415  18.752  0.00  0.00    +0.000 NA
ATOM      2  C   UNL     1       2.121   3.791  19.833  0.00  0.00    +0.000 C 
ATOM      3  C   UNL     1       2.061   4.614  21.123  0.00  0.00    +0.000 C 
ATOM      4  O   UNL     1       1.488   5.898  20.857  0.00  0.00    +0.000 OA
ATOM      5  C   UNL     1       2.346   6.612  19.958  0.00  0.00    +0.000 C 
ATOM      6  C   UNL     1       1.801   8.013  19.702  0.00  0.00    +0.000 A 
ATOM      7  C   UNL     1       1.073   8.689  20.696  0.00  0.00    +0.000 A 
ATOM      8  C   UNL     1       0.549   9.972  20.470  0.00  0.00    +0.000 A 
ATOM      9  C   UNL     1       0.776  10.578  19.227  0.00  0.00    +0.000 A 
ATOM     10  C   UNL     1       1.526   9.934  18.243  0.00  0.00    +0.000 A 
ATOM     11  C   UNL     1       2.060   8.664  18.481  0.00  0.00    +0.000 A 
ATOM     12  C   UNL     1       2.860   8.002  17.385  0.00  0.00    +0.000 C 
ATOM     13  C   UNL     1       3.561   6.726  17.850  0.00  0.00    +0.000 C 
ATOM     14  C   UNL     1       2.535   5.844  18.597  0.00  0.00    +0.000 C 
ENDROOT
BRANCH   8  15
ATOM     15  C   UNL     1      -0.224  10.685  21.481  0.00  0.00    +0.000 A 
ATOM     16  N   UNL     1      -0.109  10.597  22.795  0.00  0.00    +0.000 NA
ATOM     17  N   UNL     1      -1.043  11.449  23.331  0.00  0.00    +0.000 NA
ATOM     18  N   UNL     1      -1.732  12.056  22.377  0.00  0.00    +0.000 NA
ATOM     19  N   UNL     1      -1.226  11.583  21.232  0.00  0.00    +0.000 N 
ATOM     20  H   UNL     1      -1.603  11.907  20.351  0.00  0.00    +0.000 HD
ENDBRANCH   8  15
BRANCH   1  21
ATOM     21  C   UNL     1       2.705   3.596  17.524  0.00  0.00    +0.000 C 
BRANCH  21  23
ATOM     22  C   UNL     1       3.728   1.353  18.194  0.00  0.00    +0.000 C 
ATOM     23  C   UNL     1       2.485   2.095  17.733  0.00  0.00    +0.000 C 
ENDBRANCH  21  23
ENDBRANCH   1  21
TORSDOF 3
ENDMDL
MODEL 2
REMARK VINA RESULT:      -7.3      0.729      1.208
REMARK  Name = 
REMARK  4 active torsions:
REMARK  status: ('A' for Active; 'I' for Inactive)
REMARK    1  A    between atoms: C_1  and  C_2
REMARK    2  A    between atoms: C_2  and  C_3
REMARK    3  A    between atoms: C_3  and  N_4
REMARK    4  A    between atoms: C_11  and  C_12
REMARK                            x       y       z     vdW  Elec       q    Type
REMARK                         _______ _______ _______ _____ _____    ______ ____
ROOT
ATOM      1  N   UNL     1       3.151   4.421  18.777  0.00  0.00    +0.000 NA
ATOM      2  C   UNL     1       2.321   3.763  19.831  0.00  0.00    +0.000 C 
ATOM      3  C   UNL     1       2.190   4.578  21.120  0.00  0.00    +0.000 C 
ATOM      4  O   UNL     1       1.577   5.840  20.840  0.00  0.00    +0.000 OA
ATOM      5  C   UNL     1       2.435   6.590  19.970  0.00  0.00    +0.000 C 
ATOM      6  C   UNL     1       1.845   7.970  19.700  0.00  0.00    +0.000 A 
ATOM      7  C   UNL     1       1.062   8.614  20.673  0.00  0.00    +0.000 A 
ATOM      8  C   UNL     1       0.497   9.877  20.434  0.00  0.00    +0.000 A 
ATOM      9  C   UNL     1       0.738  10.495  19.199  0.00  0.00    +0.000 A 
ATOM     10  C   UNL     1       1.543   9.884  18.238  0.00  0.00    +0.000 A 
ATOM     11  C   UNL     1       2.117   8.634  18.490  0.00  0.00    +0.000 A 
ATOM     12  C   UNL     1       2.976   8.007  17.417  0.00  0.00    +0.000 C 
ATOM     13  C   UNL     1       3.710   6.758  17.901  0.00  0.00    +0.000 C 
ATOM     14  C   UNL     1       2.695   5.835  18.614  0.00  0.00    +0.000 C 
ENDROOT
BRANCH   8  15
ATOM     15  C   UNL     1      -0.335  10.557  21.422  0.00  0.00    +0.000 A 
ATOM     16  N   UNL     1      -1.114  11.607  21.233  0.00  0.00    +0.000 NA
ATOM     17  N   UNL     1      -1.696  11.890  22.445  0.00  0.00    +0.000 NA
ATOM     18  N   UNL     1      -1.290  11.039  23.374  0.00  0.00    +0.000 NA
ATOM     19  N   UNL     1      -0.446  10.213  22.742  0.00  0.00    +0.000 N 
ATOM     20  H   UNL     1       0.000   9.468  23.258  0.00  0.00    +0.000 HD
ENDBRANCH   8  15
BRANCH   1  21
ATOM     21  C   UNL     1       2.984   3.598  17.541  0.00  0.00    +0.000 C 
BRANCH  21  23
ATOM     22  C   UNL     1       4.995   4.156  16.068  0.00  0.00    +0.000 C 
ATOM     23  C   UNL     1       4.267   3.095  16.875  0.00  0.00    +0.000 C 
ENDBRANCH  21  23
ENDBRANCH   1  21
TORSDOF 3
ENDMDL
MODEL 3
REMARK VINA RESULT:      -7.1      4.824      8.273
REMARK  Name = 
REMARK  4 active torsions:
REMARK  status: ('A' for Active; 'I' for Inactive)
REMARK    1  A    between atoms: C_1  and  C_2
REMARK    2  A    between atoms: C_2  and  C_3
REMARK    3  A    between atoms: C_3  and  N_4
REMARK    4  A    between atoms: C_11  and  C_12
REMARK                            x       y       z     vdW  Elec       q    Type
REMARK                         _______ _______ _______ _____ _____    ______ ____
ROOT
ATOM      1  N   UNL     1       2.094   4.476  19.843  0.00  0.00    +0.000 NA
ATOM      2  C   UNL     1       1.219   3.597  19.010  0.00  0.00    +0.000 C 
ATOM      3  C   UNL     1       1.208   3.959  17.523  0.00  0.00    +0.000 C 
ATOM      4  O   UNL     1       2.530   3.858  16.985  0.00  0.00    +0.000 OA
ATOM      5  C   UNL     1       3.371   4.822  17.633  0.00  0.00    +0.000 C 
ATOM      6  C   UNL     1       4.774   4.788  17.039  0.00  0.00    +0.000 A 
ATOM      7  C   UNL     1       4.972   4.449  15.689  0.00  0.00    +0.000 A 
ATOM      8  C   UNL     1       6.259   4.396  15.132  0.00  0.00    +0.000 A 
ATOM      9  C   UNL     1       7.355   4.701  15.950  0.00  0.00    +0.000 A 
ATOM     10  C   UNL     1       7.173   5.073  17.282  0.00  0.00    +0.000 A 
ATOM     11  C   UNL     1       5.887   5.142  17.825  0.00  0.00    +0.000 A 
ATOM     12  C   UNL     1       5.737   5.543  19.274  0.00  0.00    +0.000 C 
ATOM     13  C   UNL     1       4.283   5.787  19.674  0.00  0.00    +0.000 C 
ATOM     14  C   UNL     1       3.432   4.592  19.188  0.00  0.00    +0.000 C 
ENDROOT
BRANCH   8  15
ATOM     15  C   UNL     1       6.489   4.029  13.738  0.00  0.00    +0.000 A 
ATOM     16  N   UNL     1       7.248   4.653  12.856  0.00  0.00    +0.000 NA
ATOM     17  N   UNL     1       7.155   3.944  11.683  0.00  0.00    +0.000 NA
ATOM     18  N   UNL     1       6.353   2.901  11.824  0.00  0.00    +0.000 NA
ATOM     19  N   UNL     1       5.939   2.953  13.096  0.00  0.00    +0.000 N 
ATOM     20  H   UNL     1       5.304   2.246  13.442  0.00  0.00    +0.000 HD
ENDBRANCH   8  15
BRANCH   1  21
ATOM     21  C   UNL     1       2.150   3.846  21.197  0.00  0.00    +0.000 C 
BRANCH  21  23
ATOM     22  C   UNL     1       3.999   2.107  20.912  0.00  0.00    +0.000 C 
ATOM     23  C   UNL     1       2.541   2.367  21.249  0.00  0.00    +0.000 C 
ENDBRANCH  21  23
ENDBRANCH   1  21
TORSDOF 3
ENDMDL
MODEL 4
REMARK VINA RESULT:      -7.0      1.143      1.641
REMARK  Name = 
REMARK  4 active torsions:
REMARK  status: ('A' for Active; 'I' for Inactive)
REMARK    1  A    between atoms: C_1  and  C_2
REMARK    2  A    between atoms: C_2  and  C_3
REMARK    3  A    between atoms: C_3  and  N_4
REMARK    4  A    between atoms: C_11  and  C_12
REMARK                            x       y       z     vdW  Elec       q    Type
REMARK                         _______ _______ _______ _____ _____    ______ ____
ROOT
ATOM      1  N   UNL     1       3.492   3.084  19.658  0.00  0.00    +0.000 NA
ATOM      2  C   UNL     1       2.581   2.779  20.803  0.00  0.00    +0.000 C 
ATOM      3  C   UNL     1       2.499   3.895  21.847  0.00  0.00    +0.000 C 
ATOM      4  O   UNL     1       2.015   5.098  21.241  0.00  0.00    +0.000 OA
ATOM      5  C   UNL     1       2.958   5.532  20.253  0.00  0.00    +0.000 C 
ATOM      6  C   UNL     1       2.508   6.849  19.630  0.00  0.00    +0.000 A 
ATOM      7  C   UNL     1       1.768   7.779  20.380  0.00  0.00    +0.000 A 
ATOM      8  C   UNL     1       1.331   8.988  19.816  0.00  0.00    +0.000 A 
ATOM      9  C   UNL     1       1.657   9.259  18.480  0.00  0.00    +0.000 A 
ATOM     10  C   UNL     1       2.421   8.362  17.734  0.00  0.00    +0.000 A 
ATOM     11  C   UNL     1       2.869   7.169  18.308  0.00  0.00    +0.000 A 
ATOM     12  C   UNL     1       3.688   6.225  17.460  0.00  0.00    +0.000 C 
ATOM     13  C   UNL     1       4.290   5.075  18.266  0.00  0.00    +0.000 C 
ATOM     14  C   UNL     1       3.176   4.447  19.135  0.00  0.00    +0.000 C 
ENDROOT
BRANCH   8  15
ATOM     15  C   UNL     1       0.545   9.959  20.570  0.00  0.00    +0.000 A 
ATOM     16  N   UNL     1       0.815  10.461  21.762  0.00  0.00    +0.000 NA
ATOM     17  N   UNL     1      -0.204  11.331  22.064  0.00  0.00    +0.000 NA
ATOM     18  N   UNL     1      -1.095  11.372  21.086  0.00  0.00    +0.000 NA
ATOM     19  N   UNL     1      -0.633  10.522  20.161  0.00  0.00    +0.000 N 
ATOM     20  H   UNL     1      -1.156  10.383  19.308  0.00  0.00    +0.000 HD
ENDBRANCH   8  15
BRANCH   1  21
ATOM     21  C   UNL     1       3.276   1.999  18.654  0.00  0.00    +0.000 C 
BRANCH  21  23
ATOM     22  C   UNL     1       0.739   2.252  18.484  0.00  0.00    +0.000 C 
ATOM     23  C   UNL     1       2.059   2.145  17.737  0.00  0.00    +0.000 C 
ENDBRANCH  21  23
ENDBRANCH   1  21
TORSDOF 3
ENDMDL
MODEL 5
REMARK VINA RESULT:      -7.0      1.784      7.205
REMARK  Name = 
REMARK  4 active torsions:
REMARK  status: ('A' for Active; 'I' for Inactive)
REMARK    1  A    between atoms: C_1  and  C_2
REMARK    2  A    between atoms: C_2  and  C_3
REMARK    3  A    between atoms: C_3  and  N_4
REMARK    4  A    between atoms: C_11  and  C_12
REMARK                            x       y       z     vdW  Elec       q    Type
REMARK                         _______ _______ _______ _____ _____    ______ ____
ROOT
ATOM      1  N   UNL     1       0.103  11.003  20.882  0.00  0.00    +0.000 NA
ATOM      2  C   UNL     1       0.121  10.496  22.288  0.00  0.00    +0.000 C 
ATOM      3  C   UNL     1      -0.125   8.990  22.409  0.00  0.00    +0.000 C 
ATOM      4  O   UNL     1       0.886   8.271  21.697  0.00  0.00    +0.000 OA
ATOM      5  C   UNL     1       0.787   8.589  20.303  0.00  0.00    +0.000 C 
ATOM      6  C   UNL     1       1.809   7.789  19.501  0.00  0.00    +0.000 A 
ATOM      7  C   UNL     1       2.206   6.509  19.924  0.00  0.00    +0.000 A 
ATOM      8  C   UNL     1       3.158   5.768  19.207  0.00  0.00    +0.000 A 
ATOM      9  C   UNL     1       3.705   6.328  18.044  0.00  0.00    +0.000 A 
ATOM     10  C   UNL     1       3.295   7.582  17.592  0.00  0.00    +0.000 A 
ATOM     11  C   UNL     1       2.332   8.307  18.301  0.00  0.00    +0.000 A 
ATOM     12  C   UNL     1       1.923   9.664  17.779  0.00  0.00    +0.000 C 
ATOM     13  C   UNL     1       0.720  10.246  18.519  0.00  0.00    +0.000 C 
ATOM     14  C   UNL     1       0.973  10.129  20.040  0.00  0.00    +0.000 C 
ENDROOT
BRANCH   8  15
ATOM     15  C   UNL     1       3.599   4.445  19.637  0.00  0.00    +0.000 A 
ATOM     16  N   UNL     1       2.954   3.596  20.417  0.00  0.00    +0.000 NA
ATOM     17  N   UNL     1       3.756   2.488  20.542  0.00  0.00    +0.000 NA
ATOM     18  N   UNL     1       4.880   2.639  19.860  0.00  0.00    +0.000 NA
ATOM     19  N   UNL     1       4.785   3.851  19.299  0.00  0.00    +0.000 N 
ATOM     20  H   UNL     1       5.540   4.193  18.722  0.00  0.00    +0.000 HD
ENDBRANCH   8  15
BRANCH   1  21
ATOM     21  C   UNL     1       0.572  12.421  20.945  0.00  0.00    +0.000 C 
BRANCH  21  23
ATOM     22  C   UNL     1      -1.634  12.912  19.753  0.00  0.00    +0.000 C 
ATOM     23  C   UNL     1      -0.390  13.485  20.409  0.00  0.00    +0.000 C 
ENDBRANCH  21  23
ENDBRANCH   1  21
TORSDOF 3
ENDMDL
MODEL 6
REMARK VINA RESULT:      -6.9      1.911      7.005
REMARK  Name = 
REMARK  4 active torsions:
REMARK  status: ('A' for Active; 'I' for Inactive)
REMARK    1  A    between atoms: C_1  and  C_2
REMARK    2  A    between atoms: C_2  and  C_3
REMARK    3  A    between atoms: C_3  and  N_4
REMARK    4  A    between atoms: C_11  and  C_12
REMARK                            x       y       z     vdW  Elec       q    Type
REMARK                         _______ _______ _______ _____ _____    ______ ____
ROOT
ATOM      1  N   UNL     1      -0.021  11.550  20.872  0.00  0.00    +0.000 NA
ATOM      2  C   UNL     1      -0.130  11.178  22.315  0.00  0.00    +0.000 C 
ATOM      3  C   UNL     1      -0.556   9.727  22.553  0.00  0.00    +0.000 C 
ATOM      4  O   UNL     1       0.396   8.835  21.966  0.00  0.00    +0.000 OA
ATOM      5  C   UNL     1       0.401   9.030  20.546  0.00  0.00    +0.000 C 
ATOM      6  C   UNL     1       1.358   8.050  19.878  0.00  0.00    +0.000 A 
ATOM      7  C   UNL     1       1.582   6.778  20.433  0.00  0.00    +0.000 A 
ATOM      8  C   UNL     1       2.473   5.870  19.839  0.00  0.00    +0.000 A 
ATOM      9  C   UNL     1       3.136   6.254  18.666  0.00  0.00    +0.000 A 
ATOM     10  C   UNL     1       2.898   7.498  18.083  0.00  0.00    +0.000 A 
ATOM     11  C   UNL     1       1.995   8.391  18.670  0.00  0.00    +0.000 A 
ATOM     12  C   UNL     1       1.774   9.730  18.008  0.00  0.00    +0.000 C 
ATOM     13  C   UNL     1       0.614  10.511  18.624  0.00  0.00    +0.000 C 
ATOM     14  C   UNL     1       0.779  10.508  20.161  0.00  0.00    +0.000 C 
ENDROOT
BRANCH   8  15
ATOM     15  C   UNL     1       2.734   4.552  20.408  0.00  0.00    +0.000 A 
ATOM     16  N   UNL     1       3.499   3.597  19.910  0.00  0.00    +0.000 NA
ATOM     17  N   UNL     1       3.439   2.544  20.789  0.00  0.00    +0.000 NA
ATOM     18  N   UNL     1       2.651   2.828  21.815  0.00  0.00    +0.000 NA
ATOM     19  N   UNL     1       2.213   4.071  21.579  0.00  0.00    +0.000 N 
ATOM     20  H   UNL     1       1.584   4.510  22.237  0.00  0.00    +0.000 HD
ENDBRANCH   8  15
BRANCH   1  21
ATOM     21  C   UNL     1       0.608  12.906  20.838  0.00  0.00    +0.000 C 
BRANCH  21  23
ATOM     22  C   UNL     1       2.517  13.700  19.338  0.00  0.00    +0.000 C 
ATOM     23  C   UNL     1       2.119  12.955  20.601  0.00  0.00    +0.000 C 
ENDBRANCH  21  23
ENDBRANCH   1  21
TORSDOF 3
ENDMDL
MODEL 7
REMARK VINA RESULT:      -6.8      2.302      3.374
REMARK  Name = 
REMARK  4 active torsions:
REMARK  status: ('A' for Active; 'I' for Inactive)
REMARK    1  A    between atoms: C_1  and  C_2
REMARK    2  A    between atoms: C_2  and  C_3
REMARK    3  A    between atoms: C_3  and  N_4
REMARK    4  A    between atoms: C_11  and  C_12
REMARK                            x       y       z     vdW  Elec       q    Type
REMARK                         _______ _______ _______ _____ _____    ______ ____
ROOT
ATOM      1  N   UNL     1       4.184   4.529  18.421  0.00  0.00    +0.000 NA
ATOM      2  C   UNL     1       5.167   5.235  17.544  0.00  0.00    +0.000 C 
ATOM      3  C   UNL     1       4.549   6.326  16.667  0.00  0.00    +0.000 C 
ATOM      4  O   UNL     1       3.935   7.324  17.489  0.00  0.00    +0.000 OA
ATOM      5  C   UNL     1       2.855   6.726  18.217  0.00  0.00    +0.000 C 
ATOM      6  C   UNL     1       2.134   7.775  19.056  0.00  0.00    +0.000 A 
ATOM      7  C   UNL     1       2.061   9.111  18.623  0.00  0.00    +0.000 A 
ATOM      8  C   UNL     1       1.417  10.092  19.392  0.00  0.00    +0.000 A 
ATOM      9  C   UNL     1       0.831   9.712  20.608  0.00  0.00    +0.000 A 
ATOM     10  C   UNL     1       0.865   8.384  21.034  0.00  0.00    +0.000 A 
ATOM     11  C   UNL     1       1.492   7.408  20.254  0.00  0.00    +0.000 A 
ATOM     12  C   UNL     1       1.510   5.985  20.758  0.00  0.00    +0.000 C 
ATOM     13  C   UNL     1       2.031   4.994  19.718  0.00  0.00    +0.000 C 
ATOM     14  C   UNL     1       3.350   5.545  19.131  0.00  0.00    +0.000 C 
ENDROOT
BRANCH   8  15
ATOM     15  C   UNL     1       1.345  11.487  18.971  0.00  0.00    +0.000 A 
ATOM     16  N   UNL     1       0.457  12.395  19.338  0.00  0.00    +0.000 NA
ATOM     17  N   UNL     1       0.790  13.558  18.688  0.00  0.00    +0.000 NA
ATOM     18  N   UNL     1       1.860  13.385  17.927  0.00  0.00    +0.000 NA
ATOM     19  N   UNL     1       2.204  12.103  18.101  0.00  0.00    +0.000 N 
ATOM     20  H   UNL     1       3.006  11.732  17.611  0.00  0.00    +0.000 HD
ENDBRANCH   8  15
BRANCH   1  21
ATOM     21  C   UNL     1       4.989   3.672  19.343  0.00  0.00    +0.000 C 
BRANCH  21  23
ATOM     22  C   UNL     1       3.542   1.690  18.633  0.00  0.00    +0.000 C 
ATOM     23  C   UNL     1       4.379   2.322  19.732  0.00  0.00    +0.000 C 
ENDBRANCH  21  23
ENDBRANCH   1  21
TORSDOF 3
ENDMDL
MODEL 8
REMARK VINA RESULT:      -6.8      1.234      2.015
REMARK  Name = 
REMARK  4 active torsions:
REMARK  status: ('A' for Active; 'I' for Inactive)
REMARK    1  A    between atoms: C_1  and  C_2
REMARK    2  A    between atoms: C_2  and  C_3
REMARK    3  A    between atoms: C_3  and  N_4
REMARK    4  A    between atoms: C_11  and  C_12
REMARK                            x       y       z     vdW  Elec       q    Type
REMARK                         _______ _______ _______ _____ _____    ______ ____
ROOT
ATOM      1  N   UNL     1       3.724   3.097  19.829  0.00  0.00    +0.000 NA
ATOM      2  C   UNL     1       2.598   2.796  20.765  0.00  0.00    +0.000 C 
ATOM      3  C   UNL     1       2.266   3.940  21.727  0.00  0.00    +0.000 C 
ATOM      4  O   UNL     1       1.890   5.106  20.988  0.00  0.00    +0.000 OA
ATOM      5  C   UNL     1       3.010   5.543  20.207  0.00  0.00    +0.000 C 
ATOM      6  C   UNL     1       2.668   6.824  19.455  0.00  0.00    +0.000 A 
ATOM      7  C   UNL     1       1.760   7.750  19.997  0.00  0.00    +0.000 A 
ATOM      8  C   UNL     1       1.421   8.926  19.309  0.00  0.00    +0.000 A 
ATOM      9  C   UNL     1       2.017   9.168  18.064  0.00  0.00    +0.000 A 
ATOM     10  C   UNL     1       2.946   8.276  17.529  0.00  0.00    +0.000 A 
ATOM     11  C   UNL     1       3.293   7.116  18.228  0.00  0.00    +0.000 A 
ATOM     12  C   UNL     1       4.299   6.175  17.608  0.00  0.00    +0.000 C 
ATOM     13  C   UNL     1       4.746   5.071  18.565  0.00  0.00    +0.000 C 
ATOM     14  C   UNL     1       3.490   4.432  19.201  0.00  0.00    +0.000 C 
ENDROOT
BRANCH   8  15
ATOM     15  C   UNL     1       0.467   9.892  19.844  0.00  0.00    +0.000 A 
ATOM     16  N   UNL     1      -0.726  10.196  19.366  0.00  0.00    +0.000 NA
ATOM     17  N   UNL     1      -1.253  11.153  20.197  0.00  0.00    +0.000 NA
ATOM     18  N   UNL     1      -0.410  11.447  21.174  0.00  0.00    +0.000 NA
ATOM     19  N   UNL     1       0.657  10.667  20.956  0.00  0.00    +0.000 N 
ATOM     20  H   UNL     1       1.447  10.718  21.584  0.00  0.00    +0.000 HD
ENDBRANCH   8  15
BRANCH   1  21
ATOM     21  C   UNL     1       3.755   1.975  18.841  0.00  0.00    +0.000 C 
BRANCH  21  23
ATOM     22  C   UNL     1       2.467   2.971  16.872  0.00  0.00    +0.000 C 
ATOM     23  C   UNL     1       2.553   1.855  17.901  0.00  0.00    +0.000 C 
ENDBRANCH  21  23
ENDBRANCH   1  21
TORSDOF 3
ENDMDL
MODEL 9
REMARK VINA RESULT:      -6.8      2.805      7.759
REMARK  Name = 
REMARK  4 active torsions:
REMARK  status: ('A' for Active; 'I' for Inactive)
REMARK    1  A    between atoms: C_1  and  C_2
REMARK    2  A    between atoms: C_2  and  C_3
REMARK    3  A    between atoms: C_3  and  N_4
REMARK    4  A    between atoms: C_11  and  C_12
REMARK                            x       y       z     vdW  Elec       q    Type
REMARK                         _______ _______ _______ _____ _____    ______ ____
ROOT
ATOM      1  N   UNL     1       0.595  10.108  19.646  0.00  0.00    +0.000 NA
ATOM      2  C   UNL     1       0.811  10.882  18.387  0.00  0.00    +0.000 C 
ATOM      3  C   UNL     1       2.238  10.794  17.839  0.00  0.00    +0.000 C 
ATOM      4  O   UNL     1       2.568   9.432  17.550  0.00  0.00    +0.000 OA
ATOM      5  C   UNL     1       2.553   8.682  18.771  0.00  0.00    +0.000 C 
ATOM      6  C   UNL     1       2.965   7.236  18.513  0.00  0.00    +0.000 A 
ATOM      7  C   UNL     1       3.870   6.924  17.483  0.00  0.00    +0.000 A 
ATOM      8  C   UNL     1       4.245   5.597  17.221  0.00  0.00    +0.000 A 
ATOM      9  C   UNL     1       3.704   4.579  18.018  0.00  0.00    +0.000 A 
ATOM     10  C   UNL     1       2.832   4.876  19.065  0.00  0.00    +0.000 A 
ATOM     11  C   UNL     1       2.477   6.202  19.333  0.00  0.00    +0.000 A 
ATOM     12  C   UNL     1       1.525   6.476  20.472  0.00  0.00    +0.000 C 
ATOM     13  C   UNL     1       1.394   7.965  20.790  0.00  0.00    +0.000 C 
ATOM     14  C   UNL     1       1.144   8.730  19.470  0.00  0.00    +0.000 C 
ENDROOT
BRANCH   8  15
ATOM     15  C   UNL     1       5.168   5.248  16.146  0.00  0.00    +0.000 A 
ATOM     16  N   UNL     1       5.870   6.072  15.388  0.00  0.00    +0.000 NA
ATOM     17  N   UNL     1       6.593   5.291  14.520  0.00  0.00    +0.000 NA
ATOM     18  N   UNL     1       6.348   4.006  14.726  0.00  0.00    +0.000 NA
ATOM     19  N   UNL     1       5.466   3.978  15.732  0.00  0.00    +0.000 N 
ATOM     20  H   UNL     1       5.124   3.090  16.069  0.00  0.00    +0.000 HD
ENDBRANCH   8  15
BRANCH   1  21
ATOM     21  C   UNL     1      -0.878  10.131  19.902  0.00  0.00    +0.000 C 
BRANCH  21  23
ATOM     22  C   UNL     1      -2.538   9.942  17.969  0.00  0.00    +0.000 C 
ATOM     23  C   UNL     1      -1.741  10.866  18.873  0.00  0.00    +0.000 C 
ENDBRANCH  21  23
ENDBRANCH   1  21
TORSDOF 3
ENDMDL
