MODEL 1
REMARK VINA RESULT:      -9.2      0.000      0.000
REMARK  Name = 
REMARK  6 active torsions:
REMARK  status: ('A' for Active; 'I' for Inactive)
REMARK    1  A    between atoms: C_9  and  N_10
REMARK    2  A    between atoms: N_10  and  C_11
REMARK    3  A    between atoms: N_10  and  C_20
REMARK    4  A    between atoms: C_11  and  C_12
REMARK    5  A    between atoms: C_12  and  C_13
REMARK    6  A    between atoms: C_20  and  C_21
REMARK                            x       y       z     vdW  Elec       q    Type
REMARK                         _______ _______ _______ _____ _____    ______ ____
ROOT
ATOM      1  N   UNL     1       3.124   6.205  19.452  0.00  0.00    +0.000 NA
ENDROOT
BRANCH   1  10
ATOM      2  N   UNL     1       6.662   4.039  12.603  0.00  0.00    +0.000 N 
ATOM      3  C   UNL     1       6.801   4.565  13.814  0.00  0.00    +0.000 A 
ATOM      4  N   UNL     1       7.845   5.284  14.217  0.00  0.00    +0.000 NA
ATOM      5  N   UNL     1       7.468   5.578  15.466  0.00  0.00    +0.000 N 
ATOM      6  C   UNL     1       6.252   5.054  15.777  0.00  0.00    +0.000 A 
ATOM      7  N   UNL     1       5.714   5.244  17.012  0.00  0.00    +0.000 N 
ATOM      8  C   UNL     1       4.808   4.225  17.539  0.00  0.00    +0.000 C 
ATOM      9  C   UNL     1       3.343   4.628  17.432  0.00  0.00    +0.000 C 
ATOM     10  C   UNL     1       3.039   6.044  17.970  0.00  0.00    +0.000 C 
ATOM     11  C   UNL     1       3.976   6.970  17.166  0.00  0.00    +0.000 C 
ATOM     12  C   UNL     1       5.434   6.621  17.433  0.00  0.00    +0.000 C 
ATOM     13  N   UNL     1       5.834   4.353  14.749  0.00  0.00    +0.000 NA
ATOM     14  H   UNL     1       7.505   3.939  12.052  0.00  0.00    +0.000 HD
ATOM     15  H   UNL     1       5.993   3.288  12.503  0.00  0.00    +0.000 HD
ATOM     16  H   UNL     1       8.091   6.106  16.075  0.00  0.00    +0.000 HD
ENDBRANCH   1  10
BRANCH   1  17
ATOM     17  C   UNL     1       1.950   6.938  20.002  0.00  0.00    +0.000 C 
BRANCH  17  18
ATOM     18  C   UNL     1       1.808   8.418  19.582  0.00  0.00    +0.000 C 
BRANCH  18  19
ATOM     19  C   UNL     1       0.956   9.241  20.536  0.00  0.00    +0.000 A 
ATOM     20  C   UNL     1       0.201  10.318  20.046  0.00  0.00    +0.000 A 
ATOM     21  C   UNL     1      -0.641  11.047  20.894  0.00  0.00    +0.000 A 
ATOM     22  C   UNL     1      -0.737  10.702  22.239  0.00  0.00    +0.000 A 
ATOM     23 CL   UNL     1      -1.801  11.572  23.272  0.00  0.00    +0.000 Cl
ATOM     24  C   UNL     1       0.016   9.645  22.747  0.00  0.00    +0.000 A 
ATOM     25  C   UNL     1       0.859   8.917  21.898  0.00  0.00    +0.000 A 
ENDBRANCH  18  19
ENDBRANCH  17  18
ENDBRANCH   1  17
BRANCH   1  26
ATOM     26  C   UNL     1       3.439   4.964  20.211  0.00  0.00    +0.000 C 
BRANCH  26  27
ATOM     27  C   UNL     1       2.313   4.194  20.969  0.00  0.00    +0.000 C 
ATOM     28  C   UNL     1       0.910   4.188  20.338  0.00  0.00    +0.000 C 
ATOM     29  C   UNL     1       0.756   3.324  19.088  0.00  0.00    +0.000 C 
ATOM     30  C   UNL     1       1.377   1.938  19.182  0.00  0.00    +0.000 C 
ATOM     31  C   UNL     1       2.692   1.872  19.949  0.00  0.00    +0.000 C 
ATOM     32  C   UNL     1       2.699   2.720  21.217  0.00  0.00    +0.000 C 
ENDBRANCH  26  27
ENDBRANCH   1  26
TORSDOF 6
ENDMDL
MODEL 2
REMARK VINA RESULT:      -8.9      0.596      1.095
REMARK  Name = 
REMARK  6 active torsions:
REMARK  status: ('A' for Active; 'I' for Inactive)
REMARK    1  A    between atoms: C_9  and  N_10
REMARK    2  A    between atoms: N_10  and  C_11
REMARK    3  A    between atoms: N_10  and  C_20
REMARK    4  A    between atoms: C_11  and  C_12
REMARK    5  A    between atoms: C_12  and  C_13
REMARK    6  A    between atoms: C_20  and  C_21
REMARK                            x       y       z     vdW  Elec       q    Type
REMARK                         _______ _______ _______ _____ _____    ______ ____
ROOT
ATOM      1  N   UNL     1       2.901   6.553  19.338  0.00  0.00    +0.000 NA
ENDROOT
BRANCH   1  10
ATOM      2  N   UNL     1       6.701   3.894  12.810  0.00  0.00    +0.000 N 
ATOM      3  C   UNL     1       6.786   4.542  13.966  0.00  0.00    +0.000 A 
ATOM      4  N   UNL     1       7.786   5.345  14.317  0.00  0.00    +0.000 NA
ATOM      5  N   UNL     1       7.367   5.743  15.522  0.00  0.00    +0.000 N 
ATOM      6  C   UNL     1       6.168   5.195  15.859  0.00  0.00    +0.000 A 
ATOM      7  N   UNL     1       5.592   5.480  17.059  0.00  0.00    +0.000 N 
ATOM      8  C   UNL     1       4.720   4.476  17.665  0.00  0.00    +0.000 C 
ATOM      9  C   UNL     1       3.241   4.797  17.490  0.00  0.00    +0.000 C 
ATOM     10  C   UNL     1       2.860   6.243  17.878  0.00  0.00    +0.000 C 
ATOM     11  C   UNL     1       3.774   7.129  17.005  0.00  0.00    +0.000 C 
ATOM     12  C   UNL     1       5.240   6.877  17.335  0.00  0.00    +0.000 C 
ATOM     13  N   UNL     1       5.807   4.378  14.898  0.00  0.00    +0.000 NA
ATOM     14  H   UNL     1       7.561   3.781  12.290  0.00  0.00    +0.000 HD
ATOM     15  H   UNL     1       6.069   3.106  12.772  0.00  0.00    +0.000 HD
ATOM     16  H   UNL     1       7.949   6.357  16.088  0.00  0.00    +0.000 HD
ENDBRANCH   1  10
BRANCH   1  17
ATOM     17  C   UNL     1       1.783   7.446  19.751  0.00  0.00    +0.000 C 
BRANCH  17  18
ATOM     18  C   UNL     1       1.816   7.957  21.208  0.00  0.00    +0.000 C 
BRANCH  18  19
ATOM     19  C   UNL     1       0.789   9.041  21.497  0.00  0.00    +0.000 A 
ATOM     20  C   UNL     1       0.306   9.215  22.803  0.00  0.00    +0.000 A 
ATOM     21  C   UNL     1      -0.588  10.249  23.103  0.00  0.00    +0.000 A 
ATOM     22  C   UNL     1      -1.004  11.118  22.100  0.00  0.00    +0.000 A 
ATOM     23 CL   UNL     1      -2.071  12.413  22.477  0.00  0.00    +0.000 Cl
ATOM     24  C   UNL     1      -0.546  10.953  20.794  0.00  0.00    +0.000 A 
ATOM     25  C   UNL     1       0.348   9.918  20.494  0.00  0.00    +0.000 A 
ENDBRANCH  18  19
ENDBRANCH  17  18
ENDBRANCH   1  17
BRANCH   1  26
ATOM     26  C   UNL     1       3.064   5.376  20.235  0.00  0.00    +0.000 C 
BRANCH  26  27
ATOM     27  C   UNL     1       1.818   4.710  20.897  0.00  0.00    +0.000 C 
ATOM     28  C   UNL     1       0.708   4.197  19.964  0.00  0.00    +0.000 C 
ATOM     29  C   UNL     1       1.047   2.938  19.169  0.00  0.00    +0.000 C 
ATOM     30  C   UNL     1       1.714   1.830  19.972  0.00  0.00    +0.000 C 
ATOM     31  C   UNL     1       2.703   2.307  21.029  0.00  0.00    +0.000 C 
ATOM     32  C   UNL     1       2.221   3.528  21.805  0.00  0.00    +0.000 C 
ENDBRANCH  26  27
ENDBRANCH   1  26
TORSDOF 6
ENDMDL
MODEL 3
REMARK VINA RESULT:      -8.9      0.712      1.205
REMARK  Name = 
REMARK  6 active torsions:
REMARK  status: ('A' for Active; 'I' for Inactive)
REMARK    1  A    between atoms: C_9  and  N_10
REMARK    2  A    between atoms: N_10  and  C_11
REMARK    3  A    between atoms: N_10  and  C_20
REMARK    4  A    between atoms: C_11  and  C_12
REMARK    5  A    between atoms: C_12  and  C_13
REMARK    6  A    between atoms: C_20  and  C_21
REMARK                            x       y       z     vdW  Elec       q    Type
REMARK                         _______ _______ _______ _____ _____    ______ ____
ROOT
ATOM      1  N   UNL     1       3.517   6.069  19.229  0.00  0.00    +0.000 NA
ENDROOT
BRANCH   1  10
ATOM      2  N   UNL     1       6.773   3.920  12.236  0.00  0.00    +0.000 N 
ATOM      3  C   UNL     1       6.951   4.489  13.423  0.00  0.00    +0.000 A 
ATOM      4  N   UNL     1       7.969   5.281  13.743  0.00  0.00    +0.000 NA
ATOM      5  N   UNL     1       7.650   5.589  15.005  0.00  0.00    +0.000 N 
ATOM      6  C   UNL     1       6.489   5.001  15.402  0.00  0.00    +0.000 A 
ATOM      7  N   UNL     1       6.014   5.195  16.662  0.00  0.00    +0.000 N 
ATOM      8  C   UNL     1       5.206   4.139  17.269  0.00  0.00    +0.000 C 
ATOM      9  C   UNL     1       3.715   4.449  17.241  0.00  0.00    +0.000 C 
ATOM     10  C   UNL     1       3.355   5.859  17.759  0.00  0.00    +0.000 C 
ATOM     11  C   UNL     1       4.184   6.816  16.876  0.00  0.00    +0.000 C 
ATOM     12  C   UNL     1       5.675   6.564  17.064  0.00  0.00    +0.000 C 
ATOM     13  N   UNL     1       6.055   4.247  14.420  0.00  0.00    +0.000 NA
ATOM     14  H   UNL     1       7.587   3.855  11.638  0.00  0.00    +0.000 HD
ATOM     15  H   UNL     1       6.147   3.127  12.197  0.00  0.00    +0.000 HD
ATOM     16  H   UNL     1       8.273   6.171  15.560  0.00  0.00    +0.000 HD
ENDBRANCH   1  10
BRANCH   1  17
ATOM     17  C   UNL     1       2.529   7.046  19.766  0.00  0.00    +0.000 C 
BRANCH  17  18
ATOM     18  C   UNL     1       2.091   8.175  18.807  0.00  0.00    +0.000 C 
BRANCH  18  19
ATOM     19  C   UNL     1       1.110   9.155  19.429  0.00  0.00    +0.000 A 
ATOM     20  C   UNL     1       0.675   8.964  20.750  0.00  0.00    +0.000 A 
ATOM     21  C   UNL     1      -0.175   9.891  21.364  0.00  0.00    +0.000 A 
ATOM     22  C   UNL     1      -0.595  11.017  20.664  0.00  0.00    +0.000 A 
ATOM     23 CL   UNL     1      -1.607  12.176  21.433  0.00  0.00    +0.000 Cl
ATOM     24  C   UNL     1      -0.185  11.217  19.347  0.00  0.00    +0.000 A 
ATOM     25  C   UNL     1       0.665  10.289  18.733  0.00  0.00    +0.000 A 
ENDBRANCH  18  19
ENDBRANCH  17  18
ENDBRANCH   1  17
BRANCH   1  26
ATOM     26  C   UNL     1       3.605   4.826  20.044  0.00  0.00    +0.000 C 
BRANCH  26  27
ATOM     27  C   UNL     1       2.357   4.304  20.824  0.00  0.00    +0.000 C 
ATOM     28  C   UNL     1       0.994   4.384  20.116  0.00  0.00    +0.000 C 
ATOM     29  C   UNL     1       0.786   3.388  18.977  0.00  0.00    +0.000 C 
ATOM     30  C   UNL     1       1.221   1.962  19.280  0.00  0.00    +0.000 C 
ATOM     31  C   UNL     1       2.483   1.840  20.127  0.00  0.00    +0.000 C 
ATOM     32  C   UNL     1       2.542   2.840  21.277  0.00  0.00    +0.000 C 
ENDBRANCH  26  27
ENDBRANCH   1  26
TORSDOF 6
ENDMDL
MODEL 4
REMARK VINA RESULT:      -8.7      1.240      1.575
REMARK  Name = 
REMARK  6 active torsions:
REMARK  status: ('A' for Active; 'I' for Inactive)
REMARK    1  A    between atoms: C_9  and  N_10
REMARK    2  A    between atoms: N_10  and  C_11
REMARK    3  A    between atoms: N_10  and  C_20
REMARK    4  A    between atoms: C_11  and  C_12
REMARK    5  A    between atoms: C_12  and  C_13
REMARK    6  A    between atoms: C_20  and  C_21
REMARK                            x       y       z     vdW  Elec       q    Type
REMARK                         _______ _______ _______ _____ _____    ______ ____
ROOT
ATOM      1  N   UNL     1       2.993   6.143  19.543  0.00  0.00    +0.000 NA
ENDROOT
BRANCH   1  10
ATOM      2  N   UNL     1       6.702   4.149  12.732  0.00  0.00    +0.000 N 
ATOM      3  C   UNL     1       6.809   4.658  13.954  0.00  0.00    +0.000 A 
ATOM      4  N   UNL     1       7.831   5.388  14.389  0.00  0.00    +0.000 NA
ATOM      5  N   UNL     1       7.425   5.656  15.635  0.00  0.00    +0.000 N 
ATOM      6  C   UNL     1       6.212   5.105  15.913  0.00  0.00    +0.000 A 
ATOM      7  N   UNL     1       5.647   5.266  17.140  0.00  0.00    +0.000 N 
ATOM      8  C   UNL     1       4.750   4.223  17.633  0.00  0.00    +0.000 C 
ATOM      9  C   UNL     1       3.280   4.602  17.503  0.00  0.00    +0.000 C 
ATOM     10  C   UNL     1       2.940   6.003  18.057  0.00  0.00    +0.000 C 
ATOM     11  C   UNL     1       3.876   6.959  17.287  0.00  0.00    +0.000 C 
ATOM     12  C   UNL     1       5.335   6.631  17.578  0.00  0.00    +0.000 C 
ATOM     13  N   UNL     1       5.827   4.414  14.867  0.00  0.00    +0.000 NA
ATOM     14  H   UNL     1       7.558   4.073  12.197  0.00  0.00    +0.000 HD
ATOM     15  H   UNL     1       6.049   3.388  12.607  0.00  0.00    +0.000 HD
ATOM     16  H   UNL     1       8.026   6.185  16.264  0.00  0.00    +0.000 HD
ENDBRANCH   1  10
BRANCH   1  17
ATOM     17  C   UNL     1       1.769   6.794  20.087  0.00  0.00    +0.000 C 
BRANCH  17  18
ATOM     18  C   UNL     1       1.926   8.253  20.570  0.00  0.00    +0.000 C 
BRANCH  18  19
ATOM     19  C   UNL     1       0.961   9.221  19.904  0.00  0.00    +0.000 A 
ATOM     20  C   UNL     1       0.974   9.371  18.509  0.00  0.00    +0.000 A 
ATOM     21  C   UNL     1       0.049  10.206  17.870  0.00  0.00    +0.000 A 
ATOM     22  C   UNL     1      -0.896  10.896  18.622  0.00  0.00    +0.000 A 
ATOM     23 CL   UNL     1      -2.057  11.890  17.835  0.00  0.00    +0.000 Cl
ATOM     24  C   UNL     1      -0.915  10.772  20.011  0.00  0.00    +0.000 A 
ATOM     25  C   UNL     1       0.010   9.937  20.648  0.00  0.00    +0.000 A 
ENDBRANCH  18  19
ENDBRANCH  17  18
ENDBRANCH   1  17
BRANCH   1  26
ATOM     26  C   UNL     1       3.371   4.908  20.285  0.00  0.00    +0.000 C 
BRANCH  26  27
ATOM     27  C   UNL     1       2.285   4.075  21.036  0.00  0.00    +0.000 C 
ATOM     28  C   UNL     1       0.865   4.066  20.446  0.00  0.00    +0.000 C 
ATOM     29  C   UNL     1       0.693   3.262  19.159  0.00  0.00    +0.000 C 
ATOM     30  C   UNL     1       1.348   1.889  19.165  0.00  0.00    +0.000 C 
ATOM     31  C   UNL     1       2.687   1.816  19.890  0.00  0.00    +0.000 C 
ATOM     32  C   UNL     1       2.712   2.600  21.198  0.00  0.00    +0.000 C 
ENDBRANCH  26  27
ENDBRANCH   1  26
TORSDOF 6
ENDMDL
MODEL 5
REMARK VINA RESULT:      -8.6      1.178      1.576
REMARK  Name = 
REMARK  6 active torsions:
REMARK  status: ('A' for Active; 'I' for Inactive)
REMARK    1  A    between atoms: C_9  and  N_10
REMARK    2  A    between atoms: N_10  and  C_11
REMARK    3  A    between atoms: N_10  and  C_20
REMARK    4  A    between atoms: C_11  and  C_12
REMARK    5  A    between atoms: C_12  and  C_13
REMARK    6  A    between atoms: C_20  and  C_21
REMARK                            x       y       z     vdW  Elec       q    Type
REMARK                         _______ _______ _______ _____ _____    ______ ____
ROOT
ATOM      1  N   UNL     1       2.830   6.242  19.583  0.00  0.00    +0.000 NA
ENDROOT
BRANCH   1  10
ATOM      2  N   UNL     1       6.683   4.181  12.873  0.00  0.00    +0.000 N 
ATOM      3  C   UNL     1       6.768   4.679  14.101  0.00  0.00    +0.000 A 
ATOM      4  N   UNL     1       7.797   5.376  14.571  0.00  0.00    +0.000 NA
ATOM      5  N   UNL     1       7.362   5.648  15.806  0.00  0.00    +0.000 N 
ATOM      6  C   UNL     1       6.126   5.132  16.044  0.00  0.00    +0.000 A 
ATOM      7  N   UNL     1       5.529   5.302  17.255  0.00  0.00    +0.000 N 
ATOM      8  C   UNL     1       4.587   4.283  17.713  0.00  0.00    +0.000 C 
ATOM      9  C   UNL     1       3.134   4.705  17.542  0.00  0.00    +0.000 C 
ATOM     10  C   UNL     1       2.818   6.113  18.095  0.00  0.00    +0.000 C 
ATOM     11  C   UNL     1       3.804   7.045  17.359  0.00  0.00    +0.000 C 
ATOM     12  C   UNL     1       5.244   6.673  17.692  0.00  0.00    +0.000 C 
ATOM     13  N   UNL     1       5.752   4.459  14.982  0.00  0.00    +0.000 NA
ATOM     14  H   UNL     1       7.552   4.083  12.363  0.00  0.00    +0.000 HD
ATOM     15  H   UNL     1       6.012   3.440  12.723  0.00  0.00    +0.000 HD
ATOM     16  H   UNL     1       7.959   6.156  16.456  0.00  0.00    +0.000 HD
ENDBRANCH   1  10
BRANCH   1  17
ATOM     17  C   UNL     1       1.561   6.822  20.104  0.00  0.00    +0.000 C 
BRANCH  17  18
ATOM     18  C   UNL     1       1.694   8.104  20.956  0.00  0.00    +0.000 C 
BRANCH  18  19
ATOM     19  C   UNL     1       1.043   9.324  20.324  0.00  0.00    +0.000 A 
ATOM     20  C   UNL     1       0.502  10.329  21.142  0.00  0.00    +0.000 A 
ATOM     21  C   UNL     1      -0.040  11.492  20.582  0.00  0.00    +0.000 A 
ATOM     22  C   UNL     1      -0.044  11.660  19.202  0.00  0.00    +0.000 A 
ATOM     23 CL   UNL     1      -0.674  13.106  18.517  0.00  0.00    +0.000 Cl
ATOM     24  C   UNL     1       0.475  10.667  18.373  0.00  0.00    +0.000 A 
ATOM     25  C   UNL     1       1.017   9.504  18.933  0.00  0.00    +0.000 A 
ENDBRANCH  18  19
ENDBRANCH  17  18
ENDBRANCH   1  17
BRANCH   1  26
ATOM     26  C   UNL     1       3.256   5.023  20.324  0.00  0.00    +0.000 C 
BRANCH  26  27
ATOM     27  C   UNL     1       2.201   4.127  21.044  0.00  0.00    +0.000 C 
ATOM     28  C   UNL     1       0.818   3.991  20.384  0.00  0.00    +0.000 C 
ATOM     29  C   UNL     1       0.775   3.144  19.114  0.00  0.00    +0.000 C 
ATOM     30  C   UNL     1       1.532   1.826  19.194  0.00  0.00    +0.000 C 
ATOM     31  C   UNL     1       2.833   1.878  19.986  0.00  0.00    +0.000 C 
ATOM     32  C   UNL     1       2.731   2.694  21.270  0.00  0.00    +0.000 C 
ENDBRANCH  26  27
ENDBRANCH   1  26
TORSDOF 6
ENDMDL
MODEL 6
REMARK VINA RESULT:      -8.5      1.291      1.604
REMARK  Name = 
REMARK  6 active torsions:
REMARK  status: ('A' for Active; 'I' for Inactive)
REMARK    1  A    between atoms: C_9  and  N_10
REMARK    2  A    between atoms: N_10  and  C_11
REMARK    3  A    between atoms: N_10  and  C_20
REMARK    4  A    between atoms: C_11  and  C_12
REMARK    5  A    between atoms: C_12  and  C_13
REMARK    6  A    between atoms: C_20  and  C_21
REMARK                            x       y       z     vdW  Elec       q    Type
REMARK                         _______ _______ _______ _____ _____    ______ ____
ROOT
ATOM      1  N   UNL     1       3.699   6.041  19.129  0.00  0.00    +0.000 NA
ENDROOT
BRANCH   1  10
ATOM      2  N   UNL     1       6.838   3.885  12.085  0.00  0.00    +0.000 N 
ATOM      3  C   UNL     1       7.031   4.468  13.263  0.00  0.00    +0.000 A 
ATOM      4  N   UNL     1       8.043   5.280  13.553  0.00  0.00    +0.000 NA
ATOM      5  N   UNL     1       7.746   5.594  14.818  0.00  0.00    +0.000 N 
ATOM      6  C   UNL     1       6.604   4.990  15.247  0.00  0.00    +0.000 A 
ATOM      7  N   UNL     1       6.154   5.187  16.516  0.00  0.00    +0.000 N 
ATOM      8  C   UNL     1       5.378   4.123  17.149  0.00  0.00    +0.000 C 
ATOM      9  C   UNL     1       3.882   4.407  17.152  0.00  0.00    +0.000 C 
ATOM     10  C   UNL     1       3.509   5.815  17.665  0.00  0.00    +0.000 C 
ATOM     11  C   UNL     1       4.301   6.778  16.756  0.00  0.00    +0.000 C 
ATOM     12  C   UNL     1       5.799   6.554  16.913  0.00  0.00    +0.000 C 
ATOM     13  N   UNL     1       6.162   4.219  14.281  0.00  0.00    +0.000 NA
ATOM     14  H   UNL     1       7.639   3.829  11.470  0.00  0.00    +0.000 HD
ATOM     15  H   UNL     1       6.225   3.081  12.066  0.00  0.00    +0.000 HD
ATOM     16  H   UNL     1       8.370   6.193  15.355  0.00  0.00    +0.000 HD
ENDBRANCH   1  10
BRANCH   1  17
ATOM     17  C   UNL     1       2.792   7.099  19.653  0.00  0.00    +0.000 C 
BRANCH  17  18
ATOM     18  C   UNL     1       1.846   7.761  18.627  0.00  0.00    +0.000 C 
BRANCH  18  19
ATOM     19  C   UNL     1       1.509   9.207  18.955  0.00  0.00    +0.000 A 
ATOM     20  C   UNL     1       2.051  10.244  18.179  0.00  0.00    +0.000 A 
ATOM     21  C   UNL     1       1.701  11.577  18.422  0.00  0.00    +0.000 A 
ATOM     22  C   UNL     1       0.804  11.884  19.439  0.00  0.00    +0.000 A 
ATOM     23 CL   UNL     1       0.342  13.519  19.710  0.00  0.00    +0.000 Cl
ATOM     24  C   UNL     1       0.265  10.870  20.229  0.00  0.00    +0.000 A 
ATOM     25  C   UNL     1       0.616   9.537  19.987  0.00  0.00    +0.000 A 
ENDBRANCH  18  19
ENDBRANCH  17  18
ENDBRANCH   1  17
BRANCH   1  26
ATOM     26  C   UNL     1       3.702   4.812  19.969  0.00  0.00    +0.000 C 
BRANCH  26  27
ATOM     27  C   UNL     1       2.410   4.371  20.726  0.00  0.00    +0.000 C 
ATOM     28  C   UNL     1       1.073   4.492  19.977  0.00  0.00    +0.000 C 
ATOM     29  C   UNL     1       0.850   3.475  18.860  0.00  0.00    +0.000 C 
ATOM     30  C   UNL     1       1.209   2.039  19.216  0.00  0.00    +0.000 C 
ATOM     31  C   UNL     1       2.440   1.884  20.101  0.00  0.00    +0.000 C 
ATOM     32  C   UNL     1       2.514   2.913  21.225  0.00  0.00    +0.000 C 
ENDBRANCH  26  27
ENDBRANCH   1  26
TORSDOF 6
ENDMDL
MODEL 7
REMARK VINA RESULT:      -8.5      1.425      1.867
REMARK  Name = 
REMARK  6 active torsions:
REMARK  status: ('A' for Active; 'I' for Inactive)
REMARK    1  A    between atoms: C_9  and  N_10
REMARK    2  A    between atoms: N_10  and  C_11
REMARK    3  A    between atoms: N_10  and  C_20
REMARK    4  A    between atoms: C_11  and  C_12
REMARK    5  A    between atoms: C_12  and  C_13
REMARK    6  A    between atoms: C_20  and  C_21
REMARK                            x       y       z     vdW  Elec       q    Type
REMARK                         _______ _______ _______ _____ _____    ______ ____
ROOT
ATOM      1  N   UNL     1       2.926   6.642  19.409  0.00  0.00    +0.000 NA
ENDROOT
BRANCH   1  10
ATOM      2  N   UNL     1       6.520   3.866  12.815  0.00  0.00    +0.000 N 
ATOM      3  C   UNL     1       6.649   4.502  13.973  0.00  0.00    +0.000 A 
ATOM      4  N   UNL     1       7.687   5.259  14.315  0.00  0.00    +0.000 NA
ATOM      5  N   UNL     1       7.301   5.667  15.529  0.00  0.00    +0.000 N 
ATOM      6  C   UNL     1       6.084   5.168  15.879  0.00  0.00    +0.000 A 
ATOM      7  N   UNL     1       5.537   5.470  17.087  0.00  0.00    +0.000 N 
ATOM      8  C   UNL     1       4.631   4.500  17.700  0.00  0.00    +0.000 C 
ATOM      9  C   UNL     1       3.166   4.885  17.546  0.00  0.00    +0.000 C 
ATOM     10  C   UNL     1       2.852   6.343  17.948  0.00  0.00    +0.000 C 
ATOM     11  C   UNL     1       3.792   7.195  17.068  0.00  0.00    +0.000 C 
ATOM     12  C   UNL     1       5.249   6.878  17.377  0.00  0.00    +0.000 C 
ATOM     13  N   UNL     1       5.676   4.374  14.917  0.00  0.00    +0.000 NA
ATOM     14  H   UNL     1       7.368   3.719  12.282  0.00  0.00    +0.000 HD
ATOM     15  H   UNL     1       5.855   3.105  12.781  0.00  0.00    +0.000 HD
ATOM     16  H   UNL     1       7.917   6.252  16.090  0.00  0.00    +0.000 HD
ENDBRANCH   1  10
BRANCH   1  17
ATOM     17  C   UNL     1       1.801   7.507  19.860  0.00  0.00    +0.000 C 
BRANCH  17  18
ATOM     18  C   UNL     1       1.907   9.008  19.510  0.00  0.00    +0.000 C 
BRANCH  18  19
ATOM     19  C   UNL     1       0.575   9.644  19.145  0.00  0.00    +0.000 A 
ATOM     20  C   UNL     1      -0.046  10.527  20.041  0.00  0.00    +0.000 A 
ATOM     21  C   UNL     1      -1.238  11.175  19.697  0.00  0.00    +0.000 A 
ATOM     22  C   UNL     1      -1.817  10.946  18.452  0.00  0.00    +0.000 A 
ATOM     23 CL   UNL     1      -3.259  11.773  18.014  0.00  0.00    +0.000 Cl
ATOM     24  C   UNL     1      -1.222  10.061  17.555  0.00  0.00    +0.000 A 
ATOM     25  C   UNL     1      -0.030   9.413  17.900  0.00  0.00    +0.000 A 
ENDBRANCH  18  19
ENDBRANCH  17  18
ENDBRANCH   1  17
BRANCH   1  26
ATOM     26  C   UNL     1       3.138   5.461  20.291  0.00  0.00    +0.000 C 
BRANCH  26  27
ATOM     27  C   UNL     1       1.928   4.783  21.007  0.00  0.00    +0.000 C 
ATOM     28  C   UNL     1       0.733   4.361  20.135  0.00  0.00    +0.000 C 
ATOM     29  C   UNL     1       0.971   3.149  19.237  0.00  0.00    +0.000 C 
ATOM     30  C   UNL     1       1.665   1.975  19.911  0.00  0.00    +0.000 C 
ATOM     31  C   UNL     1       2.747   2.355  20.914  0.00  0.00    +0.000 C 
ATOM     32  C   UNL     1       2.365   3.534  21.803  0.00  0.00    +0.000 C 
ENDBRANCH  26  27
ENDBRANCH   1  26
TORSDOF 6
ENDMDL
MODEL 8
REMARK VINA RESULT:      -8.5      0.956      1.111
REMARK  Name = 
REMARK  6 active torsions:
REMARK  status: ('A' for Active; 'I' for Inactive)
REMARK    1  A    between atoms: C_9  and  N_10
REMARK    2  A    between atoms: N_10  and  C_11
REMARK    3  A    between atoms: N_10  and  C_20
REMARK    4  A    between atoms: C_11  and  C_12
REMARK    5  A    between atoms: C_12  and  C_13
REMARK    6  A    between atoms: C_20  and  C_21
REMARK                            x       y       z     vdW  Elec       q    Type
REMARK                         _______ _______ _______ _____ _____    ______ ____
ROOT
ATOM      1  N   UNL     1       3.936   5.957  18.845  0.00  0.00    +0.000 NA
ENDROOT
BRANCH   1  10
ATOM      2  N   UNL     1       6.995   3.816  11.762  0.00  0.00    +0.000 N 
ATOM      3  C   UNL     1       7.193   4.424  12.926  0.00  0.00    +0.000 A 
ATOM      4  N   UNL     1       8.177   5.280  13.180  0.00  0.00    +0.000 NA
ATOM      5  N   UNL     1       7.897   5.603  14.448  0.00  0.00    +0.000 N 
ATOM      6  C   UNL     1       6.791   4.960  14.912  0.00  0.00    +0.000 A 
ATOM      7  N   UNL     1       6.362   5.160  16.188  0.00  0.00    +0.000 N 
ATOM      8  C   UNL     1       5.644   4.076  16.856  0.00  0.00    +0.000 C 
ATOM      9  C   UNL     1       4.138   4.300  16.889  0.00  0.00    +0.000 C 
ATOM     10  C   UNL     1       3.721   5.700  17.390  0.00  0.00    +0.000 C 
ATOM     11  C   UNL     1       4.453   6.680  16.448  0.00  0.00    +0.000 C 
ATOM     12  C   UNL     1       5.963   6.517  16.573  0.00  0.00    +0.000 C 
ATOM     13  N   UNL     1       6.358   4.157  13.969  0.00  0.00    +0.000 NA
ATOM     14  H   UNL     1       7.785   3.781  11.129  0.00  0.00    +0.000 HD
ATOM     15  H   UNL     1       6.416   2.987  11.770  0.00  0.00    +0.000 HD
ATOM     16  H   UNL     1       8.509   6.233  14.961  0.00  0.00    +0.000 HD
ENDBRANCH   1  10
BRANCH   1  17
ATOM     17  C   UNL     1       3.508   7.328  19.240  0.00  0.00    +0.000 C 
BRANCH  17  18
ATOM     18  C   UNL     1       2.084   7.750  18.816  0.00  0.00    +0.000 C 
BRANCH  18  19
ATOM     19  C   UNL     1       1.369   8.605  19.851  0.00  0.00    +0.000 A 
ATOM     20  C   UNL     1       0.835   9.848  19.480  0.00  0.00    +0.000 A 
ATOM     21  C   UNL     1       0.115  10.620  20.400  0.00  0.00    +0.000 A 
ATOM     22  C   UNL     1      -0.078  10.154  21.696  0.00  0.00    +0.000 A 
ATOM     23 CL   UNL     1      -0.996  11.084  22.813  0.00  0.00    +0.000 Cl
ATOM     24  C   UNL     1       0.458   8.927  22.087  0.00  0.00    +0.000 A 
ATOM     25  C   UNL     1       1.178   8.156  21.167  0.00  0.00    +0.000 A 
ENDBRANCH  18  19
ENDBRANCH  17  18
ENDBRANCH   1  17
BRANCH   1  26
ATOM     26  C   UNL     1       3.419   4.904  19.762  0.00  0.00    +0.000 C 
BRANCH  26  27
ATOM     27  C   UNL     1       1.883   4.669  19.909  0.00  0.00    +0.000 C 
ATOM     28  C   UNL     1       1.147   4.025  18.722  0.00  0.00    +0.000 C 
ATOM     29  C   UNL     1       1.425   2.539  18.506  0.00  0.00    +0.000 C 
ATOM     30  C   UNL     1       1.390   1.687  19.766  0.00  0.00    +0.000 C 
ATOM     31  C   UNL     1       1.960   2.355  21.012  0.00  0.00    +0.000 C 
ATOM     32  C   UNL     1       1.555   3.819  21.155  0.00  0.00    +0.000 C 
ENDBRANCH  26  27
ENDBRANCH   1  26
TORSDOF 6
ENDMDL
MODEL 9
REMARK VINA RESULT:      -8.3      1.205      2.351
REMARK  Name = 
REMARK  6 active torsions:
REMARK  status: ('A' for Active; 'I' for Inactive)
REMARK    1  A    between atoms: C_9  and  N_10
REMARK    2  A    between atoms: N_10  and  C_11
REMARK    3  A    between atoms: N_10  and  C_20
REMARK    4  A    between atoms: C_11  and  C_12
REMARK    5  A    between atoms: C_12  and  C_13
REMARK    6  A    between atoms: C_20  and  C_21
REMARK                            x       y       z     vdW  Elec       q    Type
REMARK                         _______ _______ _______ _____ _____    ______ ____
ROOT
ATOM      1  N   UNL     1       3.579   5.043  18.817  0.00  0.00    +0.000 NA
ENDROOT
BRANCH   1  10
ATOM      2  N   UNL     1       9.115   5.771  13.077  0.00  0.00    +0.000 N 
ATOM      3  C   UNL     1       7.937   5.274  13.436  0.00  0.00    +0.000 A 
ATOM      4  N   UNL     1       7.303   4.289  12.808  0.00  0.00    +0.000 NA
ATOM      5  N   UNL     1       6.216   4.170  13.578  0.00  0.00    +0.000 N 
ATOM      6  C   UNL     1       6.219   5.050  14.616  0.00  0.00    +0.000 A 
ATOM      7  N   UNL     1       5.184   5.080  15.499  0.00  0.00    +0.000 N 
ATOM      8  C   UNL     1       4.873   6.345  16.162  0.00  0.00    +0.000 C 
ATOM      9  C   UNL     1       5.389   6.402  17.594  0.00  0.00    +0.000 C 
ATOM     10  C   UNL     1       5.020   5.167  18.445  0.00  0.00    +0.000 C 
ATOM     11  C   UNL     1       5.585   3.969  17.651  0.00  0.00    +0.000 C 
ATOM     12  C   UNL     1       4.919   3.870  16.284  0.00  0.00    +0.000 C 
ATOM     13  N   UNL     1       7.287   5.805  14.509  0.00  0.00    +0.000 NA
ATOM     14  H   UNL     1       9.413   5.589  12.127  0.00  0.00    +0.000 HD
ATOM     15  H   UNL     1       9.356   6.685  13.435  0.00  0.00    +0.000 HD
ATOM     16  H   UNL     1       5.488   3.502  13.333  0.00  0.00    +0.000 HD
ENDBRANCH   1  10
BRANCH   1  17
ATOM     17  C   UNL     1       2.923   6.373  18.960  0.00  0.00    +0.000 C 
BRANCH  17  18
ATOM     18  C   UNL     1       2.219   6.648  20.307  0.00  0.00    +0.000 C 
BRANCH  18  19
ATOM     19  C   UNL     1       1.500   7.987  20.355  0.00  0.00    +0.000 A 
ATOM     20  C   UNL     1       1.515   8.828  19.232  0.00  0.00    +0.000 A 
ATOM     21  C   UNL     1       0.804  10.034  19.232  0.00  0.00    +0.000 A 
ATOM     22  C   UNL     1       0.071  10.407  20.354  0.00  0.00    +0.000 A 
ATOM     23 CL   UNL     1      -0.835  11.868  20.339  0.00  0.00    +0.000 Cl
ATOM     24  C   UNL     1       0.056   9.591  21.484  0.00  0.00    +0.000 A 
ATOM     25  C   UNL     1       0.767   8.386  21.484  0.00  0.00    +0.000 A 
ENDBRANCH  18  19
ENDBRANCH  17  18
ENDBRANCH   1  17
BRANCH   1  26
ATOM     26  C   UNL     1       2.787   4.094  17.988  0.00  0.00    +0.000 C 
BRANCH  26  27
ATOM     27  C   UNL     1       2.417   2.682  18.541  0.00  0.00    +0.000 C 
ATOM     28  C   UNL     1       3.223   2.157  19.741  0.00  0.00    +0.000 C 
ATOM     29  C   UNL     1       2.930   2.835  21.078  0.00  0.00    +0.000 C 
ATOM     30  C   UNL     1       1.453   3.033  21.389  0.00  0.00    +0.000 C 
ATOM     31  C   UNL     1       0.584   3.392  20.189  0.00  0.00    +0.000 C 
ATOM     32  C   UNL     1       0.925   2.598  18.933  0.00  0.00    +0.000 C 
ENDBRANCH  26  27
ENDBRANCH   1  26
TORSDOF 6
ENDMDL
