MODEL 1
REMARK VINA RESULT:      -9.0      0.000      0.000
REMARK  Name = 
REMARK  5 active torsions:
REMARK  status: ('A' for Active; 'I' for Inactive)
REMARK    1  A    between atoms: C_1  and  O_2
REMARK    2  A    between atoms: O_2  and  C_3
REMARK    3  A    between atoms: C_9  and  C_10
REMARK    4  A    between atoms: N_18  and  C_19
REMARK    5  A    between atoms: C_19  and  C_20
REMARK                            x       y       z     vdW  Elec       q    Type
REMARK                         _______ _______ _______ _____ _____    ______ ____
ROOT
ATOM      1  C   UNL     1       5.938   4.013  14.581  0.00  0.00    +0.000 A 
ATOM      2  C   UNL     1       6.979   4.915  14.829  0.00  0.00    +0.000 A 
ATOM      3  C   UNL     1       7.150   5.426  16.086  0.00  0.00    +0.000 A 
ATOM      4  C   UNL     1       6.252   5.034  17.067  0.00  0.00    +0.000 A 
ATOM      5  C   UNL     1       5.194   3.973  16.928  0.00  0.00    +0.000 A 
ATOM      6  C   UNL     1       5.085   3.495  15.601  0.00  0.00    +0.000 A 
ATOM      7  C   UNL     1       4.096   3.389  18.278  0.00  0.00    +0.000 C 
ATOM      8  C   UNL     1       2.804   3.829  17.585  0.00  0.00    +0.000 C 
ATOM      9  C   UNL     1       2.706   5.331  17.451  0.00  0.00    +0.000 C 
ATOM     10  N   UNL     1       3.882   6.134  17.823  0.00  0.00    +0.000 NA
ATOM     11  C   UNL     1       4.943   5.693  18.827  0.00  0.00    +0.000 C 
ATOM     12  C   UNL     1       6.322   5.908  18.298  0.00  0.00    +0.000 C 
ATOM     13  C   UNL     1       5.140   4.153  19.102  0.00  0.00    +0.000 C 
ENDROOT
BRANCH   7  14
ATOM     14  C   UNL     1       3.313   3.609  19.858  0.00  0.00    +0.000 A 
ATOM     15  C   UNL     1       3.470   2.751  21.004  0.00  0.00    +0.000 A 
ATOM     16  C   UNL     1       2.346   2.237  21.669  0.00  0.00    +0.000 A 
ATOM     17  C   UNL     1       1.099   2.761  21.393  0.00  0.00    +0.000 A 
ATOM     18  C   UNL     1       1.014   3.900  20.585  0.00  0.00    +0.000 A 
ATOM     19  C   UNL     1       2.123   4.361  19.840  0.00  0.00    +0.000 A 
ENDBRANCH   7  14
BRANCH   1  21
ATOM     20  C   UNL     1       6.987   4.143  12.477  0.00  0.00    +0.000 C 
ATOM     21  O   UNL     1       5.911   3.642  13.254  0.00  0.00    +0.000 OA
ENDBRANCH   1  21
BRANCH  10  22
ATOM     22  C   UNL     1       3.652   7.563  17.680  0.00  0.00    +0.000 C 
BRANCH  22  23
ATOM     23  C   UNL     1       2.205   7.940  18.040  0.00  0.00    +0.000 C 
ATOM     24  C   UNL     1       1.939   8.104  19.542  0.00  0.00    +0.000 C 
ATOM     25  C   UNL     1       1.222   9.438  19.256  0.00  0.00    +0.000 C 
ATOM     26  C   UNL     1       1.777   9.409  17.827  0.00  0.00    +0.000 C 
ENDBRANCH  22  23
ENDBRANCH  10  22
TORSDOF 4
ENDMDL
MODEL 2
REMARK VINA RESULT:      -8.7      0.844      1.289
REMARK  Name = 
REMARK  5 active torsions:
REMARK  status: ('A' for Active; 'I' for Inactive)
REMARK    1  A    between atoms: C_1  and  O_2
REMARK    2  A    between atoms: O_2  and  C_3
REMARK    3  A    between atoms: C_9  and  C_10
REMARK    4  A    between atoms: N_18  and  C_19
REMARK    5  A    between atoms: C_19  and  C_20
REMARK                            x       y       z     vdW  Elec       q    Type
REMARK                         _______ _______ _______ _____ _____    ______ ____
ROOT
ATOM      1  C   UNL     1       6.448   4.507  15.044  0.00  0.00    +0.000 A 
ATOM      2  C   UNL     1       7.430   5.137  15.819  0.00  0.00    +0.000 A 
ATOM      3  C   UNL     1       7.284   5.202  17.177  0.00  0.00    +0.000 A 
ATOM      4  C   UNL     1       6.138   4.650  17.728  0.00  0.00    +0.000 A 
ATOM      5  C   UNL     1       5.103   3.839  16.996  0.00  0.00    +0.000 A 
ATOM      6  C   UNL     1       5.329   3.819  15.600  0.00  0.00    +0.000 A 
ATOM      7  C   UNL     1       3.656   3.018  17.772  0.00  0.00    +0.000 C 
ATOM      8  C   UNL     1       2.621   3.824  16.984  0.00  0.00    +0.000 C 
ATOM      9  C   UNL     1       2.638   5.292  17.345  0.00  0.00    +0.000 C 
ATOM     10  N   UNL     1       3.711   5.771  18.230  0.00  0.00    +0.000 NA
ATOM     11  C   UNL     1       4.442   4.898  19.247  0.00  0.00    +0.000 C 
ATOM     12  C   UNL     1       5.922   5.078  19.162  0.00  0.00    +0.000 C 
ATOM     13  C   UNL     1       4.480   3.338  19.026  0.00  0.00    +0.000 C 
ENDROOT
BRANCH   7  14
ATOM     14  C   UNL     1       2.492   2.840  19.103  0.00  0.00    +0.000 A 
ATOM     15  C   UNL     1       1.390   3.724  19.383  0.00  0.00    +0.000 A 
ATOM     16  C   UNL     1       1.216   4.261  20.668  0.00  0.00    +0.000 A 
ATOM     17  C   UNL     1       1.937   3.737  21.722  0.00  0.00    +0.000 A 
ATOM     18  C   UNL     1       2.694   2.580  21.509  0.00  0.00    +0.000 A 
ATOM     19  C   UNL     1       2.949   2.095  20.206  0.00  0.00    +0.000 A 
ENDBRANCH   7  14
BRANCH   1  21
ATOM     20  C   UNL     1       6.167   3.563  12.906  0.00  0.00    +0.000 C 
ATOM     21  O   UNL     1       6.758   4.577  13.703  0.00  0.00    +0.000 OA
ENDBRANCH   1  21
BRANCH  10  22
ATOM     22  C   UNL     1       3.601   7.190  18.527  0.00  0.00    +0.000 C 
BRANCH  22  23
ATOM     23  C   UNL     1       2.131   7.631  18.638  0.00  0.00    +0.000 C 
ATOM     24  C   UNL     1       1.719   8.141  20.026  0.00  0.00    +0.000 C 
ATOM     25  C   UNL     1       1.056   9.365  19.364  0.00  0.00    +0.000 C 
ATOM     26  C   UNL     1       1.751   9.005  18.045  0.00  0.00    +0.000 C 
ENDBRANCH  22  23
ENDBRANCH  10  22
TORSDOF 4
ENDMDL
MODEL 3
REMARK VINA RESULT:      -8.3      1.134      1.730
REMARK  Name = 
REMARK  5 active torsions:
REMARK  status: ('A' for Active; 'I' for Inactive)
REMARK    1  A    between atoms: C_1  and  O_2
REMARK    2  A    between atoms: O_2  and  C_3
REMARK    3  A    between atoms: C_9  and  C_10
REMARK    4  A    between atoms: N_18  and  C_19
REMARK    5  A    between atoms: C_19  and  C_20
REMARK                            x       y       z     vdW  Elec       q    Type
REMARK                         _______ _______ _______ _____ _____    ______ ____
ROOT
ATOM      1  C   UNL     1       6.425   4.801  15.400  0.00  0.00    +0.000 A 
ATOM      2  C   UNL     1       7.022   5.813  16.161  0.00  0.00    +0.000 A 
ATOM      3  C   UNL     1       6.693   5.955  17.480  0.00  0.00    +0.000 A 
ATOM      4  C   UNL     1       5.749   5.085  18.005  0.00  0.00    +0.000 A 
ATOM      5  C   UNL     1       5.159   3.891  17.307  0.00  0.00    +0.000 A 
ATOM      6  C   UNL     1       5.552   3.815  15.950  0.00  0.00    +0.000 A 
ATOM      7  C   UNL     1       3.999   2.686  18.065  0.00  0.00    +0.000 C 
ATOM      8  C   UNL     1       2.857   2.986  17.091  0.00  0.00    +0.000 C 
ATOM      9  C   UNL     1       2.320   4.390  17.248  0.00  0.00    +0.000 C 
ATOM     10  N   UNL     1       3.041   5.307  18.145  0.00  0.00    +0.000 NA
ATOM     11  C   UNL     1       3.894   4.858  19.329  0.00  0.00    +0.000 C 
ATOM     12  C   UNL     1       5.219   5.546  19.343  0.00  0.00    +0.000 C 
ATOM     13  C   UNL     1       4.496   3.401  19.327  0.00  0.00    +0.000 C 
ENDROOT
BRANCH   7  14
ATOM     14  C   UNL     1       2.810   2.234  19.306  0.00  0.00    +0.000 A 
ATOM     15  C   UNL     1       1.388   2.450  19.230  0.00  0.00    +0.000 A 
ATOM     16  C   UNL     1       0.708   3.092  20.275  0.00  0.00    +0.000 A 
ATOM     17  C   UNL     1       1.348   3.277  21.485  0.00  0.00    +0.000 A 
ATOM     18  C   UNL     1       2.593   2.671  21.685  0.00  0.00    +0.000 A 
ATOM     19  C   UNL     1       3.321   2.110  20.611  0.00  0.00    +0.000 A 
ENDBRANCH   7  14
BRANCH   1  21
ATOM     20  C   UNL     1       6.308   3.842  13.253  0.00  0.00    +0.000 C 
ATOM     21  O   UNL     1       6.857   4.844  14.093  0.00  0.00    +0.000 OA
ENDBRANCH   1  21
BRANCH  10  22
ATOM     22  C   UNL     1       2.412   6.614  18.236  0.00  0.00    +0.000 C 
BRANCH  22  23
ATOM     23  C   UNL     1       2.438   7.155  19.676  0.00  0.00    +0.000 C 
ATOM     24  C   UNL     1       1.827   8.552  19.847  0.00  0.00    +0.000 C 
ATOM     25  C   UNL     1       1.020   8.037  21.055  0.00  0.00    +0.000 C 
ATOM     26  C   UNL     1       1.390   6.600  20.666  0.00  0.00    +0.000 C 
ENDBRANCH  22  23
ENDBRANCH  10  22
TORSDOF 4
ENDMDL
MODEL 4
REMARK VINA RESULT:      -7.3      5.848     10.292
REMARK  Name = 
REMARK  5 active torsions:
REMARK  status: ('A' for Active; 'I' for Inactive)
REMARK    1  A    between atoms: C_1  and  O_2
REMARK    2  A    between atoms: O_2  and  C_3
REMARK    3  A    between atoms: C_9  and  C_10
REMARK    4  A    between atoms: N_18  and  C_19
REMARK    5  A    between atoms: C_19  and  C_20
REMARK                            x       y       z     vdW  Elec       q    Type
REMARK                         _______ _______ _______ _____ _____    ______ ____
ROOT
ATOM      1  C   UNL     1       2.140  14.281  20.127  0.00  0.00    +0.000 A 
ATOM      2  C   UNL     1       2.006  13.992  18.764  0.00  0.00    +0.000 A 
ATOM      3  C   UNL     1       0.831  13.479  18.290  0.00  0.00    +0.000 A 
ATOM      4  C   UNL     1      -0.184  13.246  19.206  0.00  0.00    +0.000 A 
ATOM      5  C   UNL     1      -0.181  13.648  20.655  0.00  0.00    +0.000 A 
ATOM      6  C   UNL     1       1.068  14.172  21.063  0.00  0.00    +0.000 A 
ATOM      7  C   UNL     1      -1.585  13.432  21.818  0.00  0.00    +0.000 C 
ATOM      8  C   UNL     1      -0.821  12.501  22.762  0.00  0.00    +0.000 C 
ATOM      9  C   UNL     1      -0.479  11.179  22.113  0.00  0.00    +0.000 C 
ATOM     10  N   UNL     1      -0.750  11.027  20.675  0.00  0.00    +0.000 NA
ATOM     11  C   UNL     1      -1.819  11.806  19.913  0.00  0.00    +0.000 C 
ATOM     12  C   UNL     1      -1.283  12.374  18.641  0.00  0.00    +0.000 C 
ATOM     13  C   UNL     1      -2.308  13.191  20.487  0.00  0.00    +0.000 C 
ENDROOT
BRANCH   7  14
ATOM     14  C   UNL     1      -3.109  12.654  22.296  0.00  0.00    +0.000 A 
ATOM     15  C   UNL     1      -4.393  12.863  21.678  0.00  0.00    +0.000 A 
ATOM     16  C   UNL     1      -5.512  13.198  22.455  0.00  0.00    +0.000 A 
ATOM     17  C   UNL     1      -5.445  13.067  23.828  0.00  0.00    +0.000 A 
ATOM     18  C   UNL     1      -4.324  12.446  24.389  0.00  0.00    +0.000 A 
ATOM     19  C   UNL     1      -3.160  12.197  23.627  0.00  0.00    +0.000 A 
ENDBRANCH   7  14
BRANCH   1  21
ATOM     20  C   UNL     1       3.953  15.605  19.419  0.00  0.00    +0.000 C 
ATOM     21  O   UNL     1       3.402  14.754  20.411  0.00  0.00    +0.000 OA
ENDBRANCH   1  21
BRANCH  10  22
ATOM     22  C   UNL     1      -0.407   9.705  20.177  0.00  0.00    +0.000 C 
BRANCH  22  23
ATOM     23  C   UNL     1       1.016   9.673  19.593  0.00  0.00    +0.000 C 
ATOM     24  C   UNL     1       1.719   8.312  19.691  0.00  0.00    +0.000 C 
ATOM     25  C   UNL     1       2.126   8.431  18.209  0.00  0.00    +0.000 C 
ATOM     26  C   UNL     1       1.157   9.609  18.057  0.00  0.00    +0.000 C 
ENDBRANCH  22  23
ENDBRANCH  10  22
TORSDOF 4
ENDMDL
MODEL 5
REMARK VINA RESULT:      -7.1      5.235     10.106
REMARK  Name = 
REMARK  5 active torsions:
REMARK  status: ('A' for Active; 'I' for Inactive)
REMARK    1  A    between atoms: C_1  and  O_2
REMARK    2  A    between atoms: O_2  and  C_3
REMARK    3  A    between atoms: C_9  and  C_10
REMARK    4  A    between atoms: N_18  and  C_19
REMARK    5  A    between atoms: C_19  and  C_20
REMARK                            x       y       z     vdW  Elec       q    Type
REMARK                         _______ _______ _______ _____ _____    ______ ____
ROOT
ATOM      1  C   UNL     1       1.882   9.918  18.061  0.00  0.00    +0.000 A 
ATOM      2  C   UNL     1       0.592   9.373  18.056  0.00  0.00    +0.000 A 
ATOM      3  C   UNL     1      -0.491  10.190  18.229  0.00  0.00    +0.000 A 
ATOM      4  C   UNL     1      -0.252  11.541  18.429  0.00  0.00    +0.000 A 
ATOM      5  C   UNL     1       1.080  12.232  18.316  0.00  0.00    +0.000 A 
ATOM      6  C   UNL     1       2.144  11.318  18.133  0.00  0.00    +0.000 A 
ATOM      7  C   UNL     1       1.351  14.042  18.468  0.00  0.00    +0.000 C 
ATOM      8  C   UNL     1       2.262  13.927  19.692  0.00  0.00    +0.000 C 
ATOM      9  C   UNL     1       1.528  13.410  20.909  0.00  0.00    +0.000 C 
ATOM     10  N   UNL     1       0.147  12.936  20.730  0.00  0.00    +0.000 NA
ATOM     11  C   UNL     1      -0.792  13.416  19.627  0.00  0.00    +0.000 C 
ATOM     12  C   UNL     1      -1.469  12.274  18.945  0.00  0.00    +0.000 C 
ATOM     13  C   UNL     1      -0.174  14.018  18.307  0.00  0.00    +0.000 C 
ENDROOT
BRANCH   7  14
ATOM     14  C   UNL     1       0.841  15.655  19.009  0.00  0.00    +0.000 A 
ATOM     15  C   UNL     1      -0.514  16.144  19.044  0.00  0.00    +0.000 A 
ATOM     16  C   UNL     1      -0.847  17.366  18.441  0.00  0.00    +0.000 A 
ATOM     17  C   UNL     1       0.163  18.223  18.049  0.00  0.00    +0.000 A 
ATOM     18  C   UNL     1       1.479  17.923  18.417  0.00  0.00    +0.000 A 
ATOM     19  C   UNL     1       1.829  16.655  18.935  0.00  0.00    +0.000 A 
ENDBRANCH   7  14
BRANCH   1  21
ATOM     20  C   UNL     1       2.442   7.652  18.373  0.00  0.00    +0.000 C 
ATOM     21  O   UNL     1       2.834   8.934  17.908  0.00  0.00    +0.000 OA
ENDBRANCH   1  21
BRANCH  10  22
ATOM     22  C   UNL     1      -0.459  12.494  21.975  0.00  0.00    +0.000 C 
BRANCH  22  23
ATOM     23  C   UNL     1      -0.726  10.978  21.966  0.00  0.00    +0.000 C 
ATOM     24  C   UNL     1       0.525  10.108  21.775  0.00  0.00    +0.000 C 
ATOM     25  C   UNL     1       0.078   9.230  22.960  0.00  0.00    +0.000 C 
ATOM     26  C   UNL     1      -0.970  10.288  23.326  0.00  0.00    +0.000 C 
ENDBRANCH  22  23
ENDBRANCH  10  22
TORSDOF 4
ENDMDL
MODEL 6
REMARK VINA RESULT:      -7.0      9.214     11.310
REMARK  Name = 
REMARK  5 active torsions:
REMARK  status: ('A' for Active; 'I' for Inactive)
REMARK    1  A    between atoms: C_1  and  O_2
REMARK    2  A    between atoms: O_2  and  C_3
REMARK    3  A    between atoms: C_9  and  C_10
REMARK    4  A    between atoms: N_18  and  C_19
REMARK    5  A    between atoms: C_19  and  C_20
REMARK                            x       y       z     vdW  Elec       q    Type
REMARK                         _______ _______ _______ _____ _____    ______ ____
ROOT
ATOM      1  C   UNL     1       9.330  10.607  19.134  0.00  0.00    +0.000 A 
ATOM      2  C   UNL     1       9.862  10.996  17.899  0.00  0.00    +0.000 A 
ATOM      3  C   UNL     1      10.377  12.253  17.746  0.00  0.00    +0.000 A 
ATOM      4  C   UNL     1      10.327  13.105  18.839  0.00  0.00    +0.000 A 
ATOM      5  C   UNL     1       9.903  12.735  20.234  0.00  0.00    +0.000 A 
ATOM      6  C   UNL     1       9.387  11.420  20.306  0.00  0.00    +0.000 A 
ATOM      7  C   UNL     1       9.959  13.852  21.690  0.00  0.00    +0.000 C 
ATOM      8  C   UNL     1       8.449  13.811  21.933  0.00  0.00    +0.000 C 
ATOM      9  C   UNL     1       7.667  14.460  20.813  0.00  0.00    +0.000 C 
ATOM     10  N   UNL     1       8.404  14.868  19.607  0.00  0.00    +0.000 NA
ATOM     11  C   UNL     1       9.887  15.225  19.584  0.00  0.00    +0.000 C 
ATOM     12  C   UNL     1      10.599  14.544  18.462  0.00  0.00    +0.000 C 
ATOM     13  C   UNL     1      10.828  14.653  20.712  0.00  0.00    +0.000 C 
ENDROOT
BRANCH   7  14
ATOM     14  C   UNL     1      10.023  15.476  22.408  0.00  0.00    +0.000 A 
ATOM     15  C   UNL     1      11.049  16.460  22.179  0.00  0.00    +0.000 A 
ATOM     16  C   UNL     1      11.701  17.075  23.258  0.00  0.00    +0.000 A 
ATOM     17  C   UNL     1      11.181  16.937  24.529  0.00  0.00    +0.000 A 
ATOM     18  C   UNL     1       9.930  16.330  24.680  0.00  0.00    +0.000 A 
ATOM     19  C   UNL     1       9.318  15.627  23.618  0.00  0.00    +0.000 A 
ENDBRANCH   7  14
BRANCH   1  21
ATOM     20  C   UNL     1       8.135   9.013  17.880  0.00  0.00    +0.000 C 
ATOM     21  O   UNL     1       8.831   9.325  19.076  0.00  0.00    +0.000 OA
ENDBRANCH   1  21
BRANCH  10  22
ATOM     22  C   UNL     1       7.550  15.505  18.618  0.00  0.00    +0.000 C 
BRANCH  22  23
ATOM     23  C   UNL     1       6.061  15.350  18.974  0.00  0.00    +0.000 C 
ATOM     24  C   UNL     1       5.228  16.630  18.822  0.00  0.00    +0.000 C 
ATOM     25  C   UNL     1       4.160  15.828  18.053  0.00  0.00    +0.000 C 
ATOM     26  C   UNL     1       5.147  14.660  17.938  0.00  0.00    +0.000 C 
ENDBRANCH  22  23
ENDBRANCH  10  22
TORSDOF 4
ENDMDL
MODEL 7
REMARK VINA RESULT:      -7.0      2.236      5.907
REMARK  Name = 
REMARK  5 active torsions:
REMARK  status: ('A' for Active; 'I' for Inactive)
REMARK    1  A    between atoms: C_1  and  O_2
REMARK    2  A    between atoms: O_2  and  C_3
REMARK    3  A    between atoms: C_9  and  C_10
REMARK    4  A    between atoms: N_18  and  C_19
REMARK    5  A    between atoms: C_19  and  C_20
REMARK                            x       y       z     vdW  Elec       q    Type
REMARK                         _______ _______ _______ _____ _____    ______ ____
ROOT
ATOM      1  C   UNL     1       2.320   2.735  21.052  0.00  0.00    +0.000 A 
ATOM      2  C   UNL     1       0.993   2.862  20.626  0.00  0.00    +0.000 A 
ATOM      3  C   UNL     1       0.724   3.337  19.372  0.00  0.00    +0.000 A 
ATOM      4  C   UNL     1       1.802   3.698  18.577  0.00  0.00    +0.000 A 
ATOM      5  C   UNL     1       3.255   3.471  18.896  0.00  0.00    +0.000 A 
ATOM      6  C   UNL     1       3.444   2.975  20.207  0.00  0.00    +0.000 A 
ATOM      7  C   UNL     1       4.658   3.849  17.774  0.00  0.00    +0.000 C 
ATOM      8  C   UNL     1       5.296   4.872  18.716  0.00  0.00    +0.000 C 
ATOM      9  C   UNL     1       4.435   6.100  18.901  0.00  0.00    +0.000 C 
ATOM     10  N   UNL     1       3.081   6.085  18.325  0.00  0.00    +0.000 NA
ATOM     11  C   UNL     1       2.667   5.241  17.123  0.00  0.00    +0.000 C 
ATOM     12  C   UNL     1       1.386   4.516  17.376  0.00  0.00    +0.000 C 
ATOM     13  C   UNL     1       3.494   3.944  16.779  0.00  0.00    +0.000 C 
ENDROOT
BRANCH   7  14
ATOM     14  C   UNL     1       5.355   4.708  16.383  0.00  0.00    +0.000 A 
ATOM     15  C   UNL     1       4.962   4.544  15.007  0.00  0.00    +0.000 A 
ATOM     16  C   UNL     1       5.921   4.278  14.018  0.00  0.00    +0.000 A 
ATOM     17  C   UNL     1       7.260   4.437  14.316  0.00  0.00    +0.000 A 
ATOM     18  C   UNL     1       7.611   5.018  15.540  0.00  0.00    +0.000 A 
ATOM     19  C   UNL     1       6.662   5.196  16.571  0.00  0.00    +0.000 A 
ENDBRANCH   7  14
BRANCH   1  21
ATOM     20  C   UNL     1       1.128   1.910  22.908  0.00  0.00    +0.000 C 
ATOM     21  O   UNL     1       2.380   2.276  22.350  0.00  0.00    +0.000 OA
ENDBRANCH   1  21
BRANCH  10  22
ATOM     22  C   UNL     1       2.366   7.332  18.542  0.00  0.00    +0.000 C 
BRANCH  22  23
ATOM     23  C   UNL     1       2.204   7.636  20.042  0.00  0.00    +0.000 C 
ATOM     24  C   UNL     1       1.243   8.789  20.363  0.00  0.00    +0.000 C 
ATOM     25  C   UNL     1       0.562   7.908  21.427  0.00  0.00    +0.000 C 
ATOM     26  C   UNL     1       1.306   6.689  20.869  0.00  0.00    +0.000 C 
ENDBRANCH  22  23
ENDBRANCH  10  22
TORSDOF 4
ENDMDL
MODEL 8
REMARK VINA RESULT:      -6.8      8.173     11.023
REMARK  Name = 
REMARK  5 active torsions:
REMARK  status: ('A' for Active; 'I' for Inactive)
REMARK    1  A    between atoms: C_1  and  O_2
REMARK    2  A    between atoms: O_2  and  C_3
REMARK    3  A    between atoms: C_9  and  C_10
REMARK    4  A    between atoms: N_18  and  C_19
REMARK    5  A    between atoms: C_19  and  C_20
REMARK                            x       y       z     vdW  Elec       q    Type
REMARK                         _______ _______ _______ _____ _____    ______ ____
ROOT
ATOM      1  C   UNL     1      -1.865  12.373  23.032  0.00  0.00    +0.000 A 
ATOM      2  C   UNL     1      -1.476  11.033  23.158  0.00  0.00    +0.000 A 
ATOM      3  C   UNL     1      -0.450  10.549  22.395  0.00  0.00    +0.000 A 
ATOM      4  C   UNL     1       0.154  11.421  21.501  0.00  0.00    +0.000 A 
ATOM      5  C   UNL     1      -0.102  12.900  21.394  0.00  0.00    +0.000 A 
ATOM      6  C   UNL     1      -1.174  13.319  22.217  0.00  0.00    +0.000 A 
ATOM      7  C   UNL     1       0.796  14.053  20.284  0.00  0.00    +0.000 C 
ATOM      8  C   UNL     1      -0.449  14.454  19.490  0.00  0.00    +0.000 C 
ATOM      9  C   UNL     1      -1.017  13.303  18.691  0.00  0.00    +0.000 C 
ATOM     10  N   UNL     1      -0.440  11.966  18.903  0.00  0.00    +0.000 NA
ATOM     11  C   UNL     1       0.985  11.711  19.387  0.00  0.00    +0.000 C 
ATOM     12  C   UNL     1       1.019  10.705  20.489  0.00  0.00    +0.000 C 
ATOM     13  C   UNL     1       1.726  12.836  20.205  0.00  0.00    +0.000 C 
ENDROOT
BRANCH   7  14
ATOM     14  C   UNL     1       1.801  14.377  18.855  0.00  0.00    +0.000 A 
ATOM     15  C   UNL     1       3.011  13.681  18.499  0.00  0.00    +0.000 A 
ATOM     16  C   UNL     1       4.187  14.393  18.217  0.00  0.00    +0.000 A 
ATOM     17  C   UNL     1       4.119  15.758  18.019  0.00  0.00    +0.000 A 
ATOM     18  C   UNL     1       2.860  16.363  17.941  0.00  0.00    +0.000 A 
ATOM     19  C   UNL     1       1.685  15.674  18.319  0.00  0.00    +0.000 A 
ENDBRANCH   7  14
BRANCH   1  21
ATOM     20  C   UNL     1      -3.950  13.443  23.253  0.00  0.00    +0.000 C 
ATOM     21  O   UNL     1      -2.933  12.657  23.854  0.00  0.00    +0.000 OA
ENDBRANCH   1  21
BRANCH  10  22
ATOM     22  C   UNL     1      -1.048  10.952  18.057  0.00  0.00    +0.000 C 
BRANCH  22  23
ATOM     23  C   UNL     1      -2.282  11.499  17.319  0.00  0.00    +0.000 C 
ATOM     24  C   UNL     1      -2.589  10.809  15.983  0.00  0.00    +0.000 C 
ATOM     25  C   UNL     1      -4.065  10.678  16.405  0.00  0.00    +0.000 C 
ATOM     26  C   UNL     1      -3.672  11.066  17.835  0.00  0.00    +0.000 C 
ENDBRANCH  22  23
ENDBRANCH  10  22
TORSDOF 4
ENDMDL
MODEL 9
REMARK VINA RESULT:      -6.8      5.524      9.795
REMARK  Name = 
REMARK  5 active torsions:
REMARK  status: ('A' for Active; 'I' for Inactive)
REMARK    1  A    between atoms: C_1  and  O_2
REMARK    2  A    between atoms: O_2  and  C_3
REMARK    3  A    between atoms: C_9  and  C_10
REMARK    4  A    between atoms: N_18  and  C_19
REMARK    5  A    between atoms: C_19  and  C_20
REMARK                            x       y       z     vdW  Elec       q    Type
REMARK                         _______ _______ _______ _____ _____    ______ ____
ROOT
ATOM      1  C   UNL     1       0.710  15.180  21.929  0.00  0.00    +0.000 A 
ATOM      2  C   UNL     1      -0.390  15.045  22.784  0.00  0.00    +0.000 A 
ATOM      3  C   UNL     1      -1.026  13.839  22.888  0.00  0.00    +0.000 A 
ATOM      4  C   UNL     1      -0.553  12.793  22.109  0.00  0.00    +0.000 A 
ATOM      5  C   UNL     1       0.696  12.807  21.270  0.00  0.00    +0.000 A 
ATOM      6  C   UNL     1       1.293  14.088  21.219  0.00  0.00    +0.000 A 
ATOM      7  C   UNL     1       1.364  11.371  20.341  0.00  0.00    +0.000 C 
ATOM      8  C   UNL     1       1.235  12.040  18.971  0.00  0.00    +0.000 C 
ATOM      9  C   UNL     1      -0.206  12.283  18.583  0.00  0.00    +0.000 C 
ATOM     10  N   UNL     1      -1.244  12.023  19.593  0.00  0.00    +0.000 NA
ATOM     11  C   UNL     1      -1.095  11.035  20.746  0.00  0.00    +0.000 C 
ATOM     12  C   UNL     1      -1.523  11.636  22.044  0.00  0.00    +0.000 C 
ATOM     13  C   UNL     1       0.352  10.653  21.241  0.00  0.00    +0.000 C 
ENDROOT
BRANCH   7  14
ATOM     14  C   UNL     1       1.166   9.781  19.574  0.00  0.00    +0.000 A 
ATOM     15  C   UNL     1       1.244   8.507  20.241  0.00  0.00    +0.000 A 
ATOM     16  C   UNL     1       2.086   7.496  19.752  0.00  0.00    +0.000 A 
ATOM     17  C   UNL     1       2.633   7.624  18.491  0.00  0.00    +0.000 A 
ATOM     18  C   UNL     1       2.199   8.674  17.675  0.00  0.00    +0.000 A 
ATOM     19  C   UNL     1       1.432   9.742  18.192  0.00  0.00    +0.000 A 
ENDBRANCH   7  14
BRANCH   1  21
ATOM     20  C   UNL     1       0.608  17.323  20.961  0.00  0.00    +0.000 C 
ATOM     21  O   UNL     1       1.187  16.472  21.937  0.00  0.00    +0.000 OA
ENDBRANCH   1  21
BRANCH  10  22
ATOM     22  C   UNL     1      -2.587  12.264  19.091  0.00  0.00    +0.000 C 
BRANCH  22  23
ATOM     23  C   UNL     1      -3.172  11.008  18.421  0.00  0.00    +0.000 C 
ATOM     24  C   UNL     1      -4.102  11.289  17.233  0.00  0.00    +0.000 C 
ATOM     25  C   UNL     1      -3.345  10.231  16.407  0.00  0.00    +0.000 C 
ATOM     26  C   UNL     1      -2.248  10.206  17.478  0.00  0.00    +0.000 C 
ENDBRANCH  22  23
ENDBRANCH  10  22
TORSDOF 4
ENDMDL
