MODEL 1
REMARK VINA RESULT:      -7.5      0.000      0.000
REMARK  Name = 
REMARK  6 active torsions:
REMARK  status: ('A' for Active; 'I' for Inactive)
REMARK    1  A    between atoms: C_1  and  C_2
REMARK    2  A    between atoms: C_2  and  C_3
REMARK    3  A    between atoms: C_4  and  O_5
REMARK    4  A    between atoms: C_7  and  N_8
REMARK    5  A    between atoms: N_8  and  C_9
REMARK    6  A    between atoms: C_15  and  C_16
REMARK                            x       y       z     vdW  Elec       q    Type
REMARK                         _______ _______ _______ _____ _____    ______ ____
ROOT
ATOM      1  N   UNL     1       5.554   4.045  18.483  0.00  0.00    +0.000 N 
ATOM      2  H   UNL     1       6.146   3.649  19.213  0.00  0.00    +0.000 HD
ENDROOT
BRANCH   1   3
ATOM      3  C   UNL     1       4.222   3.546  18.541  0.00  0.00    +0.000 A 
ATOM      4  C   UNL     1       3.271   4.005  17.605  0.00  0.00    +0.000 A 
ATOM      5  C   UNL     1       1.944   3.582  17.641  0.00  0.00    +0.000 A 
ATOM      6  C   UNL     1       1.551   2.651  18.585  0.00  0.00    +0.000 A 
ATOM      7  F   UNL     1       0.270   2.265  18.639  0.00  0.00    +0.000 F 
ATOM      8  C   UNL     1       2.465   2.122  19.479  0.00  0.00    +0.000 A 
ATOM      9  C   UNL     1       3.805   2.554  19.463  0.00  0.00    +0.000 A 
BRANCH   9  10
ATOM     10  C   UNL     1       4.668   1.952  20.444  0.00  0.00    +0.000 C 
ATOM     11  N   UNL     1       5.368   1.426  21.199  0.00  0.00    +0.000 NA
ENDBRANCH   9  10
ENDBRANCH   1   3
BRANCH   1  17
ATOM     12  C   UNL     1       5.189   6.448  15.902  0.00  0.00    +0.000 C 
ATOM     13  C   UNL     1       6.277   5.677  16.659  0.00  0.00    +0.000 C 
ATOM     14  C   UNL     1       6.795   4.479  15.853  0.00  0.00    +0.000 C 
ATOM     15  C   UNL     1       7.469   6.546  17.205  0.00  0.00    +0.000 C 
ATOM     16  C   UNL     1       7.359   5.760  18.535  0.00  0.00    +0.000 C 
ATOM     17  C   UNL     1       5.905   5.414  18.158  0.00  0.00    +0.000 C 
BRANCH  15  18
ATOM     18  O   UNL     1       7.291   7.975  17.305  0.00  0.00    +0.000 OA
ATOM     19  H   UNL     1       6.832   8.257  16.497  0.00  0.00    +0.000 HD
ENDBRANCH  15  18
ENDBRANCH   1  17
TORSDOF 4
ENDMDL
MODEL 2
REMARK VINA RESULT:      -7.2      1.198      1.756
REMARK  Name = 
REMARK  6 active torsions:
REMARK  status: ('A' for Active; 'I' for Inactive)
REMARK    1  A    between atoms: C_1  and  C_2
REMARK    2  A    between atoms: C_2  and  C_3
REMARK    3  A    between atoms: C_4  and  O_5
REMARK    4  A    between atoms: C_7  and  N_8
REMARK    5  A    between atoms: N_8  and  C_9
REMARK    6  A    between atoms: C_15  and  C_16
REMARK                            x       y       z     vdW  Elec       q    Type
REMARK                         _______ _______ _______ _____ _____    ______ ____
ROOT
ATOM      1  N   UNL     1       4.873   4.844  19.066  0.00  0.00    +0.000 N 
ATOM      2  H   UNL     1       4.709   5.795  19.399  0.00  0.00    +0.000 HD
ENDROOT
BRANCH   1   3
ATOM      3  C   UNL     1       3.664   4.103  18.943  0.00  0.00    +0.000 A 
ATOM      4  C   UNL     1       2.614   4.620  18.155  0.00  0.00    +0.000 A 
ATOM      5  C   UNL     1       1.394   3.958  18.033  0.00  0.00    +0.000 A 
ATOM      6  C   UNL     1       1.216   2.737  18.658  0.00  0.00    +0.000 A 
ATOM      7  F   UNL     1       0.035   2.114  18.564  0.00  0.00    +0.000 F 
ATOM      8  C   UNL     1       2.242   2.159  19.385  0.00  0.00    +0.000 A 
ATOM      9  C   UNL     1       3.473   2.827  19.529  0.00  0.00    +0.000 A 
BRANCH   9  10
ATOM     10  C   UNL     1       4.465   2.145  20.317  0.00  0.00    +0.000 C 
ATOM     11  N   UNL     1       5.245   1.626  20.993  0.00  0.00    +0.000 NA
ENDBRANCH   9  10
ENDBRANCH   1   3
BRANCH   1  17
ATOM     12  C   UNL     1       7.544   6.787  17.778  0.00  0.00    +0.000 C 
ATOM     13  C   UNL     1       6.279   6.054  17.314  0.00  0.00    +0.000 C 
ATOM     14  C   UNL     1       5.106   7.019  17.101  0.00  0.00    +0.000 C 
ATOM     15  C   UNL     1       6.462   5.107  16.072  0.00  0.00    +0.000 C 
ATOM     16  C   UNL     1       5.616   4.050  16.825  0.00  0.00    +0.000 C 
ATOM     17  C   UNL     1       5.988   4.758  18.143  0.00  0.00    +0.000 C 
BRANCH  15  18
ATOM     18  O   UNL     1       7.797   4.696  15.707  0.00  0.00    +0.000 OA
ATOM     19  H   UNL     1       8.178   5.420  15.182  0.00  0.00    +0.000 HD
ENDBRANCH  15  18
ENDBRANCH   1  17
TORSDOF 4
ENDMDL
MODEL 3
REMARK VINA RESULT:      -7.0      3.581      5.697
REMARK  Name = 
REMARK  6 active torsions:
REMARK  status: ('A' for Active; 'I' for Inactive)
REMARK    1  A    between atoms: C_1  and  C_2
REMARK    2  A    between atoms: C_2  and  C_3
REMARK    3  A    between atoms: C_4  and  O_5
REMARK    4  A    between atoms: C_7  and  N_8
REMARK    5  A    between atoms: N_8  and  C_9
REMARK    6  A    between atoms: C_15  and  C_16
REMARK                            x       y       z     vdW  Elec       q    Type
REMARK                         _______ _______ _______ _____ _____    ______ ____
ROOT
ATOM      1  N   UNL     1       4.879   3.467  17.807  0.00  0.00    +0.000 N 
ATOM      2  H   UNL     1       5.478   2.948  18.449  0.00  0.00    +0.000 HD
ENDROOT
BRANCH   1   3
ATOM      3  C   UNL     1       5.599   3.965  16.684  0.00  0.00    +0.000 A 
ATOM      4  C   UNL     1       5.044   3.833  15.394  0.00  0.00    +0.000 A 
ATOM      5  C   UNL     1       5.722   4.264  14.256  0.00  0.00    +0.000 A 
ATOM      6  C   UNL     1       6.952   4.883  14.389  0.00  0.00    +0.000 A 
ATOM      7  F   UNL     1       7.617   5.273  13.295  0.00  0.00    +0.000 F 
ATOM      8  C   UNL     1       7.503   5.096  15.641  0.00  0.00    +0.000 A 
ATOM      9  C   UNL     1       6.835   4.650  16.796  0.00  0.00    +0.000 A 
BRANCH   9  10
ATOM     10  C   UNL     1       7.503   4.908  18.044  0.00  0.00    +0.000 C 
ATOM     11  N   UNL     1       7.995   5.097  19.072  0.00  0.00    +0.000 NA
ENDBRANCH   9  10
ENDBRANCH   1   3
BRANCH   1  17
ATOM     12  C   UNL     1       1.503   4.542  17.679  0.00  0.00    +0.000 C 
ATOM     13  C   UNL     1       2.459   3.739  18.570  0.00  0.00    +0.000 C 
ATOM     14  C   UNL     1       2.971   4.571  19.753  0.00  0.00    +0.000 C 
ATOM     15  C   UNL     1       1.923   2.342  19.054  0.00  0.00    +0.000 C 
ATOM     16  C   UNL     1       3.313   1.753  18.708  0.00  0.00    +0.000 C 
ATOM     17  C   UNL     1       3.529   2.941  17.750  0.00  0.00    +0.000 C 
BRANCH  15  18
ATOM     18  O   UNL     1       0.803   1.754  18.358  0.00  0.00    +0.000 OA
ATOM     19  H   UNL     1       0.162   2.469  18.207  0.00  0.00    +0.000 HD
ENDBRANCH  15  18
ENDBRANCH   1  17
TORSDOF 4
ENDMDL
MODEL 4
REMARK VINA RESULT:      -7.0      3.391      5.367
REMARK  Name = 
REMARK  6 active torsions:
REMARK  status: ('A' for Active; 'I' for Inactive)
REMARK    1  A    between atoms: C_1  and  C_2
REMARK    2  A    between atoms: C_2  and  C_3
REMARK    3  A    between atoms: C_4  and  O_5
REMARK    4  A    between atoms: C_7  and  N_8
REMARK    5  A    between atoms: N_8  and  C_9
REMARK    6  A    between atoms: C_15  and  C_16
REMARK                            x       y       z     vdW  Elec       q    Type
REMARK                         _______ _______ _______ _____ _____    ______ ____
ROOT
ATOM      1  N   UNL     1       4.642   3.632  19.149  0.00  0.00    +0.000 N 
ATOM      2  H   UNL     1       5.224   3.040  19.742  0.00  0.00    +0.000 HD
ENDROOT
BRANCH   1   3
ATOM      3  C   UNL     1       5.325   4.050  17.971  0.00  0.00    +0.000 A 
ATOM      4  C   UNL     1       4.773   3.746  16.709  0.00  0.00    +0.000 A 
ATOM      5  C   UNL     1       5.418   4.093  15.524  0.00  0.00    +0.000 A 
ATOM      6  C   UNL     1       6.608   4.796  15.577  0.00  0.00    +0.000 A 
ATOM      7  F   UNL     1       7.243   5.106  14.441  0.00  0.00    +0.000 F 
ATOM      8  C   UNL     1       7.151   5.175  16.793  0.00  0.00    +0.000 A 
ATOM      9  C   UNL     1       6.517   4.816  17.996  0.00  0.00    +0.000 A 
BRANCH   9  10
ATOM     10  C   UNL     1       7.173   5.246  19.202  0.00  0.00    +0.000 C 
ATOM     11  N   UNL     1       7.707   5.539  20.184  0.00  0.00    +0.000 NA
ENDBRANCH   9  10
ENDBRANCH   1   3
BRANCH   1  17
ATOM     12  C   UNL     1       1.505   4.551  17.778  0.00  0.00    +0.000 C 
ATOM     13  C   UNL     1       2.230   4.467  19.126  0.00  0.00    +0.000 C 
ATOM     14  C   UNL     1       2.747   5.838  19.583  0.00  0.00    +0.000 C 
ATOM     15  C   UNL     1       1.438   3.751  20.280  0.00  0.00    +0.000 C 
ATOM     16  C   UNL     1       2.747   3.003  20.637  0.00  0.00    +0.000 C 
ATOM     17  C   UNL     1       3.239   3.271  19.201  0.00  0.00    +0.000 C 
BRANCH  15  18
ATOM     18  O   UNL     1       0.314   2.915  19.930  0.00  0.00    +0.000 OA
ATOM     19  H   UNL     1      -0.413   3.513  19.689  0.00  0.00    +0.000 HD
ENDBRANCH  15  18
ENDBRANCH   1  17
TORSDOF 4
ENDMDL
MODEL 5
REMARK VINA RESULT:      -7.0      3.466      5.713
REMARK  Name = 
REMARK  6 active torsions:
REMARK  status: ('A' for Active; 'I' for Inactive)
REMARK    1  A    between atoms: C_1  and  C_2
REMARK    2  A    between atoms: C_2  and  C_3
REMARK    3  A    between atoms: C_4  and  O_5
REMARK    4  A    between atoms: C_7  and  N_8
REMARK    5  A    between atoms: N_8  and  C_9
REMARK    6  A    between atoms: C_15  and  C_16
REMARK                            x       y       z     vdW  Elec       q    Type
REMARK                         _______ _______ _______ _____ _____    ______ ____
ROOT
ATOM      1  N   UNL     1       4.276   3.985  18.667  0.00  0.00    +0.000 N 
ATOM      2  H   UNL     1       4.757   3.453  19.393  0.00  0.00    +0.000 HD
ENDROOT
BRANCH   1   3
ATOM      3  C   UNL     1       5.139   4.313  17.582  0.00  0.00    +0.000 A 
ATOM      4  C   UNL     1       4.697   4.094  16.260  0.00  0.00    +0.000 A 
ATOM      5  C   UNL     1       5.513   4.357  15.162  0.00  0.00    +0.000 A 
ATOM      6  C   UNL     1       6.773   4.892  15.362  0.00  0.00    +0.000 A 
ATOM      7  F   UNL     1       7.569   5.120  14.310  0.00  0.00    +0.000 F 
ATOM      8  C   UNL     1       7.221   5.186  16.638  0.00  0.00    +0.000 A 
ATOM      9  C   UNL     1       6.412   4.909  17.756  0.00  0.00    +0.000 A 
BRANCH   9  10
ATOM     10  C   UNL     1       6.979   5.239  19.036  0.00  0.00    +0.000 C 
ATOM     11  N   UNL     1       7.463   5.457  20.063  0.00  0.00    +0.000 NA
ENDBRANCH   9  10
ENDBRANCH   1   3
BRANCH   1  17
ATOM     12  C   UNL     1       1.149   4.328  20.299  0.00  0.00    +0.000 C 
ATOM     13  C   UNL     1       2.143   3.248  19.858  0.00  0.00    +0.000 C 
ATOM     14  C   UNL     1       3.014   2.763  21.024  0.00  0.00    +0.000 C 
ATOM     15  C   UNL     1       1.523   2.033  19.075  0.00  0.00    +0.000 C 
ATOM     16  C   UNL     1       2.704   2.144  18.080  0.00  0.00    +0.000 C 
ATOM     17  C   UNL     1       2.883   3.609  18.526  0.00  0.00    +0.000 C 
BRANCH  15  18
ATOM     18  O   UNL     1       0.206   2.180  18.504  0.00  0.00    +0.000 OA
ATOM     19  H   UNL     1      -0.088   1.291  18.246  0.00  0.00    +0.000 HD
ENDBRANCH  15  18
ENDBRANCH   1  17
TORSDOF 4
ENDMDL
MODEL 6
REMARK VINA RESULT:      -6.9      3.197      5.125
REMARK  Name = 
REMARK  6 active torsions:
REMARK  status: ('A' for Active; 'I' for Inactive)
REMARK    1  A    between atoms: C_1  and  C_2
REMARK    2  A    between atoms: C_2  and  C_3
REMARK    3  A    between atoms: C_4  and  O_5
REMARK    4  A    between atoms: C_7  and  N_8
REMARK    5  A    between atoms: N_8  and  C_9
REMARK    6  A    between atoms: C_15  and  C_16
REMARK                            x       y       z     vdW  Elec       q    Type
REMARK                         _______ _______ _______ _____ _____    ______ ____
ROOT
ATOM      1  N   UNL     1       4.473   3.874  18.825  0.00  0.00    +0.000 N 
ATOM      2  H   UNL     1       3.961   3.003  18.679  0.00  0.00    +0.000 HD
ENDROOT
BRANCH   1   3
ATOM      3  C   UNL     1       5.247   4.239  17.687  0.00  0.00    +0.000 A 
ATOM      4  C   UNL     1       4.724   4.015  16.396  0.00  0.00    +0.000 A 
ATOM      5  C   UNL     1       5.453   4.313  15.247  0.00  0.00    +0.000 A 
ATOM      6  C   UNL     1       6.706   4.889  15.366  0.00  0.00    +0.000 A 
ATOM      7  F   UNL     1       7.419   5.150  14.264  0.00  0.00    +0.000 F 
ATOM      8  C   UNL     1       7.230   5.189  16.611  0.00  0.00    +0.000 A 
ATOM      9  C   UNL     1       6.509   4.877  17.778  0.00  0.00    +0.000 A 
BRANCH   9  10
ATOM     10  C   UNL     1       7.152   5.217  19.020  0.00  0.00    +0.000 C 
ATOM     11  N   UNL     1       7.620   5.483  20.042  0.00  0.00    +0.000 NA
ENDBRANCH   9  10
ENDBRANCH   1   3
BRANCH   1  17
ATOM     12  C   UNL     1       1.665   4.056  20.981  0.00  0.00    +0.000 C 
ATOM     13  C   UNL     1       2.197   4.656  19.674  0.00  0.00    +0.000 C 
ATOM     14  C   UNL     1       1.561   4.000  18.442  0.00  0.00    +0.000 C 
ATOM     15  C   UNL     1       2.134   6.224  19.572  0.00  0.00    +0.000 C 
ATOM     16  C   UNL     1       3.572   6.189  18.999  0.00  0.00    +0.000 C 
ATOM     17  C   UNL     1       3.756   4.812  19.666  0.00  0.00    +0.000 C 
BRANCH  15  18
ATOM     18  O   UNL     1       1.961   6.988  20.785  0.00  0.00    +0.000 OA
ATOM     19  H   UNL     1       1.024   6.915  21.030  0.00  0.00    +0.000 HD
ENDBRANCH  15  18
ENDBRANCH   1  17
TORSDOF 4
ENDMDL
MODEL 7
REMARK VINA RESULT:      -6.8      3.487      5.424
REMARK  Name = 
REMARK  6 active torsions:
REMARK  status: ('A' for Active; 'I' for Inactive)
REMARK    1  A    between atoms: C_1  and  C_2
REMARK    2  A    between atoms: C_2  and  C_3
REMARK    3  A    between atoms: C_4  and  O_5
REMARK    4  A    between atoms: C_7  and  N_8
REMARK    5  A    between atoms: N_8  and  C_9
REMARK    6  A    between atoms: C_15  and  C_16
REMARK                            x       y       z     vdW  Elec       q    Type
REMARK                         _______ _______ _______ _____ _____    ______ ____
ROOT
ATOM      1  N   UNL     1       4.088   5.297  18.749  0.00  0.00    +0.000 N 
ATOM      2  H   UNL     1       4.323   6.088  19.349  0.00  0.00    +0.000 HD
ENDROOT
BRANCH   1   3
ATOM      3  C   UNL     1       5.028   5.127  17.692  0.00  0.00    +0.000 A 
ATOM      4  C   UNL     1       4.560   5.008  16.366  0.00  0.00    +0.000 A 
ATOM      5  C   UNL     1       5.431   4.798  15.299  0.00  0.00    +0.000 A 
ATOM      6  C   UNL     1       6.794   4.753  15.530  0.00  0.00    +0.000 A 
ATOM      7  F   UNL     1       7.629   4.524  14.510  0.00  0.00    +0.000 F 
ATOM      8  C   UNL     1       7.301   4.933  16.805  0.00  0.00    +0.000 A 
ATOM      9  C   UNL     1       6.430   5.129  17.894  0.00  0.00    +0.000 A 
BRANCH   9  10
ATOM     10  C   UNL     1       7.060   5.290  19.177  0.00  0.00    +0.000 C 
ATOM     11  N   UNL     1       7.523   5.449  20.224  0.00  0.00    +0.000 NA
ENDBRANCH   9  10
ENDBRANCH   1   3
BRANCH   1  17
ATOM     12  C   UNL     1       2.520   2.164  18.207  0.00  0.00    +0.000 C 
ATOM     13  C   UNL     1       2.220   3.558  18.771  0.00  0.00    +0.000 C 
ATOM     14  C   UNL     1       1.456   4.430  17.766  0.00  0.00    +0.000 C 
ATOM     15  C   UNL     1       1.525   3.584  20.182  0.00  0.00    +0.000 C 
ATOM     16  C   UNL     1       2.514   4.705  20.586  0.00  0.00    +0.000 C 
ATOM     17  C   UNL     1       3.460   4.210  19.473  0.00  0.00    +0.000 C 
BRANCH  15  18
ATOM     18  O   UNL     1       1.564   2.391  20.993  0.00  0.00    +0.000 OA
ATOM     19  H   UNL     1       2.452   2.010  20.886  0.00  0.00    +0.000 HD
ENDBRANCH  15  18
ENDBRANCH   1  17
TORSDOF 4
ENDMDL
MODEL 8
REMARK VINA RESULT:      -6.8      2.318      3.276
REMARK  Name = 
REMARK  6 active torsions:
REMARK  status: ('A' for Active; 'I' for Inactive)
REMARK    1  A    between atoms: C_1  and  C_2
REMARK    2  A    between atoms: C_2  and  C_3
REMARK    3  A    between atoms: C_4  and  O_5
REMARK    4  A    between atoms: C_7  and  N_8
REMARK    5  A    between atoms: N_8  and  C_9
REMARK    6  A    between atoms: C_15  and  C_16
REMARK                            x       y       z     vdW  Elec       q    Type
REMARK                         _______ _______ _______ _____ _____    ______ ____
ROOT
ATOM      1  N   UNL     1       3.555   4.480  17.478  0.00  0.00    +0.000 N 
ATOM      2  H   UNL     1       3.007   4.346  16.628  0.00  0.00    +0.000 HD
ENDROOT
BRANCH   1   3
ATOM      3  C   UNL     1       2.861   4.038  18.640  0.00  0.00    +0.000 A 
ATOM      4  C   UNL     1       2.778   2.655  18.909  0.00  0.00    +0.000 A 
ATOM      5  C   UNL     1       2.077   2.163  20.008  0.00  0.00    +0.000 A 
ATOM      6  C   UNL     1       1.484   3.049  20.890  0.00  0.00    +0.000 A 
ATOM      7  F   UNL     1       0.787   2.577  21.931  0.00  0.00    +0.000 F 
ATOM      8  C   UNL     1       1.598   4.415  20.702  0.00  0.00    +0.000 A 
ATOM      9  C   UNL     1       2.290   4.923  19.587  0.00  0.00    +0.000 A 
BRANCH   9  10
ATOM     10  C   UNL     1       2.335   6.357  19.479  0.00  0.00    +0.000 C 
ATOM     11  N   UNL     1       2.350   7.512  19.442  0.00  0.00    +0.000 NA
ENDBRANCH   9  10
ENDBRANCH   1   3
BRANCH   1  17
ATOM     12  C   UNL     1       6.680   5.655  18.668  0.00  0.00    +0.000 C 
ATOM     13  C   UNL     1       5.835   5.623  17.389  0.00  0.00    +0.000 C 
ATOM     14  C   UNL     1       5.110   6.953  17.149  0.00  0.00    +0.000 C 
ATOM     15  C   UNL     1       6.586   5.148  16.091  0.00  0.00    +0.000 C 
ATOM     16  C   UNL     1       5.349   4.275  15.763  0.00  0.00    +0.000 C 
ATOM     17  C   UNL     1       4.979   4.317  17.259  0.00  0.00    +0.000 C 
BRANCH  15  18
ATOM     18  O   UNL     1       7.834   4.437  16.237  0.00  0.00    +0.000 OA
ATOM     19  H   UNL     1       7.624   3.490  16.177  0.00  0.00    +0.000 HD
ENDBRANCH  15  18
ENDBRANCH   1  17
TORSDOF 4
ENDMDL
MODEL 9
REMARK VINA RESULT:      -6.8      2.209      2.726
REMARK  Name = 
REMARK  6 active torsions:
REMARK  status: ('A' for Active; 'I' for Inactive)
REMARK    1  A    between atoms: C_1  and  C_2
REMARK    2  A    between atoms: C_2  and  C_3
REMARK    3  A    between atoms: C_4  and  O_5
REMARK    4  A    between atoms: C_7  and  N_8
REMARK    5  A    between atoms: N_8  and  C_9
REMARK    6  A    between atoms: C_15  and  C_16
REMARK                            x       y       z     vdW  Elec       q    Type
REMARK                         _______ _______ _______ _____ _____    ______ ____
ROOT
ATOM      1  N   UNL     1       4.432   5.781  17.432  0.00  0.00    +0.000 N 
ATOM      2  H   UNL     1       4.632   5.767  16.431  0.00  0.00    +0.000 HD
ENDROOT
BRANCH   1   3
ATOM      3  C   UNL     1       3.417   4.848  17.789  0.00  0.00    +0.000 A 
ATOM      4  C   UNL     1       3.448   3.550  17.235  0.00  0.00    +0.000 A 
ATOM      5  C   UNL     1       2.459   2.610  17.516  0.00  0.00    +0.000 A 
ATOM      6  C   UNL     1       1.443   2.933  18.398  0.00  0.00    +0.000 A 
ATOM      7  F   UNL     1       0.478   2.040  18.648  0.00  0.00    +0.000 F 
ATOM      8  C   UNL     1       1.412   4.170  19.017  0.00  0.00    +0.000 A 
ATOM      9  C   UNL     1       2.396   5.133  18.728  0.00  0.00    +0.000 A 
BRANCH   9  10
ATOM     10  C   UNL     1       2.261   6.391  19.414  0.00  0.00    +0.000 C 
ATOM     11  N   UNL     1       2.192   7.386  19.998  0.00  0.00    +0.000 NA
ENDBRANCH   9  10
ENDBRANCH   1   3
BRANCH   1  17
ATOM     12  C   UNL     1       7.495   7.559  17.300  0.00  0.00    +0.000 C 
ATOM     13  C   UNL     1       6.959   6.130  17.452  0.00  0.00    +0.000 C 
ATOM     14  C   UNL     1       7.034   5.349  16.134  0.00  0.00    +0.000 C 
ATOM     15  C   UNL     1       7.574   5.297  18.636  0.00  0.00    +0.000 C 
ATOM     16  C   UNL     1       6.138   4.826  18.975  0.00  0.00    +0.000 C 
ATOM     17  C   UNL     1       5.604   6.069  18.234  0.00  0.00    +0.000 C 
BRANCH  15  18
ATOM     18  O   UNL     1       8.267   6.001  19.688  0.00  0.00    +0.000 OA
ATOM     19  H   UNL     1       8.326   5.390  20.441  0.00  0.00    +0.000 HD
ENDBRANCH  15  18
ENDBRANCH   1  17
TORSDOF 4
ENDMDL
