MODEL 1
REMARK VINA RESULT:      -9.1      0.000      0.000
REMARK  Name = 
REMARK  10 active torsions:
REMARK  status: ('A' for Active; 'I' for Inactive)
REMARK    1  A    between atoms: C_1  and  C_2
REMARK    2  A    between atoms: C_2  and  N_3
REMARK    3  A    between atoms: C_6  and  O_7
REMARK    4  A    between atoms: C_6  and  C_8
REMARK    5  A    between atoms: C_9  and  C_10
REMARK    6  A    between atoms: C_14  and  C_15
REMARK    7  A    between atoms: C_17  and  C_18
REMARK    8  A    between atoms: C_18  and  C_20
REMARK    9  A    between atoms: C_21  and  C_22
REMARK   10  A    between atoms: C_26  and  C_27
REMARK                            x       y       z     vdW  Elec       q    Type
REMARK                         _______ _______ _______ _____ _____    ______ ____
ROOT
ATOM      1  N   UNL     1       2.405   4.709  19.443  0.00  0.00    +0.000 NA
ATOM      2  C   UNL     1       2.606   3.366  18.862  0.00  0.00    +0.000 C 
ATOM      3  C   UNL     1       3.458   3.486  17.602  0.00  0.00    +0.000 C 
ATOM      4  C   UNL     1       4.825   4.147  17.912  0.00  0.00    +0.000 C 
ATOM      5  C   UNL     1       4.570   5.548  18.571  0.00  0.00    +0.000 C 
ATOM      6  C   UNL     1       3.709   5.298  19.842  0.00  0.00    +0.000 C 
ENDROOT
BRANCH   1   8
ATOM      7  C   UNL     1       1.439   3.402  21.312  0.00  0.00    +0.000 C 
ATOM      8  C   UNL     1       1.420   4.725  20.539  0.00  0.00    +0.000 C 
ENDBRANCH   1   8
BRANCH   4   9
ATOM      9  O   UNL     1       5.542   3.344  18.826  0.00  0.00    +0.000 OA
ATOM     10  H   UNL     1       5.198   2.413  18.756  0.00  0.00    +0.000 HD
ENDBRANCH   4   9
BRANCH   4  11
ATOM     11  C   UNL     1       5.623   4.228  16.632  0.00  0.00    +0.000 C 
ATOM     12  C   UNL     1       5.115   3.983  15.408  0.00  0.00    +0.000 C 
BRANCH  12  13
ATOM     13  C   UNL     1       5.925   4.105  14.159  0.00  0.00    +0.000 A 
ATOM     14  C   UNL     1       5.580   3.338  13.034  0.00  0.00    +0.000 A 
ATOM     15  C   UNL     1       6.313   3.453  11.844  0.00  0.00    +0.000 A 
ATOM     16  C   UNL     1       7.392   4.337  11.763  0.00  0.00    +0.000 A 
ATOM     17  C   UNL     1       7.751   5.104  12.877  0.00  0.00    +0.000 A 
ATOM     18  C   UNL     1       8.894   6.076  12.841  0.00  0.00    +0.000 C 
ATOM     19  C   UNL     1       7.025   4.985  14.059  0.00  0.00    +0.000 A 
ENDBRANCH  12  13
ENDBRANCH   4  11
BRANCH   5  20
ATOM     20  C   UNL     1       3.866   6.586  17.671  0.00  0.00    +0.000 C 
ATOM     21  O   UNL     1       4.400   6.910  16.617  0.00  0.00    +0.000 OA
BRANCH  20  22
ATOM     22  C   UNL     1       2.545   7.202  17.997  0.00  0.00    +0.000 C 
ATOM     23  C   UNL     1       2.441   8.522  18.258  0.00  0.00    +0.000 C 
BRANCH  23  24
ATOM     24  C   UNL     1       1.202   9.240  18.673  0.00  0.00    +0.000 A 
ATOM     25  C   UNL     1       1.008   9.447  20.050  0.00  0.00    +0.000 A 
ATOM     26  C   UNL     1      -0.146  10.068  20.526  0.00  0.00    +0.000 A 
ATOM     27  C   UNL     1      -1.133  10.488  19.638  0.00  0.00    +0.000 A 
ATOM     28  C   UNL     1      -0.967  10.299  18.258  0.00  0.00    +0.000 A 
ATOM     29  C   UNL     1      -2.041  10.741  17.305  0.00  0.00    +0.000 C 
ATOM     30  C   UNL     1       0.203   9.681  17.773  0.00  0.00    +0.000 A 
ENDBRANCH  23  24
ENDBRANCH  20  22
ENDBRANCH   5  20
TORSDOF 7
ENDMDL
MODEL 2
REMARK VINA RESULT:      -9.1      0.339      1.299
REMARK  Name = 
REMARK  10 active torsions:
REMARK  status: ('A' for Active; 'I' for Inactive)
REMARK    1  A    between atoms: C_1  and  C_2
REMARK    2  A    between atoms: C_2  and  N_3
REMARK    3  A    between atoms: C_6  and  O_7
REMARK    4  A    between atoms: C_6  and  C_8
REMARK    5  A    between atoms: C_9  and  C_10
REMARK    6  A    between atoms: C_14  and  C_15
REMARK    7  A    between atoms: C_17  and  C_18
REMARK    8  A    between atoms: C_18  and  C_20
REMARK    9  A    between atoms: C_21  and  C_22
REMARK   10  A    between atoms: C_26  and  C_27
REMARK                            x       y       z     vdW  Elec       q    Type
REMARK                         _______ _______ _______ _____ _____    ______ ____
ROOT
ATOM      1  N   UNL     1       2.552   4.697  19.536  0.00  0.00    +0.000 NA
ATOM      2  C   UNL     1       2.799   3.356  18.967  0.00  0.00    +0.000 C 
ATOM      3  C   UNL     1       3.604   3.498  17.678  0.00  0.00    +0.000 C 
ATOM      4  C   UNL     1       4.947   4.227  17.935  0.00  0.00    +0.000 C 
ATOM      5  C   UNL     1       4.646   5.624  18.583  0.00  0.00    +0.000 C 
ATOM      6  C   UNL     1       3.838   5.353  19.885  0.00  0.00    +0.000 C 
ENDROOT
BRANCH   1   8
ATOM      7  C   UNL     1       1.170   3.251  20.995  0.00  0.00    +0.000 C 
ATOM      8  C   UNL     1       1.602   4.683  20.662  0.00  0.00    +0.000 C 
ENDBRANCH   1   8
BRANCH   4   9
ATOM      9  O   UNL     1       5.729   3.473  18.837  0.00  0.00    +0.000 OA
ATOM     10  H   UNL     1       6.249   2.806  18.312  0.00  0.00    +0.000 HD
ENDBRANCH   4   9
BRANCH   4  11
ATOM     11  C   UNL     1       5.699   4.327  16.630  0.00  0.00    +0.000 C 
ATOM     12  C   UNL     1       5.215   3.905  15.445  0.00  0.00    +0.000 C 
BRANCH  12  13
ATOM     13  C   UNL     1       5.974   4.050  14.166  0.00  0.00    +0.000 A 
ATOM     14  C   UNL     1       5.599   3.283  13.050  0.00  0.00    +0.000 A 
ATOM     15  C   UNL     1       6.283   3.418  11.833  0.00  0.00    +0.000 A 
ATOM     16  C   UNL     1       7.342   4.323  11.716  0.00  0.00    +0.000 A 
ATOM     17  C   UNL     1       7.731   5.090  12.821  0.00  0.00    +0.000 A 
ATOM     18  C   UNL     1       8.854   6.082  12.748  0.00  0.00    +0.000 C 
ATOM     19  C   UNL     1       7.054   4.949  14.029  0.00  0.00    +0.000 A 
ENDBRANCH  12  13
ENDBRANCH   4  11
BRANCH   5  20
ATOM     20  C   UNL     1       3.865   6.614  17.693  0.00  0.00    +0.000 C 
ATOM     21  O   UNL     1       4.326   6.909  16.597  0.00  0.00    +0.000 OA
BRANCH  20  22
ATOM     22  C   UNL     1       2.554   7.215  18.078  0.00  0.00    +0.000 C 
ATOM     23  C   UNL     1       2.455   8.526  18.388  0.00  0.00    +0.000 C 
BRANCH  23  24
ATOM     24  C   UNL     1       1.228   9.227  18.864  0.00  0.00    +0.000 A 
ATOM     25  C   UNL     1       0.329   9.687  17.886  0.00  0.00    +0.000 A 
ATOM     26  C   UNL     1      -0.818  10.394  18.243  0.00  0.00    +0.000 A 
ATOM     27  C   UNL     1      -1.086  10.662  19.583  0.00  0.00    +0.000 A 
ATOM     28  C   UNL     1      -0.211  10.212  20.583  0.00  0.00    +0.000 A 
ATOM     29  C   UNL     1      -0.498  10.516  22.025  0.00  0.00    +0.000 C 
ATOM     30  C   UNL     1       0.944   9.489  20.225  0.00  0.00    +0.000 A 
ENDBRANCH  23  24
ENDBRANCH  20  22
ENDBRANCH   5  20
TORSDOF 7
ENDMDL
MODEL 3
REMARK VINA RESULT:      -8.9      0.580      1.397
REMARK  Name = 
REMARK  10 active torsions:
REMARK  status: ('A' for Active; 'I' for Inactive)
REMARK    1  A    between atoms: C_1  and  C_2
REMARK    2  A    between atoms: C_2  and  N_3
REMARK    3  A    between atoms: C_6  and  O_7
REMARK    4  A    between atoms: C_6  and  C_8
REMARK    5  A    between atoms: C_9  and  C_10
REMARK    6  A    between atoms: C_14  and  C_15
REMARK    7  A    between atoms: C_17  and  C_18
REMARK    8  A    between atoms: C_18  and  C_20
REMARK    9  A    between atoms: C_21  and  C_22
REMARK   10  A    between atoms: C_26  and  C_27
REMARK                            x       y       z     vdW  Elec       q    Type
REMARK                         _______ _______ _______ _____ _____    ______ ____
ROOT
ATOM      1  N   UNL     1       2.202   4.703  19.585  0.00  0.00    +0.000 NA
ATOM      2  C   UNL     1       1.974   3.479  18.790  0.00  0.00    +0.000 C 
ATOM      3  C   UNL     1       2.578   3.663  17.401  0.00  0.00    +0.000 C 
ATOM      4  C   UNL     1       4.094   3.973  17.487  0.00  0.00    +0.000 C 
ATOM      5  C   UNL     1       4.298   5.249  18.378  0.00  0.00    +0.000 C 
ATOM      6  C   UNL     1       3.658   4.940  19.761  0.00  0.00    +0.000 C 
ENDROOT
BRANCH   1   8
ATOM      7  C   UNL     1       1.511   3.324  21.523  0.00  0.00    +0.000 C 
ATOM      8  C   UNL     1       1.471   4.707  20.865  0.00  0.00    +0.000 C 
ENDBRANCH   1   8
BRANCH   4   9
ATOM      9  O   UNL     1       4.765   2.889  18.094  0.00  0.00    +0.000 OA
ATOM     10  H   UNL     1       4.688   2.101  17.492  0.00  0.00    +0.000 HD
ENDBRANCH   4   9
BRANCH   4  11
ATOM     11  C   UNL     1       4.634   4.133  16.086  0.00  0.00    +0.000 C 
ATOM     12  C   UNL     1       5.915   3.897  15.739  0.00  0.00    +0.000 C 
BRANCH  12  13
ATOM     13  C   UNL     1       6.409   4.033  14.336  0.00  0.00    +0.000 A 
ATOM     14  C   UNL     1       7.247   5.110  13.999  0.00  0.00    +0.000 A 
ATOM     15  C   UNL     1       7.740   5.245  12.693  0.00  0.00    +0.000 A 
ATOM     16  C   UNL     1       7.408   4.306  11.713  0.00  0.00    +0.000 A 
ATOM     17  C   UNL     1       6.569   3.231  12.032  0.00  0.00    +0.000 A 
ATOM     18  C   UNL     1       6.190   2.190  11.021  0.00  0.00    +0.000 C 
ATOM     19  C   UNL     1       6.077   3.102  13.327  0.00  0.00    +0.000 A 
ENDBRANCH  12  13
ENDBRANCH   4  11
BRANCH   5  20
ATOM     20  C   UNL     1       3.697   6.554  17.814  0.00  0.00    +0.000 C 
ATOM     21  O   UNL     1       4.181   7.034  16.797  0.00  0.00    +0.000 OA
BRANCH  20  22
ATOM     22  C   UNL     1       2.529   7.256  18.424  0.00  0.00    +0.000 C 
ATOM     23  C   UNL     1       2.132   8.464  17.971  0.00  0.00    +0.000 C 
BRANCH  23  24
ATOM     24  C   UNL     1       1.039   9.302  18.543  0.00  0.00    +0.000 A 
ATOM     25  C   UNL     1       1.039   9.498  19.935  0.00  0.00    +0.000 A 
ATOM     26  C   UNL     1       0.027  10.228  20.556  0.00  0.00    +0.000 A 
ATOM     27  C   UNL     1      -1.010  10.770  19.801  0.00  0.00    +0.000 A 
ATOM     28  C   UNL     1      -1.036  10.595  18.409  0.00  0.00    +0.000 A 
ATOM     29  C   UNL     1      -2.165  11.170  17.601  0.00  0.00    +0.000 C 
ATOM     30  C   UNL     1      -0.009   9.866  17.778  0.00  0.00    +0.000 A 
ENDBRANCH  23  24
ENDBRANCH  20  22
ENDBRANCH   5  20
TORSDOF 7
ENDMDL
MODEL 4
REMARK VINA RESULT:      -8.9      0.810      1.988
REMARK  Name = 
REMARK  10 active torsions:
REMARK  status: ('A' for Active; 'I' for Inactive)
REMARK    1  A    between atoms: C_1  and  C_2
REMARK    2  A    between atoms: C_2  and  N_3
REMARK    3  A    between atoms: C_6  and  O_7
REMARK    4  A    between atoms: C_6  and  C_8
REMARK    5  A    between atoms: C_9  and  C_10
REMARK    6  A    between atoms: C_14  and  C_15
REMARK    7  A    between atoms: C_17  and  C_18
REMARK    8  A    between atoms: C_18  and  C_20
REMARK    9  A    between atoms: C_21  and  C_22
REMARK   10  A    between atoms: C_26  and  C_27
REMARK                            x       y       z     vdW  Elec       q    Type
REMARK                         _______ _______ _______ _____ _____    ______ ____
ROOT
ATOM      1  N   UNL     1       2.100   4.287  19.730  0.00  0.00    +0.000 NA
ATOM      2  C   UNL     1       1.765   3.130  18.875  0.00  0.00    +0.000 C 
ATOM      3  C   UNL     1       2.383   3.331  17.494  0.00  0.00    +0.000 C 
ATOM      4  C   UNL     1       3.920   3.501  17.590  0.00  0.00    +0.000 C 
ATOM      5  C   UNL     1       4.237   4.706  18.543  0.00  0.00    +0.000 C 
ATOM      6  C   UNL     1       3.570   4.385  19.912  0.00  0.00    +0.000 C 
ENDROOT
BRANCH   1   8
ATOM      7  C   UNL     1       1.410   2.907  21.667  0.00  0.00    +0.000 C 
ATOM      8  C   UNL     1       1.371   4.292  21.011  0.00  0.00    +0.000 C 
ENDBRANCH   1   8
BRANCH   4   9
ATOM      9  O   UNL     1       4.492   2.332  18.139  0.00  0.00    +0.000 OA
ATOM     10  H   UNL     1       4.682   1.701  17.394  0.00  0.00    +0.000 HD
ENDBRANCH   4   9
BRANCH   4  11
ATOM     11  C   UNL     1       4.473   3.683  16.197  0.00  0.00    +0.000 C 
ATOM     12  C   UNL     1       5.756   3.997  15.928  0.00  0.00    +0.000 C 
BRANCH  12  13
ATOM     13  C   UNL     1       6.278   4.138  14.536  0.00  0.00    +0.000 A 
ATOM     14  C   UNL     1       7.215   5.144  14.247  0.00  0.00    +0.000 A 
ATOM     15  C   UNL     1       7.735   5.280  12.951  0.00  0.00    +0.000 A 
ATOM     16  C   UNL     1       7.331   4.411  11.935  0.00  0.00    +0.000 A 
ATOM     17  C   UNL     1       6.393   3.407  12.205  0.00  0.00    +0.000 A 
ATOM     18  C   UNL     1       5.933   2.442  11.153  0.00  0.00    +0.000 C 
ATOM     19  C   UNL     1       5.875   3.278  13.491  0.00  0.00    +0.000 A 
ENDBRANCH  12  13
ENDBRANCH   4  11
BRANCH   5  20
ATOM     20  C   UNL     1       3.753   6.086  18.050  0.00  0.00    +0.000 C 
ATOM     21  O   UNL     1       4.347   6.620  17.120  0.00  0.00    +0.000 OA
BRANCH  20  22
ATOM     22  C   UNL     1       2.576   6.804  18.623  0.00  0.00    +0.000 C 
ATOM     23  C   UNL     1       2.398   8.125  18.410  0.00  0.00    +0.000 C 
BRANCH  23  24
ATOM     24  C   UNL     1       1.315   8.970  18.990  0.00  0.00    +0.000 A 
ATOM     25  C   UNL     1       0.585   9.781  18.103  0.00  0.00    +0.000 A 
ATOM     26  C   UNL     1      -0.412  10.637  18.568  0.00  0.00    +0.000 A 
ATOM     27  C   UNL     1      -0.695  10.706  19.930  0.00  0.00    +0.000 A 
ATOM     28  C   UNL     1       0.012   9.907  20.840  0.00  0.00    +0.000 A 
ATOM     29  C   UNL     1      -0.288   9.996  22.310  0.00  0.00    +0.000 C 
ATOM     30  C   UNL     1       1.014   9.034  20.371  0.00  0.00    +0.000 A 
ENDBRANCH  23  24
ENDBRANCH  20  22
ENDBRANCH   5  20
TORSDOF 7
ENDMDL
MODEL 5
REMARK VINA RESULT:      -8.4      1.384      2.058
REMARK  Name = 
REMARK  10 active torsions:
REMARK  status: ('A' for Active; 'I' for Inactive)
REMARK    1  A    between atoms: C_1  and  C_2
REMARK    2  A    between atoms: C_2  and  N_3
REMARK    3  A    between atoms: C_6  and  O_7
REMARK    4  A    between atoms: C_6  and  C_8
REMARK    5  A    between atoms: C_9  and  C_10
REMARK    6  A    between atoms: C_14  and  C_15
REMARK    7  A    between atoms: C_17  and  C_18
REMARK    8  A    between atoms: C_18  and  C_20
REMARK    9  A    between atoms: C_21  and  C_22
REMARK   10  A    between atoms: C_26  and  C_27
REMARK                            x       y       z     vdW  Elec       q    Type
REMARK                         _______ _______ _______ _____ _____    ______ ____
ROOT
ATOM      1  N   UNL     1       2.692   3.937  20.251  0.00  0.00    +0.000 NA
ATOM      2  C   UNL     1       3.171   2.620  19.785  0.00  0.00    +0.000 C 
ATOM      3  C   UNL     1       3.548   2.717  18.309  0.00  0.00    +0.000 C 
ATOM      4  C   UNL     1       4.636   3.797  18.080  0.00  0.00    +0.000 C 
ATOM      5  C   UNL     1       4.110   5.168  18.632  0.00  0.00    +0.000 C 
ATOM      6  C   UNL     1       3.772   4.950  20.135  0.00  0.00    +0.000 C 
ENDROOT
BRANCH   1   8
ATOM      7  C   UNL     1       1.613   2.482  21.940  0.00  0.00    +0.000 C 
ATOM      8  C   UNL     1       2.103   3.894  21.602  0.00  0.00    +0.000 C 
ENDBRANCH   1   8
BRANCH   4   9
ATOM      9  O   UNL     1       5.806   3.447  18.788  0.00  0.00    +0.000 OA
ATOM     10  H   UNL     1       5.629   3.571  19.759  0.00  0.00    +0.000 HD
ENDBRANCH   4   9
BRANCH   4  11
ATOM     11  C   UNL     1       4.973   3.838  16.608  0.00  0.00    +0.000 C 
ATOM     12  C   UNL     1       6.076   4.424  16.102  0.00  0.00    +0.000 C 
BRANCH  12  13
ATOM     13  C   UNL     1       6.395   4.417  14.643  0.00  0.00    +0.000 A 
ATOM     14  C   UNL     1       7.456   5.205  14.164  0.00  0.00    +0.000 A 
ATOM     15  C   UNL     1       7.788   5.197  12.801  0.00  0.00    +0.000 A 
ATOM     16  C   UNL     1       7.070   4.399  11.905  0.00  0.00    +0.000 A 
ATOM     17  C   UNL     1       6.007   3.613  12.367  0.00  0.00    +0.000 A 
ATOM     18  C   UNL     1       5.211   2.732  11.450  0.00  0.00    +0.000 C 
ATOM     19  C   UNL     1       5.677   3.627  13.719  0.00  0.00    +0.000 A 
ENDBRANCH  12  13
ENDBRANCH   4  11
BRANCH   5  20
ATOM     20  C   UNL     1       2.874   5.745  17.907  0.00  0.00    +0.000 C 
ATOM     21  O   UNL     1       2.088   4.969  17.377  0.00  0.00    +0.000 OA
BRANCH  20  22
ATOM     22  C   UNL     1       2.561   7.203  17.840  0.00  0.00    +0.000 C 
ATOM     23  C   UNL     1       1.993   7.840  18.886  0.00  0.00    +0.000 C 
BRANCH  23  24
ATOM     24  C   UNL     1       1.558   9.266  18.916  0.00  0.00    +0.000 A 
ATOM     25  C   UNL     1       0.298   9.543  19.473  0.00  0.00    +0.000 A 
ATOM     26  C   UNL     1      -0.205  10.843  19.497  0.00  0.00    +0.000 A 
ATOM     27  C   UNL     1       0.537  11.891  18.958  0.00  0.00    +0.000 A 
ATOM     28  C   UNL     1       1.800  11.647  18.398  0.00  0.00    +0.000 A 
ATOM     29  C   UNL     1       2.590  12.778  17.805  0.00  0.00    +0.000 C 
ATOM     30  C   UNL     1       2.314  10.335  18.382  0.00  0.00    +0.000 A 
ENDBRANCH  23  24
ENDBRANCH  20  22
ENDBRANCH   5  20
TORSDOF 7
ENDMDL
MODEL 6
REMARK VINA RESULT:      -8.4      0.565      1.870
REMARK  Name = 
REMARK  10 active torsions:
REMARK  status: ('A' for Active; 'I' for Inactive)
REMARK    1  A    between atoms: C_1  and  C_2
REMARK    2  A    between atoms: C_2  and  N_3
REMARK    3  A    between atoms: C_6  and  O_7
REMARK    4  A    between atoms: C_6  and  C_8
REMARK    5  A    between atoms: C_9  and  C_10
REMARK    6  A    between atoms: C_14  and  C_15
REMARK    7  A    between atoms: C_17  and  C_18
REMARK    8  A    between atoms: C_18  and  C_20
REMARK    9  A    between atoms: C_21  and  C_22
REMARK   10  A    between atoms: C_26  and  C_27
REMARK                            x       y       z     vdW  Elec       q    Type
REMARK                         _______ _______ _______ _____ _____    ______ ____
ROOT
ATOM      1  N   UNL     1       2.429   4.862  19.440  0.00  0.00    +0.000 NA
ATOM      2  C   UNL     1       2.595   3.499  18.895  0.00  0.00    +0.000 C 
ATOM      3  C   UNL     1       3.456   3.564  17.637  0.00  0.00    +0.000 C 
ATOM      4  C   UNL     1       4.840   4.195  17.938  0.00  0.00    +0.000 C 
ATOM      5  C   UNL     1       4.621   5.619  18.560  0.00  0.00    +0.000 C 
ATOM      6  C   UNL     1       3.746   5.425  19.833  0.00  0.00    +0.000 C 
ENDROOT
BRANCH   1   8
ATOM      7  C   UNL     1       1.240   6.380  20.995  0.00  0.00    +0.000 C 
ATOM      8  C   UNL     1       1.439   4.933  20.529  0.00  0.00    +0.000 C 
ENDBRANCH   1   8
BRANCH   4   9
ATOM      9  O   UNL     1       5.530   3.396  18.876  0.00  0.00    +0.000 OA
ATOM     10  H   UNL     1       5.901   2.607  18.397  0.00  0.00    +0.000 HD
ENDBRANCH   4   9
BRANCH   4  11
ATOM     11  C   UNL     1       5.647   4.221  16.662  0.00  0.00    +0.000 C 
ATOM     12  C   UNL     1       5.124   4.032  15.434  0.00  0.00    +0.000 C 
BRANCH  12  13
ATOM     13  C   UNL     1       5.946   4.098  14.188  0.00  0.00    +0.000 A 
ATOM     14  C   UNL     1       6.898   5.121  14.041  0.00  0.00    +0.000 A 
ATOM     15  C   UNL     1       7.696   5.189  12.889  0.00  0.00    +0.000 A 
ATOM     16  C   UNL     1       7.556   4.234  11.878  0.00  0.00    +0.000 A 
ATOM     17  C   UNL     1       6.608   3.213  12.007  0.00  0.00    +0.000 A 
ATOM     18  C   UNL     1       6.424   2.158  10.956  0.00  0.00    +0.000 C 
ATOM     19  C   UNL     1       5.814   3.151  13.149  0.00  0.00    +0.000 A 
ENDBRANCH  12  13
ENDBRANCH   4  11
BRANCH   5  20
ATOM     20  C   UNL     1       3.950   6.652  17.630  0.00  0.00    +0.000 C 
ATOM     21  O   UNL     1       4.528   6.980  16.601  0.00  0.00    +0.000 OA
BRANCH  20  22
ATOM     22  C   UNL     1       2.612   7.260  17.898  0.00  0.00    +0.000 C 
ATOM     23  C   UNL     1       2.495   8.565  18.219  0.00  0.00    +0.000 C 
BRANCH  23  24
ATOM     24  C   UNL     1       1.233   9.270  18.587  0.00  0.00    +0.000 A 
ATOM     25  C   UNL     1       0.279   9.455  17.571  0.00  0.00    +0.000 A 
ATOM     26  C   UNL     1      -0.906  10.145  17.817  0.00  0.00    +0.000 A 
ATOM     27  C   UNL     1      -1.160  10.672  19.081  0.00  0.00    +0.000 A 
ATOM     28  C   UNL     1      -0.229  10.501  20.117  0.00  0.00    +0.000 A 
ATOM     29  C   UNL     1      -0.501  11.084  21.475  0.00  0.00    +0.000 C 
ATOM     30  C   UNL     1       0.965   9.795  19.873  0.00  0.00    +0.000 A 
ENDBRANCH  23  24
ENDBRANCH  20  22
ENDBRANCH   5  20
TORSDOF 7
ENDMDL
MODEL 7
REMARK VINA RESULT:      -8.3      1.195      2.055
REMARK  Name = 
REMARK  10 active torsions:
REMARK  status: ('A' for Active; 'I' for Inactive)
REMARK    1  A    between atoms: C_1  and  C_2
REMARK    2  A    between atoms: C_2  and  N_3
REMARK    3  A    between atoms: C_6  and  O_7
REMARK    4  A    between atoms: C_6  and  C_8
REMARK    5  A    between atoms: C_9  and  C_10
REMARK    6  A    between atoms: C_14  and  C_15
REMARK    7  A    between atoms: C_17  and  C_18
REMARK    8  A    between atoms: C_18  and  C_20
REMARK    9  A    between atoms: C_21  and  C_22
REMARK   10  A    between atoms: C_26  and  C_27
REMARK                            x       y       z     vdW  Elec       q    Type
REMARK                         _______ _______ _______ _____ _____    ______ ____
ROOT
ATOM      1  N   UNL     1       2.181   5.637  19.605  0.00  0.00    +0.000 NA
ATOM      2  C   UNL     1       1.851   4.296  19.081  0.00  0.00    +0.000 C 
ATOM      3  C   UNL     1       2.443   4.143  17.683  0.00  0.00    +0.000 C 
ATOM      4  C   UNL     1       3.979   4.349  17.701  0.00  0.00    +0.000 C 
ATOM      5  C   UNL     1       4.292   5.761  18.309  0.00  0.00    +0.000 C 
ATOM      6  C   UNL     1       3.653   5.794  19.727  0.00  0.00    +0.000 C 
ENDROOT
BRANCH   1   8
ATOM      7  C   UNL     1       1.389   7.477  21.060  0.00  0.00    +0.000 C 
ATOM      8  C   UNL     1       1.474   5.960  20.856  0.00  0.00    +0.000 C 
ENDBRANCH   1   8
BRANCH   4   9
ATOM      9  O   UNL     1       4.578   3.365  18.520  0.00  0.00    +0.000 OA
ATOM     10  H   UNL     1       4.711   2.546  17.972  0.00  0.00    +0.000 HD
ENDBRANCH   4   9
BRANCH   4  11
ATOM     11  C   UNL     1       4.506   4.175  16.297  0.00  0.00    +0.000 C 
ATOM     12  C   UNL     1       5.670   4.693  15.858  0.00  0.00    +0.000 C 
BRANCH  12  13
ATOM     13  C   UNL     1       6.179   4.474  14.471  0.00  0.00    +0.000 A 
ATOM     14  C   UNL     1       7.286   5.210  14.015  0.00  0.00    +0.000 A 
ATOM     15  C   UNL     1       7.794   5.004  12.724  0.00  0.00    +0.000 A 
ATOM     16  C   UNL     1       7.206   4.059  11.878  0.00  0.00    +0.000 A 
ATOM     17  C   UNL     1       6.099   3.323  12.315  0.00  0.00    +0.000 A 
ATOM     18  C   UNL     1       5.438   2.290  11.451  0.00  0.00    +0.000 C 
ATOM     19  C   UNL     1       5.594   3.533  13.595  0.00  0.00    +0.000 A 
ENDBRANCH  12  13
ENDBRANCH   4  11
BRANCH   5  20
ATOM     20  C   UNL     1       3.779   6.964  17.488  0.00  0.00    +0.000 C 
ATOM     21  O   UNL     1       4.414   7.316  16.501  0.00  0.00    +0.000 OA
BRANCH  20  22
ATOM     22  C   UNL     1       2.528   7.712  17.811  0.00  0.00    +0.000 C 
ATOM     23  C   UNL     1       2.513   9.061  17.836  0.00  0.00    +0.000 C 
BRANCH  23  24
ATOM     24  C   UNL     1       1.356   9.920  18.221  0.00  0.00    +0.000 A 
ATOM     25  C   UNL     1       0.068   9.423  17.957  0.00  0.00    +0.000 A 
ATOM     26  C   UNL     1      -1.066  10.181  18.242  0.00  0.00    +0.000 A 
ATOM     27  C   UNL     1      -0.937  11.456  18.788  0.00  0.00    +0.000 A 
ATOM     28  C   UNL     1       0.335  11.979  19.066  0.00  0.00    +0.000 A 
ATOM     29  C   UNL     1       0.470  13.360  19.642  0.00  0.00    +0.000 C 
ATOM     30  C   UNL     1       1.482  11.210  18.788  0.00  0.00    +0.000 A 
ENDBRANCH  23  24
ENDBRANCH  20  22
ENDBRANCH   5  20
TORSDOF 7
ENDMDL
MODEL 8
REMARK VINA RESULT:      -8.2      1.393      2.183
REMARK  Name = 
REMARK  10 active torsions:
REMARK  status: ('A' for Active; 'I' for Inactive)
REMARK    1  A    between atoms: C_1  and  C_2
REMARK    2  A    between atoms: C_2  and  N_3
REMARK    3  A    between atoms: C_6  and  O_7
REMARK    4  A    between atoms: C_6  and  C_8
REMARK    5  A    between atoms: C_9  and  C_10
REMARK    6  A    between atoms: C_14  and  C_15
REMARK    7  A    between atoms: C_17  and  C_18
REMARK    8  A    between atoms: C_18  and  C_20
REMARK    9  A    between atoms: C_21  and  C_22
REMARK   10  A    between atoms: C_26  and  C_27
REMARK                            x       y       z     vdW  Elec       q    Type
REMARK                         _______ _______ _______ _____ _____    ______ ____
ROOT
ATOM      1  N   UNL     1       2.190   3.857  20.140  0.00  0.00    +0.000 NA
ATOM      2  C   UNL     1       2.499   2.549  19.528  0.00  0.00    +0.000 C 
ATOM      3  C   UNL     1       2.973   2.766  18.094  0.00  0.00    +0.000 C 
ATOM      4  C   UNL     1       4.219   3.687  18.050  0.00  0.00    +0.000 C 
ATOM      5  C   UNL     1       3.867   5.046  18.752  0.00  0.00    +0.000 C 
ATOM      6  C   UNL     1       3.412   4.700  20.200  0.00  0.00    +0.000 C 
ENDROOT
BRANCH   1   8
ATOM      7  C   UNL     1       1.652   2.319  22.005  0.00  0.00    +0.000 C 
ATOM      8  C   UNL     1       1.522   3.741  21.449  0.00  0.00    +0.000 C 
ENDBRANCH   1   8
BRANCH   4   9
ATOM      9  O   UNL     1       5.281   3.079  18.754  0.00  0.00    +0.000 OA
ATOM     10  H   UNL     1       5.528   3.672  19.515  0.00  0.00    +0.000 HD
ENDBRANCH   4   9
BRANCH   4  11
ATOM     11  C   UNL     1       4.645   3.855  16.611  0.00  0.00    +0.000 C 
ATOM     12  C   UNL     1       5.913   4.094  16.222  0.00  0.00    +0.000 C 
BRANCH  12  13
ATOM     13  C   UNL     1       6.306   4.221  14.787  0.00  0.00    +0.000 A 
ATOM     14  C   UNL     1       7.336   5.107  14.427  0.00  0.00    +0.000 A 
ATOM     15  C   UNL     1       7.737   5.226  13.089  0.00  0.00    +0.000 A 
ATOM     16  C   UNL     1       7.118   4.459  12.097  0.00  0.00    +0.000 A 
ATOM     17  C   UNL     1       6.086   3.577  12.438  0.00  0.00    +0.000 A 
ATOM     18  C   UNL     1       5.396   2.724  11.415  0.00  0.00    +0.000 C 
ATOM     19  C   UNL     1       5.688   3.464  13.767  0.00  0.00    +0.000 A 
ENDBRANCH  12  13
ENDBRANCH   4  11
BRANCH   5  20
ATOM     20  C   UNL     1       2.774   5.887  18.059  0.00  0.00    +0.000 C 
ATOM     21  O   UNL     1       1.882   5.307  17.451  0.00  0.00    +0.000 OA
BRANCH  20  22
ATOM     22  C   UNL     1       2.722   7.378  18.111  0.00  0.00    +0.000 C 
ATOM     23  C   UNL     1       1.794   8.014  18.857  0.00  0.00    +0.000 C 
BRANCH  23  24
ATOM     24  C   UNL     1       1.584   9.489  18.930  0.00  0.00    +0.000 A 
ATOM     25  C   UNL     1       2.227  10.279  17.961  0.00  0.00    +0.000 A 
ATOM     26  C   UNL     1       2.123  11.669  17.985  0.00  0.00    +0.000 A 
ATOM     27  C   UNL     1       1.381  12.298  18.982  0.00  0.00    +0.000 A 
ATOM     28  C   UNL     1       0.725  11.537  19.961  0.00  0.00    +0.000 A 
ATOM     29  C   UNL     1      -0.062  12.221  21.042  0.00  0.00    +0.000 C 
ATOM     30  C   UNL     1       0.821  10.132  19.932  0.00  0.00    +0.000 A 
ENDBRANCH  23  24
ENDBRANCH  20  22
ENDBRANCH   5  20
TORSDOF 7
ENDMDL
MODEL 9
REMARK VINA RESULT:      -8.2      3.664      6.831
REMARK  Name = 
REMARK  10 active torsions:
REMARK  status: ('A' for Active; 'I' for Inactive)
REMARK    1  A    between atoms: C_1  and  C_2
REMARK    2  A    between atoms: C_2  and  N_3
REMARK    3  A    between atoms: C_6  and  O_7
REMARK    4  A    between atoms: C_6  and  C_8
REMARK    5  A    between atoms: C_9  and  C_10
REMARK    6  A    between atoms: C_14  and  C_15
REMARK    7  A    between atoms: C_17  and  C_18
REMARK    8  A    between atoms: C_18  and  C_20
REMARK    9  A    between atoms: C_21  and  C_22
REMARK   10  A    between atoms: C_26  and  C_27
REMARK                            x       y       z     vdW  Elec       q    Type
REMARK                         _______ _______ _______ _____ _____    ______ ____
ROOT
ATOM      1  N   UNL     1      -0.532  10.993  21.771  0.00  0.00    +0.000 NA
ATOM      2  C   UNL     1      -0.592   9.797  22.635  0.00  0.00    +0.000 C 
ATOM      3  C   UNL     1      -0.243   8.563  21.808  0.00  0.00    +0.000 C 
ATOM      4  C   UNL     1       1.164   8.696  21.172  0.00  0.00    +0.000 C 
ATOM      5  C   UNL     1       1.204  10.002  20.303  0.00  0.00    +0.000 C 
ATOM      6  C   UNL     1       0.845  11.184  21.250  0.00  0.00    +0.000 C 
ENDROOT
BRANCH   1   8
ATOM      7  C   UNL     1      -2.417  11.925  23.080  0.00  0.00    +0.000 C 
ATOM      8  C   UNL     1      -1.061  12.205  22.422  0.00  0.00    +0.000 C 
ENDBRANCH   1   8
BRANCH   4   9
ATOM      9  O   UNL     1       2.135   8.805  22.191  0.00  0.00    +0.000 OA
ATOM     10  H   UNL     1       1.761   9.377  22.915  0.00  0.00    +0.000 HD
ENDBRANCH   4   9
BRANCH   4  11
ATOM     11  C   UNL     1       1.456   7.445  20.378  0.00  0.00    +0.000 C 
ATOM     12  C   UNL     1       1.417   6.199  20.891  0.00  0.00    +0.000 C 
BRANCH  12  13
ATOM     13  C   UNL     1       1.679   4.980  20.069  0.00  0.00    +0.000 A 
ATOM     14  C   UNL     1       0.979   3.794  20.348  0.00  0.00    +0.000 A 
ATOM     15  C   UNL     1       1.193   2.643  19.575  0.00  0.00    +0.000 A 
ATOM     16  C   UNL     1       2.101   2.667  18.513  0.00  0.00    +0.000 A 
ATOM     17  C   UNL     1       2.810   3.839  18.226  0.00  0.00    +0.000 A 
ATOM     18  C   UNL     1       3.789   3.920  17.092  0.00  0.00    +0.000 C 
ATOM     19  C   UNL     1       2.600   4.978  18.998  0.00  0.00    +0.000 A 
ENDBRANCH  12  13
ENDBRANCH   4  11
BRANCH   5  20
ATOM     20  C   UNL     1       0.257  10.017  19.084  0.00  0.00    +0.000 C 
ATOM     21  O   UNL     1       0.715   9.750  17.980  0.00  0.00    +0.000 OA
BRANCH  20  22
ATOM     22  C   UNL     1      -1.205  10.309  19.176  0.00  0.00    +0.000 C 
ATOM     23  C   UNL     1      -1.794  11.174  18.323  0.00  0.00    +0.000 C 
BRANCH  23  24
ATOM     24  C   UNL     1      -3.219  11.611  18.360  0.00  0.00    +0.000 A 
ATOM     25  C   UNL     1      -3.966  11.475  17.177  0.00  0.00    +0.000 A 
ATOM     26  C   UNL     1      -5.291  11.903  17.112  0.00  0.00    +0.000 A 
ATOM     27  C   UNL     1      -5.894  12.484  18.224  0.00  0.00    +0.000 A 
ATOM     28  C   UNL     1      -5.177  12.631  19.421  0.00  0.00    +0.000 A 
ATOM     29  C   UNL     1      -5.828  13.271  20.614  0.00  0.00    +0.000 C 
ATOM     30  C   UNL     1      -3.841  12.189  19.492  0.00  0.00    +0.000 A 
ENDBRANCH  23  24
ENDBRANCH  20  22
ENDBRANCH   5  20
TORSDOF 7
ENDMDL
