MODEL 1
REMARK VINA RESULT:      -6.1      0.000      0.000
REMARK  Name = 
REMARK  5 active torsions:
REMARK  status: ('A' for Active; 'I' for Inactive)
REMARK    1  A    between atoms: C_1  and  N_2
REMARK    2  A    between atoms: N_2  and  C_3
REMARK    3  A    between atoms: N_2  and  C_10
REMARK    4  A    between atoms: C_3  and  C_4
REMARK    5  A    between atoms: C_10  and  C_11
REMARK                            x       y       z     vdW  Elec       q    Type
REMARK                         _______ _______ _______ _____ _____    ______ ____
ROOT
ATOM      1  C   UNL     1       2.183   7.995  18.587  0.00  0.00    +0.000 C 
ATOM      2  N   UNL     1       3.072   6.836  18.461  0.00  0.00    +0.000 NA
ENDROOT
BRANCH   2   3
ATOM      3  C   UNL     1       2.343   5.636  17.998  0.00  0.00    +0.000 C 
BRANCH   3   4
ATOM      4  C   UNL     1       2.043   4.644  19.103  0.00  0.00    +0.000 A 
ATOM      5  C   UNL     1       1.290   3.495  18.846  0.00  0.00    +0.000 A 
ATOM      6  C   UNL     1       0.991   2.644  19.900  0.00  0.00    +0.000 A 
ATOM      7  N   UNL     1       1.392   2.854  21.171  0.00  0.00    +0.000 NA
ATOM      8  C   UNL     1       2.130   3.962  21.397  0.00  0.00    +0.000 A 
ATOM      9  C   UNL     1       2.483   4.870  20.411  0.00  0.00    +0.000 A 
ENDBRANCH   3   4
ENDBRANCH   2   3
BRANCH   2  10
ATOM     10  C   UNL     1       4.183   7.117  17.526  0.00  0.00    +0.000 C 
BRANCH  10  11
ATOM     11  C   UNL     1       4.934   5.891  16.954  0.00  0.00    +0.000 C 
ATOM     12  C   UNL     1       6.218   5.655  17.782  0.00  0.00    +0.000 C 
ATOM     13  C   UNL     1       7.178   4.693  17.150  0.00  0.00    +0.000 C 
ATOM     14  C   UNL     1       7.091   4.315  15.869  0.00  0.00    +0.000 C 
ATOM     15  C   UNL     1       6.047   4.838  14.925  0.00  0.00    +0.000 C 
ATOM     16  C   UNL     1       5.278   6.050  15.465  0.00  0.00    +0.000 C 
ENDBRANCH  10  11
ENDBRANCH   2  10
TORSDOF 4
ENDMDL
MODEL 2
REMARK VINA RESULT:      -6.1      1.558      5.516
REMARK  Name = 
REMARK  5 active torsions:
REMARK  status: ('A' for Active; 'I' for Inactive)
REMARK    1  A    between atoms: C_1  and  N_2
REMARK    2  A    between atoms: N_2  and  C_3
REMARK    3  A    between atoms: N_2  and  C_10
REMARK    4  A    between atoms: C_3  and  C_4
REMARK    5  A    between atoms: C_10  and  C_11
REMARK                            x       y       z     vdW  Elec       q    Type
REMARK                         _______ _______ _______ _____ _____    ______ ____
ROOT
ATOM      1  C   UNL     1       2.686   7.980  18.113  0.00  0.00    +0.000 C 
ATOM      2  N   UNL     1       3.105   6.620  17.757  0.00  0.00    +0.000 NA
ENDROOT
BRANCH   2   3
ATOM      3  C   UNL     1       4.285   6.190  18.537  0.00  0.00    +0.000 C 
BRANCH   3   4
ATOM      4  C   UNL     1       5.428   5.685  17.680  0.00  0.00    +0.000 A 
ATOM      5  C   UNL     1       5.361   5.756  16.285  0.00  0.00    +0.000 A 
ATOM      6  C   UNL     1       6.405   5.229  15.540  0.00  0.00    +0.000 A 
ATOM      7  N   UNL     1       7.498   4.652  16.081  0.00  0.00    +0.000 NA
ATOM      8  C   UNL     1       7.551   4.605  17.430  0.00  0.00    +0.000 A 
ATOM      9  C   UNL     1       6.561   5.106  18.260  0.00  0.00    +0.000 A 
ENDBRANCH   3   4
ENDBRANCH   2   3
BRANCH   2  10
ATOM     10  C   UNL     1       2.007   5.653  17.968  0.00  0.00    +0.000 C 
BRANCH  10  11
ATOM     11  C   UNL     1       2.248   4.553  19.029  0.00  0.00    +0.000 C 
ATOM     12  C   UNL     1       1.580   3.241  18.556  0.00  0.00    +0.000 C 
ATOM     13  C   UNL     1       1.482   2.193  19.623  0.00  0.00    +0.000 C 
ATOM     14  C   UNL     1       1.664   2.458  20.922  0.00  0.00    +0.000 C 
ATOM     15  C   UNL     1       1.950   3.834  21.449  0.00  0.00    +0.000 C 
ATOM     16  C   UNL     1       1.727   4.949  20.419  0.00  0.00    +0.000 C 
ENDBRANCH  10  11
ENDBRANCH   2  10
TORSDOF 4
ENDMDL
MODEL 3
REMARK VINA RESULT:      -6.1      2.276      5.912
REMARK  Name = 
REMARK  5 active torsions:
REMARK  status: ('A' for Active; 'I' for Inactive)
REMARK    1  A    between atoms: C_1  and  N_2
REMARK    2  A    between atoms: N_2  and  C_3
REMARK    3  A    between atoms: N_2  and  C_10
REMARK    4  A    between atoms: C_3  and  C_4
REMARK    5  A    between atoms: C_10  and  C_11
REMARK                            x       y       z     vdW  Elec       q    Type
REMARK                         _______ _______ _______ _____ _____    ______ ____
ROOT
ATOM      1  C   UNL     1       5.127   3.704  15.894  0.00  0.00    +0.000 C 
ATOM      2  N   UNL     1       4.446   3.994  17.160  0.00  0.00    +0.000 NA
ENDROOT
BRANCH   2   3
ATOM      3  C   UNL     1       4.411   5.445  17.441  0.00  0.00    +0.000 C 
BRANCH   3   4
ATOM      4  C   UNL     1       5.745   6.009  17.885  0.00  0.00    +0.000 A 
ATOM      5  C   UNL     1       6.307   7.111  17.231  0.00  0.00    +0.000 A 
ATOM      6  C   UNL     1       7.557   7.558  17.633  0.00  0.00    +0.000 A 
ATOM      7  N   UNL     1       8.269   6.997  18.632  0.00  0.00    +0.000 NA
ATOM      8  C   UNL     1       7.704   5.943  19.260  0.00  0.00    +0.000 A 
ATOM      9  C   UNL     1       6.460   5.425  18.934  0.00  0.00    +0.000 A 
ENDBRANCH   3   4
ENDBRANCH   2   3
BRANCH   2  10
ATOM     10  C   UNL     1       3.063   3.469  17.152  0.00  0.00    +0.000 C 
BRANCH  10  11
ATOM     11  C   UNL     1       2.472   3.055  18.521  0.00  0.00    +0.000 C 
ATOM     12  C   UNL     1       1.384   4.074  18.930  0.00  0.00    +0.000 C 
ATOM     13  C   UNL     1       0.951   3.957  20.359  0.00  0.00    +0.000 C 
ATOM     14  C   UNL     1       1.640   3.263  21.273  0.00  0.00    +0.000 C 
ATOM     15  C   UNL     1       2.932   2.560  20.972  0.00  0.00    +0.000 C 
ATOM     16  C   UNL     1       3.542   2.944  19.618  0.00  0.00    +0.000 C 
ENDBRANCH  10  11
ENDBRANCH   2  10
TORSDOF 4
ENDMDL
MODEL 4
REMARK VINA RESULT:      -6.1      2.401      5.998
REMARK  Name = 
REMARK  5 active torsions:
REMARK  status: ('A' for Active; 'I' for Inactive)
REMARK    1  A    between atoms: C_1  and  N_2
REMARK    2  A    between atoms: N_2  and  C_3
REMARK    3  A    between atoms: N_2  and  C_10
REMARK    4  A    between atoms: C_3  and  C_4
REMARK    5  A    between atoms: C_10  and  C_11
REMARK                            x       y       z     vdW  Elec       q    Type
REMARK                         _______ _______ _______ _____ _____    ______ ____
ROOT
ATOM      1  C   UNL     1       5.322   3.676  15.861  0.00  0.00    +0.000 C 
ATOM      2  N   UNL     1       4.869   3.842  17.246  0.00  0.00    +0.000 NA
ENDROOT
BRANCH   2   3
ATOM      3  C   UNL     1       4.667   5.266  17.587  0.00  0.00    +0.000 C 
BRANCH   3   4
ATOM      4  C   UNL     1       5.946   5.989  17.959  0.00  0.00    +0.000 A 
ATOM      5  C   UNL     1       6.363   7.116  17.244  0.00  0.00    +0.000 A 
ATOM      6  C   UNL     1       7.570   7.711  17.582  0.00  0.00    +0.000 A 
ATOM      7  N   UNL     1       8.372   7.271  18.574  0.00  0.00    +0.000 NA
ATOM      8  C   UNL     1       7.945   6.190  19.261  0.00  0.00    +0.000 A 
ATOM      9  C   UNL     1       6.755   5.528  19.002  0.00  0.00    +0.000 A 
ENDBRANCH   3   4
ENDBRANCH   2   3
BRANCH   2  10
ATOM     10  C   UNL     1       3.611   3.104  17.486  0.00  0.00    +0.000 C 
BRANCH  10  11
ATOM     11  C   UNL     1       2.860   3.424  18.801  0.00  0.00    +0.000 C 
ATOM     12  C   UNL     1       3.524   2.648  19.962  0.00  0.00    +0.000 C 
ATOM     13  C   UNL     1       2.715   2.635  21.223  0.00  0.00    +0.000 C 
ATOM     14  C   UNL     1       1.423   2.983  21.262  0.00  0.00    +0.000 C 
ATOM     15  C   UNL     1       0.643   3.390  20.045  0.00  0.00    +0.000 C 
ATOM     16  C   UNL     1       1.362   3.093  18.723  0.00  0.00    +0.000 C 
ENDBRANCH  10  11
ENDBRANCH   2  10
TORSDOF 4
ENDMDL
MODEL 5
REMARK VINA RESULT:      -6.0      1.096      1.746
REMARK  Name = 
REMARK  5 active torsions:
REMARK  status: ('A' for Active; 'I' for Inactive)
REMARK    1  A    between atoms: C_1  and  N_2
REMARK    2  A    between atoms: N_2  and  C_3
REMARK    3  A    between atoms: N_2  and  C_10
REMARK    4  A    between atoms: C_3  and  C_4
REMARK    5  A    between atoms: C_10  and  C_11
REMARK                            x       y       z     vdW  Elec       q    Type
REMARK                         _______ _______ _______ _____ _____    ______ ____
ROOT
ATOM      1  C   UNL     1       2.395   7.531  19.358  0.00  0.00    +0.000 C 
ATOM      2  N   UNL     1       3.129   6.396  18.788  0.00  0.00    +0.000 NA
ENDROOT
BRANCH   2   3
ATOM      3  C   UNL     1       2.242   5.239  18.545  0.00  0.00    +0.000 C 
BRANCH   3   4
ATOM      4  C   UNL     1       2.290   4.196  19.643  0.00  0.00    +0.000 A 
ATOM      5  C   UNL     1       1.193   3.996  20.486  0.00  0.00    +0.000 A 
ATOM      6  C   UNL     1       1.302   3.071  21.514  0.00  0.00    +0.000 A 
ATOM      7  N   UNL     1       2.410   2.338  21.750  0.00  0.00    +0.000 NA
ATOM      8  C   UNL     1       3.454   2.536  20.916  0.00  0.00    +0.000 A 
ATOM      9  C   UNL     1       3.441   3.433  19.860  0.00  0.00    +0.000 A 
ENDBRANCH   3   4
ENDBRANCH   2   3
BRANCH   2  10
ATOM     10  C   UNL     1       3.791   6.773  17.521  0.00  0.00    +0.000 C 
BRANCH  10  11
ATOM     11  C   UNL     1       5.258   6.317  17.343  0.00  0.00    +0.000 C 
ATOM     12  C   UNL     1       5.327   5.273  16.204  0.00  0.00    +0.000 C 
ATOM     13  C   UNL     1       6.631   4.537  16.135  0.00  0.00    +0.000 C 
ATOM     14  C   UNL     1       7.526   4.548  17.131  0.00  0.00    +0.000 C 
ATOM     15  C   UNL     1       7.304   5.269  18.429  0.00  0.00    +0.000 C 
ATOM     16  C   UNL     1       5.860   5.742  18.634  0.00  0.00    +0.000 C 
ENDBRANCH  10  11
ENDBRANCH   2  10
TORSDOF 4
ENDMDL
MODEL 6
REMARK VINA RESULT:      -6.0      1.611      5.300
REMARK  Name = 
REMARK  5 active torsions:
REMARK  status: ('A' for Active; 'I' for Inactive)
REMARK    1  A    between atoms: C_1  and  N_2
REMARK    2  A    between atoms: N_2  and  C_3
REMARK    3  A    between atoms: N_2  and  C_10
REMARK    4  A    between atoms: C_3  and  C_4
REMARK    5  A    between atoms: C_10  and  C_11
REMARK                            x       y       z     vdW  Elec       q    Type
REMARK                         _______ _______ _______ _____ _____    ______ ____
ROOT
ATOM      1  C   UNL     1       2.000   8.119  17.860  0.00  0.00    +0.000 C 
ATOM      2  N   UNL     1       2.948   7.002  17.924  0.00  0.00    +0.000 NA
ENDROOT
BRANCH   2   3
ATOM      3  C   UNL     1       4.316   7.425  17.552  0.00  0.00    +0.000 C 
BRANCH   3   4
ATOM      4  C   UNL     1       5.247   6.269  17.248  0.00  0.00    +0.000 A 
ATOM      5  C   UNL     1       6.509   6.194  17.845  0.00  0.00    +0.000 A 
ATOM      6  C   UNL     1       7.351   5.149  17.494  0.00  0.00    +0.000 A 
ATOM      7  N   UNL     1       7.023   4.186  16.608  0.00  0.00    +0.000 NA
ATOM      8  C   UNL     1       5.795   4.269  16.052  0.00  0.00    +0.000 A 
ATOM      9  C   UNL     1       4.882   5.271  16.341  0.00  0.00    +0.000 A 
ENDBRANCH   3   4
ENDBRANCH   2   3
BRANCH   2  10
ATOM     10  C   UNL     1       2.977   6.405  19.276  0.00  0.00    +0.000 C 
BRANCH  10  11
ATOM     11  C   UNL     1       1.997   5.237  19.538  0.00  0.00    +0.000 C 
ATOM     12  C   UNL     1       2.333   4.593  20.903  0.00  0.00    +0.000 C 
ATOM     13  C   UNL     1       1.658   3.275  21.134  0.00  0.00    +0.000 C 
ATOM     14  C   UNL     1       1.077   2.574  20.153  0.00  0.00    +0.000 C 
ATOM     15  C   UNL     1       1.070   3.017  18.718  0.00  0.00    +0.000 C 
ATOM     16  C   UNL     1       2.026   4.179  18.425  0.00  0.00    +0.000 C 
ENDBRANCH  10  11
ENDBRANCH   2  10
TORSDOF 4
ENDMDL
MODEL 7
REMARK VINA RESULT:      -6.0      2.262      3.559
REMARK  Name = 
REMARK  5 active torsions:
REMARK  status: ('A' for Active; 'I' for Inactive)
REMARK    1  A    between atoms: C_1  and  N_2
REMARK    2  A    between atoms: N_2  and  C_3
REMARK    3  A    between atoms: N_2  and  C_10
REMARK    4  A    between atoms: C_3  and  C_4
REMARK    5  A    between atoms: C_10  and  C_11
REMARK                            x       y       z     vdW  Elec       q    Type
REMARK                         _______ _______ _______ _____ _____    ______ ____
ROOT
ATOM      1  C   UNL     1       7.391   4.567  17.525  0.00  0.00    +0.000 C 
ATOM      2  N   UNL     1       6.002   4.416  17.076  0.00  0.00    +0.000 NA
ENDROOT
BRANCH   2   3
ATOM      3  C   UNL     1       5.048   4.976  18.058  0.00  0.00    +0.000 C 
BRANCH   3   4
ATOM      4  C   UNL     1       3.729   4.234  18.112  0.00  0.00    +0.000 A 
ATOM      5  C   UNL     1       3.692   2.861  18.375  0.00  0.00    +0.000 A 
ATOM      6  C   UNL     1       2.466   2.211  18.358  0.00  0.00    +0.000 A 
ATOM      7  N   UNL     1       1.293   2.829  18.108  0.00  0.00    +0.000 NA
ATOM      8  C   UNL     1       1.348   4.157  17.870  0.00  0.00    +0.000 A 
ATOM      9  C   UNL     1       2.521   4.894  17.868  0.00  0.00    +0.000 A 
ENDBRANCH   3   4
ENDBRANCH   2   3
BRANCH   2  10
ATOM     10  C   UNL     1       5.792   5.074  15.769  0.00  0.00    +0.000 C 
BRANCH  10  11
ATOM     11  C   UNL     1       6.360   4.344  14.528  0.00  0.00    +0.000 C 
ATOM     12  C   UNL     1       7.379   5.267  13.822  0.00  0.00    +0.000 C 
ATOM     13  C   UNL     1       7.772   4.800  12.453  0.00  0.00    +0.000 C 
ATOM     14  C   UNL     1       7.090   3.866  11.780  0.00  0.00    +0.000 C 
ATOM     15  C   UNL     1       5.846   3.212  12.310  0.00  0.00    +0.000 C 
ATOM     16  C   UNL     1       5.262   3.907  13.545  0.00  0.00    +0.000 C 
ENDBRANCH  10  11
ENDBRANCH   2  10
TORSDOF 4
ENDMDL
MODEL 8
REMARK VINA RESULT:      -6.0      2.145      5.734
REMARK  Name = 
REMARK  5 active torsions:
REMARK  status: ('A' for Active; 'I' for Inactive)
REMARK    1  A    between atoms: C_1  and  N_2
REMARK    2  A    between atoms: N_2  and  C_3
REMARK    3  A    between atoms: N_2  and  C_10
REMARK    4  A    between atoms: C_3  and  C_4
REMARK    5  A    between atoms: C_10  and  C_11
REMARK                            x       y       z     vdW  Elec       q    Type
REMARK                         _______ _______ _______ _____ _____    ______ ____
ROOT
ATOM      1  C   UNL     1       3.596   1.756  18.438  0.00  0.00    +0.000 C 
ATOM      2  N   UNL     1       3.650   3.207  18.232  0.00  0.00    +0.000 NA
ENDROOT
BRANCH   2   3
ATOM      3  C   UNL     1       3.784   3.551  16.800  0.00  0.00    +0.000 C 
BRANCH   3   4
ATOM      4  C   UNL     1       5.071   4.278  16.468  0.00  0.00    +0.000 A 
ATOM      5  C   UNL     1       5.565   4.294  15.160  0.00  0.00    +0.000 A 
ATOM      6  C   UNL     1       6.776   4.922  14.912  0.00  0.00    +0.000 A 
ATOM      7  N   UNL     1       7.513   5.533  15.863  0.00  0.00    +0.000 NA
ATOM      8  C   UNL     1       7.013   5.518  17.117  0.00  0.00    +0.000 A 
ATOM      9  C   UNL     1       5.812   4.920  17.464  0.00  0.00    +0.000 A 
ENDBRANCH   3   4
ENDBRANCH   2   3
BRANCH   2  10
ATOM     10  C   UNL     1       2.445   3.867  18.777  0.00  0.00    +0.000 C 
BRANCH  10  11
ATOM     11  C   UNL     1       2.604   5.340  19.224  0.00  0.00    +0.000 C 
ATOM     12  C   UNL     1       1.752   5.577  20.492  0.00  0.00    +0.000 C 
ATOM     13  C   UNL     1       1.583   7.024  20.847  0.00  0.00    +0.000 C 
ATOM     14  C   UNL     1       1.867   8.018  19.998  0.00  0.00    +0.000 C 
ATOM     15  C   UNL     1       2.351   7.791  18.595  0.00  0.00    +0.000 C 
ATOM     16  C   UNL     1       2.214   6.338  18.122  0.00  0.00    +0.000 C 
ENDBRANCH  10  11
ENDBRANCH   2  10
TORSDOF 4
ENDMDL
MODEL 9
REMARK VINA RESULT:      -5.9      1.715      5.408
REMARK  Name = 
REMARK  5 active torsions:
REMARK  status: ('A' for Active; 'I' for Inactive)
REMARK    1  A    between atoms: C_1  and  N_2
REMARK    2  A    between atoms: N_2  and  C_3
REMARK    3  A    between atoms: N_2  and  C_10
REMARK    4  A    between atoms: C_3  and  C_4
REMARK    5  A    between atoms: C_10  and  C_11
REMARK                            x       y       z     vdW  Elec       q    Type
REMARK                         _______ _______ _______ _____ _____    ______ ____
ROOT
ATOM      1  C   UNL     1       2.731   8.378  17.793  0.00  0.00    +0.000 C 
ATOM      2  N   UNL     1       2.982   6.953  18.037  0.00  0.00    +0.000 NA
ENDROOT
BRANCH   2   3
ATOM      3  C   UNL     1       4.429   6.655  18.089  0.00  0.00    +0.000 C 
BRANCH   3   4
ATOM      4  C   UNL     1       4.898   5.724  16.989  0.00  0.00    +0.000 A 
ATOM      5  C   UNL     1       5.016   4.350  17.219  0.00  0.00    +0.000 A 
ATOM      6  C   UNL     1       5.504   3.543  16.201  0.00  0.00    +0.000 A 
ATOM      7  N   UNL     1       5.868   4.005  14.987  0.00  0.00    +0.000 NA
ATOM      8  C   UNL     1       5.733   5.333  14.780  0.00  0.00    +0.000 A 
ATOM      9  C   UNL     1       5.254   6.219  15.731  0.00  0.00    +0.000 A 
ENDBRANCH   3   4
ENDBRANCH   2   3
BRANCH   2  10
ATOM     10  C   UNL     1       2.351   6.510  19.299  0.00  0.00    +0.000 C 
BRANCH  10  11
ATOM     11  C   UNL     1       2.394   4.993  19.599  0.00  0.00    +0.000 C 
ATOM     12  C   UNL     1       1.530   4.248  18.556  0.00  0.00    +0.000 C 
ATOM     13  C   UNL     1       1.248   2.820  18.912  0.00  0.00    +0.000 C 
ATOM     14  C   UNL     1       1.449   2.323  20.138  0.00  0.00    +0.000 C 
ATOM     15  C   UNL     1       1.945   3.148  21.290  0.00  0.00    +0.000 C 
ATOM     16  C   UNL     1       1.923   4.658  21.022  0.00  0.00    +0.000 C 
ENDBRANCH  10  11
ENDBRANCH   2  10
TORSDOF 4
ENDMDL
