MODEL 1
REMARK VINA RESULT:      -7.8      0.000      0.000
REMARK  Name = 
REMARK  5 active torsions:
REMARK  status: ('A' for Active; 'I' for Inactive)
REMARK    1  A    between atoms: C_1  and  N_2
REMARK    2  A    between atoms: C_4  and  C_5
REMARK    3  A    between atoms: C_8  and  C_9
REMARK    4  A    between atoms: N_11  and  O_12
REMARK    5  A    between atoms: C_15  and  C_16
REMARK                            x       y       z     vdW  Elec       q    Type
REMARK                         _______ _______ _______ _____ _____    ______ ____
ROOT
ATOM      1  C   UNL     1       4.357   3.887  17.149  0.00  0.00    +0.000 A 
ATOM      2  C   UNL     1       3.672   4.919  17.803  0.00  0.00    +0.000 A 
ATOM      3  C   UNL     1       2.751   4.631  18.818  0.00  0.00    +0.000 A 
ATOM      4  C   UNL     1       2.475   3.306  19.183  0.00  0.00    +0.000 A 
ATOM      5  C   UNL     1       3.141   2.276  18.514  0.00  0.00    +0.000 A 
ATOM      6  C   UNL     1       4.100   2.566  17.537  0.00  0.00    +0.000 A 
ENDROOT
BRANCH   1  10
ATOM      7  C   UNL     1       6.491   3.851  12.689  0.00  0.00    +0.000 C 
ATOM      8  N   UNL     1       6.188   4.147  14.068  0.00  0.00    +0.000 N 
ATOM      9  C   UNL     1       5.167   3.629  14.805  0.00  0.00    +0.000 A 
ATOM     10  C   UNL     1       5.287   4.175  16.066  0.00  0.00    +0.000 A 
ATOM     11  C   UNL     1       6.444   5.025  15.989  0.00  0.00    +0.000 A 
ATOM     12  N   UNL     1       6.961   5.010  14.747  0.00  0.00    +0.000 NA
BRANCH  11  13
ATOM     13  C   UNL     1       7.051   5.844  17.042  0.00  0.00    +0.000 A 
ATOM     14  C   UNL     1       7.219   7.219  16.880  0.00  0.00    +0.000 A 
ATOM     15  C   UNL     1       7.903   7.926  17.853  0.00  0.00    +0.000 A 
ATOM     16  N   UNL     1       8.384   7.369  18.984  0.00  0.00    +0.000 NA
ATOM     17  C   UNL     1       8.162   6.048  19.149  0.00  0.00    +0.000 A 
ATOM     18  C   UNL     1       7.509   5.252  18.223  0.00  0.00    +0.000 A 
ENDBRANCH  11  13
ENDBRANCH   1  10
BRANCH   4  19
ATOM     19  C   UNL     1       1.434   3.043  20.234  0.00  0.00    +0.000 C 
ATOM     20  N   UNL     1       0.113   3.214  19.889  0.00  0.00    +0.000 N 
ATOM     21  N   UNL     1       1.632   2.656  21.470  0.00  0.00    +0.000 NA
ATOM     22  H   UNL     1      -0.138   2.952  18.943  0.00  0.00    +0.000 HD
ATOM     23  H   UNL     1      -0.506   2.811  20.586  0.00  0.00    +0.000 HD
BRANCH  21  24
ATOM     24  O   UNL     1       2.974   2.573  21.838  0.00  0.00    +0.000 OA
ATOM     25  H   UNL     1       3.415   2.426  20.982  0.00  0.00    +0.000 HD
ENDBRANCH  21  24
ENDBRANCH   4  19
TORSDOF 4
ENDMDL
MODEL 2
REMARK VINA RESULT:      -7.7      0.198      1.044
REMARK  Name = 
REMARK  5 active torsions:
REMARK  status: ('A' for Active; 'I' for Inactive)
REMARK    1  A    between atoms: C_1  and  N_2
REMARK    2  A    between atoms: C_4  and  C_5
REMARK    3  A    between atoms: C_8  and  C_9
REMARK    4  A    between atoms: N_11  and  O_12
REMARK    5  A    between atoms: C_15  and  C_16
REMARK                            x       y       z     vdW  Elec       q    Type
REMARK                         _______ _______ _______ _____ _____    ______ ____
ROOT
ATOM      1  C   UNL     1       4.377   3.985  16.983  0.00  0.00    +0.000 A 
ATOM      2  C   UNL     1       4.061   2.667  17.335  0.00  0.00    +0.000 A 
ATOM      3  C   UNL     1       3.139   2.404  18.355  0.00  0.00    +0.000 A 
ATOM      4  C   UNL     1       2.531   3.452  19.061  0.00  0.00    +0.000 A 
ATOM      5  C   UNL     1       2.864   4.766  18.726  0.00  0.00    +0.000 A 
ATOM      6  C   UNL     1       3.746   5.028  17.670  0.00  0.00    +0.000 A 
ENDROOT
BRANCH   1  10
ATOM      7  C   UNL     1       6.717   3.974  12.627  0.00  0.00    +0.000 C 
ATOM      8  N   UNL     1       6.358   4.252  13.996  0.00  0.00    +0.000 N 
ATOM      9  C   UNL     1       5.289   3.749  14.674  0.00  0.00    +0.000 A 
ATOM     10  C   UNL     1       5.365   4.267  15.950  0.00  0.00    +0.000 A 
ATOM     11  C   UNL     1       6.548   5.085  15.945  0.00  0.00    +0.000 A 
ATOM     12  N   UNL     1       7.122   5.079  14.728  0.00  0.00    +0.000 NA
BRANCH  11  13
ATOM     13  C   UNL     1       7.127   5.865  17.042  0.00  0.00    +0.000 A 
ATOM     14  C   UNL     1       7.332   7.239  16.920  0.00  0.00    +0.000 A 
ATOM     15  C   UNL     1       7.989   7.908  17.938  0.00  0.00    +0.000 A 
ATOM     16  N   UNL     1       8.410   7.315  19.073  0.00  0.00    +0.000 NA
ATOM     17  C   UNL     1       8.152   5.996  19.198  0.00  0.00    +0.000 A 
ATOM     18  C   UNL     1       7.522   5.236  18.226  0.00  0.00    +0.000 A 
ENDBRANCH  11  13
ENDBRANCH   1  10
BRANCH   4  19
ATOM     19  C   UNL     1       1.594   3.121  20.190  0.00  0.00    +0.000 C 
ATOM     20  N   UNL     1       0.250   3.342  19.996  0.00  0.00    +0.000 N 
ATOM     21  N   UNL     1       1.907   2.631  21.364  0.00  0.00    +0.000 NA
ATOM     22  H   UNL     1      -0.101   3.163  19.063  0.00  0.00    +0.000 HD
ATOM     23  H   UNL     1      -0.306   2.894  20.718  0.00  0.00    +0.000 HD
BRANCH  21  24
ATOM     24  O   UNL     1       3.275   2.495  21.584  0.00  0.00    +0.000 OA
ATOM     25  H   UNL     1       3.544   1.898  20.862  0.00  0.00    +0.000 HD
ENDBRANCH  21  24
ENDBRANCH   4  19
TORSDOF 4
ENDMDL
MODEL 3
REMARK VINA RESULT:      -7.7      0.177      1.017
REMARK  Name = 
REMARK  5 active torsions:
REMARK  status: ('A' for Active; 'I' for Inactive)
REMARK    1  A    between atoms: C_1  and  N_2
REMARK    2  A    between atoms: C_4  and  C_5
REMARK    3  A    between atoms: C_8  and  C_9
REMARK    4  A    between atoms: N_11  and  O_12
REMARK    5  A    between atoms: C_15  and  C_16
REMARK                            x       y       z     vdW  Elec       q    Type
REMARK                         _______ _______ _______ _____ _____    ______ ____
ROOT
ATOM      1  C   UNL     1       4.355   3.794  17.129  0.00  0.00    +0.000 A 
ATOM      2  C   UNL     1       3.686   4.849  17.763  0.00  0.00    +0.000 A 
ATOM      3  C   UNL     1       2.770   4.594  18.791  0.00  0.00    +0.000 A 
ATOM      4  C   UNL     1       2.484   3.281  19.190  0.00  0.00    +0.000 A 
ATOM      5  C   UNL     1       3.134   2.229  18.541  0.00  0.00    +0.000 A 
ATOM      6  C   UNL     1       4.089   2.486  17.550  0.00  0.00    +0.000 A 
ENDROOT
BRANCH   1  10
ATOM      7  C   UNL     1       6.398   3.712  12.626  0.00  0.00    +0.000 C 
ATOM      8  N   UNL     1       6.139   4.001  14.016  0.00  0.00    +0.000 N 
ATOM      9  C   UNL     1       5.104   3.530  14.765  0.00  0.00    +0.000 A 
ATOM     10  C   UNL     1       5.279   4.047  16.031  0.00  0.00    +0.000 A 
ATOM     11  C   UNL     1       6.481   4.831  15.945  0.00  0.00    +0.000 A 
ATOM     12  N   UNL     1       6.973   4.808  14.692  0.00  0.00    +0.000 NA
BRANCH  11  13
ATOM     13  C   UNL     1       7.154   5.596  16.998  0.00  0.00    +0.000 A 
ATOM     14  C   UNL     1       7.600   4.978  18.166  0.00  0.00    +0.000 A 
ATOM     15  C   UNL     1       8.122   5.764  19.178  0.00  0.00    +0.000 A 
ATOM     16  N   UNL     1       8.271   7.101  19.087  0.00  0.00    +0.000 NA
ATOM     17  C   UNL     1       7.886   7.674  17.927  0.00  0.00    +0.000 A 
ATOM     18  C   UNL     1       7.332   6.976  16.867  0.00  0.00    +0.000 A 
ENDBRANCH  11  13
ENDBRANCH   1  10
BRANCH   4  19
ATOM     19  C   UNL     1       1.449   3.054  20.256  0.00  0.00    +0.000 C 
ATOM     20  N   UNL     1       0.128   3.252  19.923  0.00  0.00    +0.000 N 
ATOM     21  N   UNL     1       1.652   2.676  21.494  0.00  0.00    +0.000 NA
ATOM     22  H   UNL     1      -0.139   2.986  18.983  0.00  0.00    +0.000 HD
ATOM     23  H   UNL     1      -0.492   2.871  20.631  0.00  0.00    +0.000 HD
BRANCH  21  24
ATOM     24  O   UNL     1       2.995   2.566  21.848  0.00  0.00    +0.000 OA
ATOM     25  H   UNL     1       3.286   1.798  21.322  0.00  0.00    +0.000 HD
ENDBRANCH  21  24
ENDBRANCH   4  19
TORSDOF 4
ENDMDL
MODEL 4
REMARK VINA RESULT:      -7.7      0.260      1.455
REMARK  Name = 
REMARK  5 active torsions:
REMARK  status: ('A' for Active; 'I' for Inactive)
REMARK    1  A    between atoms: C_1  and  N_2
REMARK    2  A    between atoms: C_4  and  C_5
REMARK    3  A    between atoms: C_8  and  C_9
REMARK    4  A    between atoms: N_11  and  O_12
REMARK    5  A    between atoms: C_15  and  C_16
REMARK                            x       y       z     vdW  Elec       q    Type
REMARK                         _______ _______ _______ _____ _____    ______ ____
ROOT
ATOM      1  C   UNL     1       4.335   3.897  16.912  0.00  0.00    +0.000 A 
ATOM      2  C   UNL     1       4.015   2.585  17.281  0.00  0.00    +0.000 A 
ATOM      3  C   UNL     1       3.112   2.338  18.323  0.00  0.00    +0.000 A 
ATOM      4  C   UNL     1       2.530   3.397  19.034  0.00  0.00    +0.000 A 
ATOM      5  C   UNL     1       2.868   4.705  18.681  0.00  0.00    +0.000 A 
ATOM      6  C   UNL     1       3.729   4.952  17.605  0.00  0.00    +0.000 A 
ENDROOT
BRANCH   1  10
ATOM      7  C   UNL     1       6.538   3.900  12.485  0.00  0.00    +0.000 C 
ATOM      8  N   UNL     1       6.234   4.156  13.872  0.00  0.00    +0.000 N 
ATOM      9  C   UNL     1       5.164   3.685  14.570  0.00  0.00    +0.000 A 
ATOM     10  C   UNL     1       5.303   4.162  15.856  0.00  0.00    +0.000 A 
ATOM     11  C   UNL     1       6.522   4.924  15.835  0.00  0.00    +0.000 A 
ATOM     12  N   UNL     1       7.058   4.926  14.601  0.00  0.00    +0.000 NA
BRANCH  11  13
ATOM     13  C   UNL     1       7.171   5.645  16.933  0.00  0.00    +0.000 A 
ATOM     14  C   UNL     1       7.579   4.982  18.091  0.00  0.00    +0.000 A 
ATOM     15  C   UNL     1       8.079   5.727  19.144  0.00  0.00    +0.000 A 
ATOM     16  N   UNL     1       8.240   7.065  19.105  0.00  0.00    +0.000 NA
ATOM     17  C   UNL     1       7.893   7.682  17.956  0.00  0.00    +0.000 A 
ATOM     18  C   UNL     1       7.363   7.028  16.856  0.00  0.00    +0.000 A 
ENDBRANCH  11  13
ENDBRANCH   1  10
BRANCH   4  19
ATOM     19  C   UNL     1       1.614   3.083  20.184  0.00  0.00    +0.000 C 
ATOM     20  N   UNL     1       0.266   3.295  20.010  0.00  0.00    +0.000 N 
ATOM     21  N   UNL     1       1.949   2.617  21.362  0.00  0.00    +0.000 NA
ATOM     22  H   UNL     1      -0.101   3.097  19.087  0.00  0.00    +0.000 HD
ATOM     23  H   UNL     1      -0.275   2.858  20.750  0.00  0.00    +0.000 HD
BRANCH  21  24
ATOM     24  O   UNL     1       3.322   2.491  21.561  0.00  0.00    +0.000 OA
ATOM     25  H   UNL     1       3.680   3.207  21.003  0.00  0.00    +0.000 HD
ENDBRANCH  21  24
ENDBRANCH   4  19
TORSDOF 4
ENDMDL
MODEL 5
REMARK VINA RESULT:      -7.5      4.352      6.300
REMARK  Name = 
REMARK  5 active torsions:
REMARK  status: ('A' for Active; 'I' for Inactive)
REMARK    1  A    between atoms: C_1  and  N_2
REMARK    2  A    between atoms: C_4  and  C_5
REMARK    3  A    between atoms: C_8  and  C_9
REMARK    4  A    between atoms: N_11  and  O_12
REMARK    5  A    between atoms: C_15  and  C_16
REMARK                            x       y       z     vdW  Elec       q    Type
REMARK                         _______ _______ _______ _____ _____    ______ ____
ROOT
ATOM      1  C   UNL     1       2.600   7.640  18.483  0.00  0.00    +0.000 A 
ATOM      2  C   UNL     1       2.213   8.698  17.650  0.00  0.00    +0.000 A 
ATOM      3  C   UNL     1       1.366   9.706  18.125  0.00  0.00    +0.000 A 
ATOM      4  C   UNL     1       0.866   9.666  19.435  0.00  0.00    +0.000 A 
ATOM      5  C   UNL     1       1.232   8.599  20.258  0.00  0.00    +0.000 A 
ATOM      6  C   UNL     1       2.122   7.620  19.799  0.00  0.00    +0.000 A 
ENDROOT
BRANCH   1  10
ATOM      7  C   UNL     1       6.135   5.260  15.975  0.00  0.00    +0.000 C 
ATOM      8  N   UNL     1       5.042   5.555  16.870  0.00  0.00    +0.000 N 
ATOM      9  C   UNL     1       4.460   6.770  17.070  0.00  0.00    +0.000 A 
ATOM     10  C   UNL     1       3.449   6.567  17.985  0.00  0.00    +0.000 A 
ATOM     11  C   UNL     1       3.497   5.160  18.280  0.00  0.00    +0.000 A 
ATOM     12  N   UNL     1       4.500   4.570  17.604  0.00  0.00    +0.000 NA
BRANCH  11  13
ATOM     13  C   UNL     1       2.640   4.382  19.178  0.00  0.00    +0.000 A 
ATOM     14  C   UNL     1       2.973   4.209  20.522  0.00  0.00    +0.000 A 
ATOM     15  C   UNL     1       2.193   3.369  21.297  0.00  0.00    +0.000 A 
ATOM     16  N   UNL     1       1.094   2.735  20.842  0.00  0.00    +0.000 NA
ATOM     17  C   UNL     1       0.756   2.959  19.554  0.00  0.00    +0.000 A 
ATOM     18  C   UNL     1       1.484   3.764  18.694  0.00  0.00    +0.000 A 
ENDBRANCH  11  13
ENDBRANCH   1  10
BRANCH   4  19
ATOM     19  C   UNL     1      -0.090  10.737  19.881  0.00  0.00    +0.000 C 
ATOM     20  N   UNL     1      -1.351  10.744  19.331  0.00  0.00    +0.000 N 
ATOM     21  N   UNL     1       0.133  11.686  20.756  0.00  0.00    +0.000 NA
ATOM     22  H   UNL     1      -1.760   9.838  19.141  0.00  0.00    +0.000 HD
ATOM     23  H   UNL     1      -1.975  11.358  19.845  0.00  0.00    +0.000 HD
BRANCH  21  24
ATOM     24  O   UNL     1       1.438  11.726  21.241  0.00  0.00    +0.000 OA
ATOM     25  H   UNL     1       1.703  12.644  21.050  0.00  0.00    +0.000 HD
ENDBRANCH  21  24
ENDBRANCH   4  19
TORSDOF 4
ENDMDL
MODEL 6
REMARK VINA RESULT:      -7.5      0.965      1.524
REMARK  Name = 
REMARK  5 active torsions:
REMARK  status: ('A' for Active; 'I' for Inactive)
REMARK    1  A    between atoms: C_1  and  N_2
REMARK    2  A    between atoms: C_4  and  C_5
REMARK    3  A    between atoms: C_8  and  C_9
REMARK    4  A    between atoms: N_11  and  O_12
REMARK    5  A    between atoms: C_15  and  C_16
REMARK                            x       y       z     vdW  Elec       q    Type
REMARK                         _______ _______ _______ _____ _____    ______ ____
ROOT
ATOM      1  C   UNL     1       4.450   4.152  17.048  0.00  0.00    +0.000 A 
ATOM      2  C   UNL     1       4.373   2.902  17.676  0.00  0.00    +0.000 A 
ATOM      3  C   UNL     1       3.458   2.683  18.713  0.00  0.00    +0.000 A 
ATOM      4  C   UNL     1       2.621   3.713  19.163  0.00  0.00    +0.000 A 
ATOM      5  C   UNL     1       2.716   4.966  18.552  0.00  0.00    +0.000 A 
ATOM      6  C   UNL     1       3.592   5.170  17.480  0.00  0.00    +0.000 A 
ENDROOT
BRANCH   1  10
ATOM      7  C   UNL     1       6.756   3.974  12.677  0.00  0.00    +0.000 C 
ATOM      8  N   UNL     1       6.403   4.310  14.035  0.00  0.00    +0.000 N 
ATOM      9  C   UNL     1       5.348   3.824  14.745  0.00  0.00    +0.000 A 
ATOM     10  C   UNL     1       5.426   4.401  15.995  0.00  0.00    +0.000 A 
ATOM     11  C   UNL     1       6.596   5.235  15.942  0.00  0.00    +0.000 A 
ATOM     12  N   UNL     1       7.160   5.181  14.721  0.00  0.00    +0.000 NA
BRANCH  11  13
ATOM     13  C   UNL     1       7.172   6.074  16.996  0.00  0.00    +0.000 A 
ATOM     14  C   UNL     1       7.357   7.444  16.808  0.00  0.00    +0.000 A 
ATOM     15  C   UNL     1       8.011   8.168  17.788  0.00  0.00    +0.000 A 
ATOM     16  N   UNL     1       8.448   7.635  18.948  0.00  0.00    +0.000 NA
ATOM     17  C   UNL     1       8.210   6.320  19.136  0.00  0.00    +0.000 A 
ATOM     18  C   UNL     1       7.583   5.507  18.206  0.00  0.00    +0.000 A 
ENDBRANCH  11  13
ENDBRANCH   1  10
BRANCH   4  19
ATOM     19  C   UNL     1       1.699   3.448  20.320  0.00  0.00    +0.000 C 
ATOM     20  N   UNL     1       2.137   3.782  21.581  0.00  0.00    +0.000 N 
ATOM     21  N   UNL     1       0.497   2.930  20.276  0.00  0.00    +0.000 NA
ATOM     22  H   UNL     1       2.703   4.619  21.650  0.00  0.00    +0.000 HD
ATOM     23  H   UNL     1       1.376   3.766  22.253  0.00  0.00    +0.000 HD
BRANCH  21  24
ATOM     24  O   UNL     1       0.098   2.512  19.009  0.00  0.00    +0.000 OA
ATOM     25  H   UNL     1       0.923   2.149  18.639  0.00  0.00    +0.000 HD
ENDBRANCH  21  24
ENDBRANCH   4  19
TORSDOF 4
ENDMDL
MODEL 7
REMARK VINA RESULT:      -7.5      4.098      6.002
REMARK  Name = 
REMARK  5 active torsions:
REMARK  status: ('A' for Active; 'I' for Inactive)
REMARK    1  A    between atoms: C_1  and  N_2
REMARK    2  A    between atoms: C_4  and  C_5
REMARK    3  A    between atoms: C_8  and  C_9
REMARK    4  A    between atoms: N_11  and  O_12
REMARK    5  A    between atoms: C_15  and  C_16
REMARK                            x       y       z     vdW  Elec       q    Type
REMARK                         _______ _______ _______ _____ _____    ______ ____
ROOT
ATOM      1  C   UNL     1       2.761   7.441  18.353  0.00  0.00    +0.000 A 
ATOM      2  C   UNL     1       2.332   8.525  17.575  0.00  0.00    +0.000 A 
ATOM      3  C   UNL     1       1.457   9.481  18.107  0.00  0.00    +0.000 A 
ATOM      4  C   UNL     1       0.973   9.361  19.417  0.00  0.00    +0.000 A 
ATOM      5  C   UNL     1       1.382   8.267  20.184  0.00  0.00    +0.000 A 
ATOM      6  C   UNL     1       2.298   7.341  19.670  0.00  0.00    +0.000 A 
ENDROOT
BRANCH   1  10
ATOM      7  C   UNL     1       6.389   5.311  15.755  0.00  0.00    +0.000 C 
ATOM      8  N   UNL     1       5.273   5.521  16.645  0.00  0.00    +0.000 N 
ATOM      9  C   UNL     1       4.665   6.708  16.920  0.00  0.00    +0.000 A 
ATOM     10  C   UNL     1       3.639   6.422  17.796  0.00  0.00    +0.000 A 
ATOM     11  C   UNL     1       3.706   4.998  17.986  0.00  0.00    +0.000 A 
ATOM     12  N   UNL     1       4.733   4.475  17.291  0.00  0.00    +0.000 NA
BRANCH  11  13
ATOM     13  C   UNL     1       2.844   4.141  18.806  0.00  0.00    +0.000 A 
ATOM     14  C   UNL     1       1.606   3.704  18.335  0.00  0.00    +0.000 A 
ATOM     15  C   UNL     1       0.781   2.996  19.192  0.00  0.00    +0.000 A 
ATOM     16  N   UNL     1       1.122   2.660  20.452  0.00  0.00    +0.000 NA
ATOM     17  C   UNL     1       2.347   3.043  20.870  0.00  0.00    +0.000 A 
ATOM     18  C   UNL     1       3.234   3.773  20.096  0.00  0.00    +0.000 A 
ENDBRANCH  11  13
ENDBRANCH   1  10
BRANCH   4  19
ATOM     19  C   UNL     1      -0.012  10.377  19.924  0.00  0.00    +0.000 C 
ATOM     20  N   UNL     1      -1.205  10.508  19.251  0.00  0.00    +0.000 N 
ATOM     21  N   UNL     1       0.126  11.171  20.956  0.00  0.00    +0.000 NA
ATOM     22  H   UNL     1      -1.603   9.654  18.879  0.00  0.00    +0.000 HD
ATOM     23  H   UNL     1      -1.874  11.052  19.787  0.00  0.00    +0.000 HD
BRANCH  21  24
ATOM     24  O   UNL     1       1.371  11.097  21.576  0.00  0.00    +0.000 OA
ATOM     25  H   UNL     1       1.142  10.764  22.463  0.00  0.00    +0.000 HD
ENDBRANCH  21  24
ENDBRANCH   4  19
TORSDOF 4
ENDMDL
MODEL 8
REMARK VINA RESULT:      -7.5      4.249      6.202
REMARK  Name = 
REMARK  5 active torsions:
REMARK  status: ('A' for Active; 'I' for Inactive)
REMARK    1  A    between atoms: C_1  and  N_2
REMARK    2  A    between atoms: C_4  and  C_5
REMARK    3  A    between atoms: C_8  and  C_9
REMARK    4  A    between atoms: N_11  and  O_12
REMARK    5  A    between atoms: C_15  and  C_16
REMARK                            x       y       z     vdW  Elec       q    Type
REMARK                         _______ _______ _______ _____ _____    ______ ____
ROOT
ATOM      1  C   UNL     1       2.676   7.431  18.402  0.00  0.00    +0.000 A 
ATOM      2  C   UNL     1       2.204   7.375  19.719  0.00  0.00    +0.000 A 
ATOM      3  C   UNL     1       1.397   8.400  20.230  0.00  0.00    +0.000 A 
ATOM      4  C   UNL     1       1.065   9.512  19.444  0.00  0.00    +0.000 A 
ATOM      5  C   UNL     1       1.555   9.578  18.138  0.00  0.00    +0.000 A 
ATOM      6  C   UNL     1       2.318   8.528  17.611  0.00  0.00    +0.000 A 
ENDROOT
BRANCH   1  10
ATOM      7  C   UNL     1       6.261   5.196  15.832  0.00  0.00    +0.000 C 
ATOM      8  N   UNL     1       5.163   5.443  16.735  0.00  0.00    +0.000 N 
ATOM      9  C   UNL     1       4.554   6.639  16.965  0.00  0.00    +0.000 A 
ATOM     10  C   UNL     1       3.548   6.390  17.875  0.00  0.00    +0.000 A 
ATOM     11  C   UNL     1       3.628   4.977  18.133  0.00  0.00    +0.000 A 
ATOM     12  N   UNL     1       4.643   4.427  17.442  0.00  0.00    +0.000 NA
BRANCH  11  13
ATOM     13  C   UNL     1       2.789   4.157  19.011  0.00  0.00    +0.000 A 
ATOM     14  C   UNL     1       1.540   3.698  18.592  0.00  0.00    +0.000 A 
ATOM     15  C   UNL     1       0.739   3.027  19.500  0.00  0.00    +0.000 A 
ATOM     16  N   UNL     1       1.112   2.747  20.765  0.00  0.00    +0.000 NA
ATOM     17  C   UNL     1       2.347   3.150  21.134  0.00  0.00    +0.000 A 
ATOM     18  C   UNL     1       3.212   3.846  20.306  0.00  0.00    +0.000 A 
ENDBRANCH  11  13
ENDBRANCH   1  10
BRANCH   4  19
ATOM     19  C   UNL     1       0.247  10.616  20.054  0.00  0.00    +0.000 C 
ATOM     20  N   UNL     1       0.829  11.376  21.043  0.00  0.00    +0.000 N 
ATOM     21  N   UNL     1      -0.981  10.956  19.751  0.00  0.00    +0.000 NA
ATOM     22  H   UNL     1       1.818  11.567  20.935  0.00  0.00    +0.000 HD
ATOM     23  H   UNL     1       0.286  12.213  21.233  0.00  0.00    +0.000 HD
BRANCH  21  24
ATOM     24  O   UNL     1      -1.593  10.125  18.815  0.00  0.00    +0.000 OA
ATOM     25  H   UNL     1      -2.540  10.291  18.977  0.00  0.00    +0.000 HD
ENDBRANCH  21  24
ENDBRANCH   4  19
TORSDOF 4
ENDMDL
MODEL 9
REMARK VINA RESULT:      -7.5      4.251      5.321
REMARK  Name = 
REMARK  5 active torsions:
REMARK  status: ('A' for Active; 'I' for Inactive)
REMARK    1  A    between atoms: C_1  and  N_2
REMARK    2  A    between atoms: C_4  and  C_5
REMARK    3  A    between atoms: C_8  and  C_9
REMARK    4  A    between atoms: N_11  and  O_12
REMARK    5  A    between atoms: C_15  and  C_16
REMARK                            x       y       z     vdW  Elec       q    Type
REMARK                         _______ _______ _______ _____ _____    ______ ____
ROOT
ATOM      1  C   UNL     1       2.408   6.964  18.639  0.00  0.00    +0.000 A 
ATOM      2  C   UNL     1       2.299   7.912  17.614  0.00  0.00    +0.000 A 
ATOM      3  C   UNL     1       1.794   9.191  17.878  0.00  0.00    +0.000 A 
ATOM      4  C   UNL     1       1.364   9.542  19.166  0.00  0.00    +0.000 A 
ATOM      5  C   UNL     1       1.451   8.588  20.182  0.00  0.00    +0.000 A 
ATOM      6  C   UNL     1       2.005   7.327  19.929  0.00  0.00    +0.000 A 
ENDROOT
BRANCH   1  10
ATOM      7  C   UNL     1       2.448   2.103  17.730  0.00  0.00    +0.000 C 
ATOM      8  N   UNL     1       2.866   3.468  17.943  0.00  0.00    +0.000 N 
ATOM      9  C   UNL     1       2.060   4.532  18.213  0.00  0.00    +0.000 A 
ATOM     10  C   UNL     1       2.895   5.618  18.365  0.00  0.00    +0.000 A 
ATOM     11  C   UNL     1       4.220   5.093  18.171  0.00  0.00    +0.000 A 
ATOM     12  N   UNL     1       4.171   3.779  17.887  0.00  0.00    +0.000 NA
BRANCH  11  13
ATOM     13  C   UNL     1       5.503   5.798  18.234  0.00  0.00    +0.000 A 
ATOM     14  C   UNL     1       5.812   6.818  17.334  0.00  0.00    +0.000 A 
ATOM     15  C   UNL     1       7.080   7.370  17.363  0.00  0.00    +0.000 A 
ATOM     16  N   UNL     1       8.034   7.009  18.245  0.00  0.00    +0.000 NA
ATOM     17  C   UNL     1       7.698   6.060  19.144  0.00  0.00    +0.000 A 
ATOM     18  C   UNL     1       6.464   5.434  19.182  0.00  0.00    +0.000 A 
ENDBRANCH  11  13
ENDBRANCH   1  10
BRANCH   4  19
ATOM     19  C   UNL     1       0.772  10.905  19.388  0.00  0.00    +0.000 C 
ATOM     20  N   UNL     1       1.618  11.919  19.774  0.00  0.00    +0.000 N 
ATOM     21  N   UNL     1      -0.482  11.258  19.251  0.00  0.00    +0.000 NA
ATOM     22  H   UNL     1       2.548  11.901  19.373  0.00  0.00    +0.000 HD
ATOM     23  H   UNL     1       1.170  12.827  19.689  0.00  0.00    +0.000 HD
BRANCH  21  24
ATOM     24  O   UNL     1      -1.345  10.208  18.949  0.00  0.00    +0.000 OA
ATOM     25  H   UNL     1      -0.727   9.490  18.721  0.00  0.00    +0.000 HD
ENDBRANCH  21  24
ENDBRANCH   4  19
TORSDOF 4
ENDMDL
