MODEL 1
REMARK VINA RESULT:      -6.6      0.000      0.000
REMARK  Name = 
REMARK  9 active torsions:
REMARK  status: ('A' for Active; 'I' for Inactive)
REMARK    1  A    between atoms: N_1  and  C_2
REMARK    2  A    between atoms: C_2  and  C_3
REMARK    3  A    between atoms: C_2  and  C_18
REMARK    4  A    between atoms: C_3  and  S_4
REMARK    5  A    between atoms: S_4  and  C_5
REMARK    6  A    between atoms: C_5  and  C_6
REMARK    7  A    between atoms: C_10  and  N_11
REMARK    8  A    between atoms: C_10  and  N_14
REMARK    9  A    between atoms: C_18  and  O_20
REMARK                            x       y       z     vdW  Elec       q    Type
REMARK                         _______ _______ _______ _____ _____    ______ ____
ROOT
ATOM      1  C   UNK     1       4.036   4.355  18.192  0.00  0.00    +0.000 C 
ATOM      2  O   UNK     1       4.372   3.421  18.918  0.00  0.00    +0.000 OA
ATOM      3  N   UNK     1       4.547   4.458  16.913  0.00  0.00    +0.000 N 
ATOM      4  C   UNK     1       5.587   3.602  16.336  0.00  0.00    +0.000 C 
ATOM      5  C   UNK     1       6.274   4.879  15.843  0.00  0.00    +0.000 C 
ATOM      6  C   UNK     1       4.968   5.635  16.158  0.00  0.00    +0.000 C 
ENDROOT
BRANCH   5   7
ATOM      7  N   UNK     1       6.630   4.809  14.406  0.00  0.00    +0.000 N 
ATOM      8  O   UNK     1       7.638   5.428  14.034  0.00  0.00    +0.000 OA
ATOM      9  O   UNK     1       5.910   4.128  13.663  0.00  0.00    +0.000 OA
ENDBRANCH   5   7
BRANCH   5  10
ATOM     10  N   UNK     1       7.422   5.328  16.676  0.00  0.00    +0.000 N 
ATOM     11  O   UNK     1       7.625   6.541  16.792  0.00  0.00    +0.000 OA
ATOM     12  O   UNK     1       8.105   4.446  17.213  0.00  0.00    +0.000 OA
ENDBRANCH   5  10
BRANCH   1  13
ATOM     13  C   UNK     1       3.020   5.421  18.579  0.00  0.00    +0.000 C 
BRANCH  13  14
ATOM     14  S   UNK     1       2.551   5.393  20.347  0.00  0.00    +0.000 S 
BRANCH  14  15
ATOM     15  C   UNK     1       0.985   4.437  20.256  0.00  0.00    +0.000 C 
BRANCH  15  16
ATOM     16  C   UNK     1       1.237   2.936  20.485  0.00  0.00    +0.000 C 
BRANCH  16  17
ATOM     17  N   UNK     1       2.570   2.632  21.098  0.00  0.00    +0.000 NA
ATOM     18  H   UNK     1       3.274   3.029  20.462  0.00  0.00    +0.000 HD
ATOM     19  H   UNK     1       2.730   1.622  21.027  0.00  0.00    +0.000 HD
ENDBRANCH  16  17
BRANCH  16  20
ATOM     20  C   UNK     1       1.146   2.171  19.159  0.00  0.00    +0.000 C 
ATOM     21  O   UNK     1       0.196   2.179  18.391  0.00  0.00    +0.000 OA
BRANCH  20  22
ATOM     22  O   UNK     1       2.280   1.450  18.936  0.00  0.00    +0.000 OA
ATOM     23  H   UNK     1       2.894   2.042  18.435  0.00  0.00    +0.000 HD
ENDBRANCH  20  22
ENDBRANCH  16  20
ENDBRANCH  15  16
ENDBRANCH  14  15
ENDBRANCH  13  14
ENDBRANCH   1  13
TORSDOF 9
ENDMDL
MODEL 2
REMARK VINA RESULT:      -6.4      1.965      2.502
REMARK  Name = 
REMARK  9 active torsions:
REMARK  status: ('A' for Active; 'I' for Inactive)
REMARK    1  A    between atoms: N_1  and  C_2
REMARK    2  A    between atoms: C_2  and  C_3
REMARK    3  A    between atoms: C_2  and  C_18
REMARK    4  A    between atoms: C_3  and  S_4
REMARK    5  A    between atoms: S_4  and  C_5
REMARK    6  A    between atoms: C_5  and  C_6
REMARK    7  A    between atoms: C_10  and  N_11
REMARK    8  A    between atoms: C_10  and  N_14
REMARK    9  A    between atoms: C_18  and  O_20
REMARK                            x       y       z     vdW  Elec       q    Type
REMARK                         _______ _______ _______ _____ _____    ______ ____
ROOT
ATOM      1  C   UNK     1       3.468   3.312  17.355  0.00  0.00    +0.000 C 
ATOM      2  O   UNK     1       3.802   2.139  17.513  0.00  0.00    +0.000 OA
ATOM      3  N   UNK     1       4.366   4.225  16.837  0.00  0.00    +0.000 N 
ATOM      4  C   UNK     1       5.780   3.966  16.549  0.00  0.00    +0.000 C 
ATOM      5  C   UNK     1       6.101   5.278  17.270  0.00  0.00    +0.000 C 
ATOM      6  C   UNK     1       4.600   5.622  17.190  0.00  0.00    +0.000 C 
ENDROOT
BRANCH   5   7
ATOM      7  N   UNK     1       6.990   6.156  16.473  0.00  0.00    +0.000 N 
ATOM      8  O   UNK     1       7.165   7.314  16.878  0.00  0.00    +0.000 OA
ATOM      9  O   UNK     1       7.518   5.679  15.458  0.00  0.00    +0.000 OA
ENDBRANCH   5   7
BRANCH   5  10
ATOM     10  N   UNK     1       6.587   5.118  18.666  0.00  0.00    +0.000 N 
ATOM     11  O   UNK     1       7.735   4.697  18.844  0.00  0.00    +0.000 OA
ATOM     12  O   UNK     1       5.802   5.425  19.573  0.00  0.00    +0.000 OA
ENDBRANCH   5  10
BRANCH   1  13
ATOM     13  C   UNK     1       2.076   3.854  17.642  0.00  0.00    +0.000 C 
BRANCH  13  14
ATOM     14  S   UNK     1       1.139   2.880  18.875  0.00  0.00    +0.000 S 
BRANCH  14  15
ATOM     15  C   UNK     1       0.794   4.180  20.127  0.00  0.00    +0.000 C 
BRANCH  15  16
ATOM     16  C   UNK     1       1.966   4.327  21.112  0.00  0.00    +0.000 C 
BRANCH  16  17
ATOM     17  N   UNK     1       3.143   5.064  20.548  0.00  0.00    +0.000 NA
ATOM     18  H   UNK     1       3.917   4.388  20.521  0.00  0.00    +0.000 HD
ATOM     19  H   UNK     1       3.452   5.750  21.244  0.00  0.00    +0.000 HD
ENDBRANCH  16  17
BRANCH  16  20
ATOM     20  C   UNK     1       2.453   2.948  21.571  0.00  0.00    +0.000 C 
ATOM     21  O   UNK     1       3.547   2.457  21.333  0.00  0.00    +0.000 OA
BRANCH  20  22
ATOM     22  O   UNK     1       1.489   2.307  22.290  0.00  0.00    +0.000 OA
ATOM     23  H   UNK     1       0.678   2.869  22.233  0.00  0.00    +0.000 HD
ENDBRANCH  20  22
ENDBRANCH  16  20
ENDBRANCH  15  16
ENDBRANCH  14  15
ENDBRANCH  13  14
ENDBRANCH   1  13
TORSDOF 9
ENDMDL
MODEL 3
REMARK VINA RESULT:      -6.3      1.925      2.222
REMARK  Name = 
REMARK  9 active torsions:
REMARK  status: ('A' for Active; 'I' for Inactive)
REMARK    1  A    between atoms: N_1  and  C_2
REMARK    2  A    between atoms: C_2  and  C_3
REMARK    3  A    between atoms: C_2  and  C_18
REMARK    4  A    between atoms: C_3  and  S_4
REMARK    5  A    between atoms: S_4  and  C_5
REMARK    6  A    between atoms: C_5  and  C_6
REMARK    7  A    between atoms: C_10  and  N_11
REMARK    8  A    between atoms: C_10  and  N_14
REMARK    9  A    between atoms: C_18  and  O_20
REMARK                            x       y       z     vdW  Elec       q    Type
REMARK                         _______ _______ _______ _____ _____    ______ ____
ROOT
ATOM      1  C   UNK     1       4.730   3.648  18.160  0.00  0.00    +0.000 C 
ATOM      2  O   UNK     1       5.267   3.981  19.215  0.00  0.00    +0.000 OA
ATOM      3  N   UNK     1       5.423   3.744  16.969  0.00  0.00    +0.000 N 
ATOM      4  C   UNK     1       6.751   4.338  16.797  0.00  0.00    +0.000 C 
ATOM      5  C   UNK     1       6.186   5.099  15.595  0.00  0.00    +0.000 C 
ATOM      6  C   UNK     1       4.967   4.155  15.644  0.00  0.00    +0.000 C 
ENDROOT
BRANCH   5   7
ATOM      7  N   UNK     1       7.038   4.964  14.390  0.00  0.00    +0.000 N 
ATOM      8  O   UNK     1       6.662   4.180  13.507  0.00  0.00    +0.000 OA
ATOM      9  O   UNK     1       8.068   5.650  14.329  0.00  0.00    +0.000 OA
ENDBRANCH   5   7
BRANCH   5  10
ATOM     10  N   UNK     1       5.833   6.518  15.868  0.00  0.00    +0.000 N 
ATOM     11  O   UNK     1       5.000   7.067  15.140  0.00  0.00    +0.000 OA
ATOM     12  O   UNK     1       6.401   7.064  16.823  0.00  0.00    +0.000 OA
ENDBRANCH   5  10
BRANCH   1  13
ATOM     13  C   UNK     1       3.328   3.064  18.057  0.00  0.00    +0.000 C 
BRANCH  13  14
ATOM     14  S   UNK     1       1.996   4.317  18.099  0.00  0.00    +0.000 S 
BRANCH  14  15
ATOM     15  C   UNK     1       0.983   3.673  19.489  0.00  0.00    +0.000 C 
BRANCH  15  16
ATOM     16  C   UNK     1       1.541   4.138  20.845  0.00  0.00    +0.000 C 
BRANCH  16  17
ATOM     17  N   UNK     1       2.676   5.110  20.732  0.00  0.00    +0.000 NA
ATOM     18  H   UNK     1       2.611   5.516  19.790  0.00  0.00    +0.000 HD
ATOM     19  H   UNK     1       3.551   4.576  20.700  0.00  0.00    +0.000 HD
ENDBRANCH  16  17
BRANCH  16  20
ATOM     20  C   UNK     1       2.032   2.937  21.661  0.00  0.00    +0.000 C 
ATOM     21  O   UNK     1       1.366   2.286  22.452  0.00  0.00    +0.000 OA
BRANCH  20  22
ATOM     22  O   UNK     1       3.344   2.677  21.401  0.00  0.00    +0.000 OA
ATOM     23  H   UNK     1       3.860   3.426  21.789  0.00  0.00    +0.000 HD
ENDBRANCH  20  22
ENDBRANCH  16  20
ENDBRANCH  15  16
ENDBRANCH  14  15
ENDBRANCH  13  14
ENDBRANCH   1  13
TORSDOF 9
ENDMDL
MODEL 4
REMARK VINA RESULT:      -6.3      1.637      2.090
REMARK  Name = 
REMARK  9 active torsions:
REMARK  status: ('A' for Active; 'I' for Inactive)
REMARK    1  A    between atoms: N_1  and  C_2
REMARK    2  A    between atoms: C_2  and  C_3
REMARK    3  A    between atoms: C_2  and  C_18
REMARK    4  A    between atoms: C_3  and  S_4
REMARK    5  A    between atoms: S_4  and  C_5
REMARK    6  A    between atoms: C_5  and  C_6
REMARK    7  A    between atoms: C_10  and  N_11
REMARK    8  A    between atoms: C_10  and  N_14
REMARK    9  A    between atoms: C_18  and  O_20
REMARK                            x       y       z     vdW  Elec       q    Type
REMARK                         _______ _______ _______ _____ _____    ______ ____
ROOT
ATOM      1  C   UNK     1       5.794   4.521  19.141  0.00  0.00    +0.000 C 
ATOM      2  O   UNK     1       6.552   5.150  19.877  0.00  0.00    +0.000 OA
ATOM      3  N   UNK     1       6.140   4.287  17.824  0.00  0.00    +0.000 N 
ATOM      4  C   UNK     1       7.314   4.835  17.138  0.00  0.00    +0.000 C 
ATOM      5  C   UNK     1       6.384   5.211  15.982  0.00  0.00    +0.000 C 
ATOM      6  C   UNK     1       5.318   4.296  16.617  0.00  0.00    +0.000 C 
ENDROOT
BRANCH   5   7
ATOM      7  N   UNK     1       6.902   4.757  14.670  0.00  0.00    +0.000 N 
ATOM      8  O   UNK     1       6.388   3.747  14.170  0.00  0.00    +0.000 OA
ATOM      9  O   UNK     1       7.808   5.418  14.144  0.00  0.00    +0.000 OA
ENDBRANCH   5   7
BRANCH   5  10
ATOM     10  N   UNK     1       5.978   6.642  15.951  0.00  0.00    +0.000 N 
ATOM     11  O   UNK     1       6.557   7.433  16.702  0.00  0.00    +0.000 OA
ATOM     12  O   UNK     1       5.078   6.953  15.160  0.00  0.00    +0.000 OA
ENDBRANCH   5  10
BRANCH   1  13
ATOM     13  C   UNK     1       4.478   3.903  19.591  0.00  0.00    +0.000 C 
BRANCH  13  14
ATOM     14  S   UNK     1       3.163   5.126  19.937  0.00  0.00    +0.000 S 
BRANCH  14  15
ATOM     15  C   UNK     1       2.087   4.876  18.469  0.00  0.00    +0.000 C 
BRANCH  15  16
ATOM     16  C   UNK     1       1.132   3.688  18.677  0.00  0.00    +0.000 C 
BRANCH  16  17
ATOM     17  N   UNK     1       0.701   3.498  20.099  0.00  0.00    +0.000 NA
ATOM     18  H   UNK     1       1.562   3.510  20.662  0.00  0.00    +0.000 HD
ATOM     19  H   UNK     1       0.364   2.535  20.204  0.00  0.00    +0.000 HD
ENDBRANCH  16  17
BRANCH  16  20
ATOM     20  C   UNK     1       1.792   2.385  18.209  0.00  0.00    +0.000 C 
ATOM     21  O   UNK     1       2.380   2.219  17.151  0.00  0.00    +0.000 OA
BRANCH  20  22
ATOM     22  O   UNK     1       1.632   1.400  19.136  0.00  0.00    +0.000 OA
ATOM     23  H   UNK     1       1.518   1.852  20.009  0.00  0.00    +0.000 HD
ENDBRANCH  20  22
ENDBRANCH  16  20
ENDBRANCH  15  16
ENDBRANCH  14  15
ENDBRANCH  13  14
ENDBRANCH   1  13
TORSDOF 9
ENDMDL
MODEL 5
REMARK VINA RESULT:      -6.3      1.826      2.142
REMARK  Name = 
REMARK  9 active torsions:
REMARK  status: ('A' for Active; 'I' for Inactive)
REMARK    1  A    between atoms: N_1  and  C_2
REMARK    2  A    between atoms: C_2  and  C_3
REMARK    3  A    between atoms: C_2  and  C_18
REMARK    4  A    between atoms: C_3  and  S_4
REMARK    5  A    between atoms: S_4  and  C_5
REMARK    6  A    between atoms: C_5  and  C_6
REMARK    7  A    between atoms: C_10  and  N_11
REMARK    8  A    between atoms: C_10  and  N_14
REMARK    9  A    between atoms: C_18  and  O_20
REMARK                            x       y       z     vdW  Elec       q    Type
REMARK                         _______ _______ _______ _____ _____    ______ ____
ROOT
ATOM      1  C   UNK     1       5.804   4.710  19.209  0.00  0.00    +0.000 C 
ATOM      2  O   UNK     1       6.644   5.283  19.900  0.00  0.00    +0.000 OA
ATOM      3  N   UNK     1       6.083   4.400  17.892  0.00  0.00    +0.000 N 
ATOM      4  C   UNK     1       7.283   4.803  17.154  0.00  0.00    +0.000 C 
ATOM      5  C   UNK     1       6.359   5.234  16.012  0.00  0.00    +0.000 C 
ATOM      6  C   UNK     1       5.228   4.453  16.709  0.00  0.00    +0.000 C 
ENDROOT
BRANCH   5   7
ATOM      7  N   UNK     1       6.787   4.686  14.703  0.00  0.00    +0.000 N 
ATOM      8  O   UNK     1       7.727   5.251  14.125  0.00  0.00    +0.000 OA
ATOM      9  O   UNK     1       6.193   3.690  14.269  0.00  0.00    +0.000 OA
ENDBRANCH   5   7
BRANCH   5  10
ATOM     10  N   UNK     1       6.098   6.697  15.941  0.00  0.00    +0.000 N 
ATOM     11  O   UNK     1       6.789   7.451  16.634  0.00  0.00    +0.000 OA
ATOM     12  O   UNK     1       5.197   7.070  15.179  0.00  0.00    +0.000 OA
ENDBRANCH   5  10
BRANCH   1  13
ATOM     13  C   UNK     1       4.447   4.244  19.717  0.00  0.00    +0.000 C 
BRANCH  13  14
ATOM     14  S   UNK     1       4.305   2.429  19.896  0.00  0.00    +0.000 S 
BRANCH  14  15
ATOM     15  C   UNK     1       2.530   2.281  20.346  0.00  0.00    +0.000 C 
BRANCH  15  16
ATOM     16  C   UNK     1       1.698   3.402  19.700  0.00  0.00    +0.000 C 
BRANCH  16  17
ATOM     17  N   UNK     1       0.480   3.782  20.485  0.00  0.00    +0.000 NA
ATOM     18  H   UNK     1       0.339   3.032  21.174  0.00  0.00    +0.000 HD
ATOM     19  H   UNK     1      -0.335   3.695  19.870  0.00  0.00    +0.000 HD
ENDBRANCH  16  17
BRANCH  16  20
ATOM     20  C   UNK     1       1.241   2.986  18.298  0.00  0.00    +0.000 C 
ATOM     21  O   UNK     1       1.590   3.502  17.247  0.00  0.00    +0.000 OA
BRANCH  20  22
ATOM     22  O   UNK     1       0.362   1.947  18.362  0.00  0.00    +0.000 OA
ATOM     23  H   UNK     1       0.312   1.566  17.450  0.00  0.00    +0.000 HD
ENDBRANCH  20  22
ENDBRANCH  16  20
ENDBRANCH  15  16
ENDBRANCH  14  15
ENDBRANCH  13  14
ENDBRANCH   1  13
TORSDOF 9
ENDMDL
MODEL 6
REMARK VINA RESULT:      -6.2      1.273      1.689
REMARK  Name = 
REMARK  9 active torsions:
REMARK  status: ('A' for Active; 'I' for Inactive)
REMARK    1  A    between atoms: N_1  and  C_2
REMARK    2  A    between atoms: C_2  and  C_3
REMARK    3  A    between atoms: C_2  and  C_18
REMARK    4  A    between atoms: C_3  and  S_4
REMARK    5  A    between atoms: S_4  and  C_5
REMARK    6  A    between atoms: C_5  and  C_6
REMARK    7  A    between atoms: C_10  and  N_11
REMARK    8  A    between atoms: C_10  and  N_14
REMARK    9  A    between atoms: C_18  and  O_20
REMARK                            x       y       z     vdW  Elec       q    Type
REMARK                         _______ _______ _______ _____ _____    ______ ____
ROOT
ATOM      1  C   UNK     1       3.186   4.325  17.363  0.00  0.00    +0.000 C 
ATOM      2  O   UNK     1       3.122   3.100  17.272  0.00  0.00    +0.000 OA
ATOM      3  N   UNK     1       4.259   5.005  16.821  0.00  0.00    +0.000 N 
ATOM      4  C   UNK     1       5.449   4.391  16.225  0.00  0.00    +0.000 C 
ATOM      5  C   UNK     1       6.290   5.362  17.058  0.00  0.00    +0.000 C 
ATOM      6  C   UNK     1       4.998   6.158  17.328  0.00  0.00    +0.000 C 
ENDROOT
BRANCH   5   7
ATOM      7  N   UNK     1       7.306   6.070  16.243  0.00  0.00    +0.000 N 
ATOM      8  O   UNK     1       7.748   7.141  16.683  0.00  0.00    +0.000 OA
ATOM      9  O   UNK     1       7.663   5.546  15.179  0.00  0.00    +0.000 OA
ENDBRANCH   5   7
BRANCH   5  10
ATOM     10  N   UNK     1       6.880   4.775  18.290  0.00  0.00    +0.000 N 
ATOM     11  O   UNK     1       6.196   4.756  19.318  0.00  0.00    +0.000 OA
ATOM     12  O   UNK     1       8.033   4.332  18.205  0.00  0.00    +0.000 OA
ENDBRANCH   5  10
BRANCH   1  13
ATOM     13  C   UNK     1       2.112   5.196  17.997  0.00  0.00    +0.000 C 
BRANCH  13  14
ATOM     14  S   UNK     1       2.465   5.667  19.729  0.00  0.00    +0.000 S 
BRANCH  14  15
ATOM     15  C   UNK     1       2.802   4.014  20.456  0.00  0.00    +0.000 C 
BRANCH  15  16
ATOM     16  C   UNK     1       1.493   3.273  20.781  0.00  0.00    +0.000 C 
BRANCH  16  17
ATOM     17  N   UNK     1       1.568   2.422  22.013  0.00  0.00    +0.000 NA
ATOM     18  H   UNK     1       1.853   3.049  22.776  0.00  0.00    +0.000 HD
ATOM     19  H   UNK     1       2.370   1.790  21.914  0.00  0.00    +0.000 HD
ENDBRANCH  16  17
BRANCH  16  20
ATOM     20  C   UNK     1       1.087   2.370  19.611  0.00  0.00    +0.000 C 
ATOM     21  O   UNK     1       0.039   2.434  18.986  0.00  0.00    +0.000 OA
BRANCH  20  22
ATOM     22  O   UNK     1       2.057   1.450  19.348  0.00  0.00    +0.000 OA
ATOM     23  H   UNK     1       1.598   0.660  18.969  0.00  0.00    +0.000 HD
ENDBRANCH  20  22
ENDBRANCH  16  20
ENDBRANCH  15  16
ENDBRANCH  14  15
ENDBRANCH  13  14
ENDBRANCH   1  13
TORSDOF 9
ENDMDL
MODEL 7
REMARK VINA RESULT:      -6.2      2.058      2.516
REMARK  Name = 
REMARK  9 active torsions:
REMARK  status: ('A' for Active; 'I' for Inactive)
REMARK    1  A    between atoms: N_1  and  C_2
REMARK    2  A    between atoms: C_2  and  C_3
REMARK    3  A    between atoms: C_2  and  C_18
REMARK    4  A    between atoms: C_3  and  S_4
REMARK    5  A    between atoms: S_4  and  C_5
REMARK    6  A    between atoms: C_5  and  C_6
REMARK    7  A    between atoms: C_10  and  N_11
REMARK    8  A    between atoms: C_10  and  N_14
REMARK    9  A    between atoms: C_18  and  O_20
REMARK                            x       y       z     vdW  Elec       q    Type
REMARK                         _______ _______ _______ _____ _____    ______ ____
ROOT
ATOM      1  C   UNK     1       5.851   4.783  19.280  0.00  0.00    +0.000 C 
ATOM      2  O   UNK     1       6.704   5.361  19.952  0.00  0.00    +0.000 OA
ATOM      3  N   UNK     1       6.114   4.445  17.967  0.00  0.00    +0.000 N 
ATOM      4  C   UNK     1       7.312   4.821  17.210  0.00  0.00    +0.000 C 
ATOM      5  C   UNK     1       6.381   5.239  16.069  0.00  0.00    +0.000 C 
ATOM      6  C   UNK     1       5.248   4.483  16.792  0.00  0.00    +0.000 C 
ENDROOT
BRANCH   5   7
ATOM      7  N   UNK     1       6.791   4.662  14.767  0.00  0.00    +0.000 N 
ATOM      8  O   UNK     1       6.204   3.640  14.383  0.00  0.00    +0.000 OA
ATOM      9  O   UNK     1       7.684   5.240  14.132  0.00  0.00    +0.000 OA
ENDBRANCH   5   7
BRANCH   5  10
ATOM     10  N   UNK     1       6.134   6.703  15.972  0.00  0.00    +0.000 N 
ATOM     11  O   UNK     1       5.214   7.098  15.249  0.00  0.00    +0.000 OA
ATOM     12  O   UNK     1       6.873   7.441  16.636  0.00  0.00    +0.000 OA
ENDBRANCH   5  10
BRANCH   1  13
ATOM     13  C   UNK     1       4.494   4.341  19.811  0.00  0.00    +0.000 C 
BRANCH  13  14
ATOM     14  S   UNK     1       4.248   2.528  19.800  0.00  0.00    +0.000 S 
BRANCH  14  15
ATOM     15  C   UNK     1       2.815   2.398  18.658  0.00  0.00    +0.000 C 
BRANCH  15  16
ATOM     16  C   UNK     1       1.560   1.903  19.396  0.00  0.00    +0.000 C 
BRANCH  16  17
ATOM     17  N   UNK     1       0.320   1.907  18.555  0.00  0.00    +0.000 NA
ATOM     18  H   UNK     1      -0.406   2.368  19.118  0.00  0.00    +0.000 HD
ATOM     19  H   UNK     1      -0.016   0.941  18.479  0.00  0.00    +0.000 HD
ENDBRANCH  16  17
BRANCH  16  20
ATOM     20  C   UNK     1       1.291   2.770  20.632  0.00  0.00    +0.000 C 
ATOM     21  O   UNK     1       1.596   2.493  21.782  0.00  0.00    +0.000 OA
BRANCH  20  22
ATOM     22  O   UNK     1       0.641   3.917  20.288  0.00  0.00    +0.000 OA
ATOM     23  H   UNK     1       1.114   4.280  19.499  0.00  0.00    +0.000 HD
ENDBRANCH  20  22
ENDBRANCH  16  20
ENDBRANCH  15  16
ENDBRANCH  14  15
ENDBRANCH  13  14
ENDBRANCH   1  13
TORSDOF 9
ENDMDL
MODEL 8
REMARK VINA RESULT:      -6.2      2.062      2.357
REMARK  Name = 
REMARK  9 active torsions:
REMARK  status: ('A' for Active; 'I' for Inactive)
REMARK    1  A    between atoms: N_1  and  C_2
REMARK    2  A    between atoms: C_2  and  C_3
REMARK    3  A    between atoms: C_2  and  C_18
REMARK    4  A    between atoms: C_3  and  S_4
REMARK    5  A    between atoms: S_4  and  C_5
REMARK    6  A    between atoms: C_5  and  C_6
REMARK    7  A    between atoms: C_10  and  N_11
REMARK    8  A    between atoms: C_10  and  N_14
REMARK    9  A    between atoms: C_18  and  O_20
REMARK                            x       y       z     vdW  Elec       q    Type
REMARK                         _______ _______ _______ _____ _____    ______ ____
ROOT
ATOM      1  C   UNK     1       5.842   4.715  19.270  0.00  0.00    +0.000 C 
ATOM      2  O   UNK     1       6.698   5.276  19.951  0.00  0.00    +0.000 OA
ATOM      3  N   UNK     1       6.104   4.395  17.952  0.00  0.00    +0.000 N 
ATOM      4  C   UNK     1       7.305   4.775  17.202  0.00  0.00    +0.000 C 
ATOM      5  C   UNK     1       6.378   5.217  16.066  0.00  0.00    +0.000 C 
ATOM      6  C   UNK     1       5.240   4.459  16.777  0.00  0.00    +0.000 C 
ENDROOT
BRANCH   5   7
ATOM      7  N   UNK     1       6.785   4.657  14.756  0.00  0.00    +0.000 N 
ATOM      8  O   UNK     1       7.647   5.272  14.113  0.00  0.00    +0.000 OA
ATOM      9  O   UNK     1       6.251   3.602  14.385  0.00  0.00    +0.000 OA
ENDBRANCH   5   7
BRANCH   5  10
ATOM     10  N   UNK     1       6.142   6.684  15.992  0.00  0.00    +0.000 N 
ATOM     11  O   UNK     1       5.211   7.095  15.293  0.00  0.00    +0.000 OA
ATOM     12  O   UNK     1       6.901   7.408  16.649  0.00  0.00    +0.000 OA
ENDBRANCH   5  10
BRANCH   1  13
ATOM     13  C   UNK     1       4.482   4.275  19.792  0.00  0.00    +0.000 C 
BRANCH  13  14
ATOM     14  S   UNK     1       4.236   2.462  19.787  0.00  0.00    +0.000 S 
BRANCH  14  15
ATOM     15  C   UNK     1       2.834   2.324  18.608  0.00  0.00    +0.000 C 
BRANCH  15  16
ATOM     16  C   UNK     1       1.523   1.995  19.342  0.00  0.00    +0.000 C 
BRANCH  16  17
ATOM     17  N   UNK     1       0.336   1.868  18.435  0.00  0.00    +0.000 NA
ATOM     18  H   UNK     1       0.006   0.899  18.532  0.00  0.00    +0.000 HD
ATOM     19  H   UNK     1       0.671   1.908  17.466  0.00  0.00    +0.000 HD
ENDBRANCH  16  17
BRANCH  16  20
ATOM     20  C   UNK     1       1.205   3.078  20.379  0.00  0.00    +0.000 C 
ATOM     21  O   UNK     1       0.955   4.250  20.140  0.00  0.00    +0.000 OA
BRANCH  20  22
ATOM     22  O   UNK     1       1.246   2.568  21.642  0.00  0.00    +0.000 OA
ATOM     23  H   UNK     1       1.355   1.590  21.545  0.00  0.00    +0.000 HD
ENDBRANCH  20  22
ENDBRANCH  16  20
ENDBRANCH  15  16
ENDBRANCH  14  15
ENDBRANCH  13  14
ENDBRANCH   1  13
TORSDOF 9
ENDMDL
MODEL 9
REMARK VINA RESULT:      -6.2      2.039      6.238
REMARK  Name = 
REMARK  9 active torsions:
REMARK  status: ('A' for Active; 'I' for Inactive)
REMARK    1  A    between atoms: N_1  and  C_2
REMARK    2  A    between atoms: C_2  and  C_3
REMARK    3  A    between atoms: C_2  and  C_18
REMARK    4  A    between atoms: C_3  and  S_4
REMARK    5  A    between atoms: S_4  and  C_5
REMARK    6  A    between atoms: C_5  and  C_6
REMARK    7  A    between atoms: C_10  and  N_11
REMARK    8  A    between atoms: C_10  and  N_14
REMARK    9  A    between atoms: C_18  and  O_20
REMARK                            x       y       z     vdW  Elec       q    Type
REMARK                         _______ _______ _______ _____ _____    ______ ____
ROOT
ATOM      1  C   UNK     1       5.001   5.167  19.028  0.00  0.00    +0.000 C 
ATOM      2  O   UNK     1       6.032   4.569  19.331  0.00  0.00    +0.000 OA
ATOM      3  N   UNK     1       3.774   4.692  19.450  0.00  0.00    +0.000 N 
ATOM      4  C   UNK     1       3.542   3.427  20.153  0.00  0.00    +0.000 C 
ATOM      5  C   UNK     1       2.399   3.163  19.169  0.00  0.00    +0.000 C 
ATOM      6  C   UNK     1       2.491   4.645  18.754  0.00  0.00    +0.000 C 
ENDROOT
BRANCH   5   7
ATOM      7  N   UNK     1       1.142   2.779  19.854  0.00  0.00    +0.000 N 
ATOM      8  O   UNK     1       1.094   2.922  21.084  0.00  0.00    +0.000 OA
ATOM      9  O   UNK     1       0.210   2.352  19.159  0.00  0.00    +0.000 OA
ENDBRANCH   5   7
BRANCH   5  10
ATOM     10  N   UNK     1       2.735   2.227  18.063  0.00  0.00    +0.000 N 
ATOM     11  O   UNK     1       3.409   1.226  18.324  0.00  0.00    +0.000 OA
ATOM     12  O   UNK     1       2.308   2.513  16.937  0.00  0.00    +0.000 OA
ENDBRANCH   5  10
BRANCH   1  13
ATOM     13  C   UNK     1       4.963   6.470  18.243  0.00  0.00    +0.000 C 
BRANCH  13  14
ATOM     14  S   UNK     1       5.041   6.247  16.429  0.00  0.00    +0.000 S 
BRANCH  14  15
ATOM     15  C   UNK     1       5.213   4.420  16.331  0.00  0.00    +0.000 C 
BRANCH  15  16
ATOM     16  C   UNK     1       6.618   4.020  15.848  0.00  0.00    +0.000 C 
BRANCH  16  17
ATOM     17  N   UNK     1       7.728   4.574  16.689  0.00  0.00    +0.000 NA
ATOM     18  H   UNK     1       8.418   4.960  16.032  0.00  0.00    +0.000 HD
ATOM     19  H   UNK     1       8.225   3.786  17.118  0.00  0.00    +0.000 HD
ENDBRANCH  16  17
BRANCH  16  20
ATOM     20  C   UNK     1       6.842   4.493  14.407  0.00  0.00    +0.000 C 
ATOM     21  O   UNK     1       6.263   4.072  13.416  0.00  0.00    +0.000 OA
BRANCH  20  22
ATOM     22  O   UNK     1       7.799   5.461  14.356  0.00  0.00    +0.000 OA
ATOM     23  H   UNK     1       7.521   6.163  14.994  0.00  0.00    +0.000 HD
ENDBRANCH  20  22
ENDBRANCH  16  20
ENDBRANCH  15  16
ENDBRANCH  14  15
ENDBRANCH  13  14
ENDBRANCH   1  13
TORSDOF 9
ENDMDL
