MODEL 1
REMARK VINA RESULT:      -7.5      0.000      0.000
REMARK  Name = 
REMARK  3 active torsions:
REMARK  status: ('A' for Active; 'I' for Inactive)
REMARK    1  A    between atoms: C_1  and  C_2
REMARK    2  A    between atoms: C_2  and  N_3
REMARK    3  A    between atoms: N_12  and  C_13
REMARK                            x       y       z     vdW  Elec       q    Type
REMARK                         _______ _______ _______ _____ _____    ______ ____
ROOT
ATOM      1  N   UNL     1      -0.479  11.224  20.633  0.00  0.00    +0.000 N 
ATOM      2  C   UNL     1      -0.671  10.747  21.923  0.00  0.00    +0.000 A 
ATOM      3  S   UNL     1      -1.553  11.439  23.155  0.00  0.00    +0.000 S 
ATOM      4  S   UNL     1       0.197   9.204  22.123  0.00  0.00    +0.000 S 
ATOM      5  C   UNL     1       0.787   9.279  20.470  0.00  0.00    +0.000 A 
ATOM      6  C   UNL     1       1.594   8.442  19.743  0.00  0.00    +0.000 A 
ATOM      7  N   UNL     1       2.042   7.239  20.323  0.00  0.00    +0.000 N 
ATOM      8  C   UNL     1       2.779   6.240  19.739  0.00  0.00    +0.000 C 
ATOM      9  O   UNL     1       2.914   5.172  20.331  0.00  0.00    +0.000 OA
ATOM     10  N   UNL     1       3.364   6.561  18.546  0.00  0.00    +0.000 N 
ATOM     11  N   UNL     1       1.941   8.729  18.473  0.00  0.00    +0.000 NA
ATOM     12  C   UNL     1       1.415   9.835  17.925  0.00  0.00    +0.000 A 
ATOM     13  N   UNL     1       0.610  10.705  18.542  0.00  0.00    +0.000 NA
ATOM     14  C   UNL     1       0.330  10.402  19.816  0.00  0.00    +0.000 A 
ATOM     15  H   UNL     1       1.709   7.006  21.252  0.00  0.00    +0.000 HD
ATOM     16  H   UNL     1       3.428   7.557  18.370  0.00  0.00    +0.000 HD
ENDROOT
BRANCH  10  17
ATOM     17  C   UNL     1       4.080   5.709  17.702  0.00  0.00    +0.000 A 
ATOM     18  C   UNL     1       3.665   4.403  17.434  0.00  0.00    +0.000 A 
ATOM     19  C   UNL     1       4.374   3.629  16.515  0.00  0.00    +0.000 A 
ATOM     20  C   UNL     1       5.514   4.150  15.909  0.00  0.00    +0.000 A 
ATOM     21  F   UNL     1       6.206   3.398  15.043  0.00  0.00    +0.000 F 
ATOM     22  C   UNL     1       5.943   5.443  16.183  0.00  0.00    +0.000 A 
ATOM     23  C   UNL     1       5.205   6.236  17.060  0.00  0.00    +0.000 A 
ENDBRANCH  10  17
BRANCH   1  25
ATOM     24  C   UNL     1      -2.500  12.189  19.576  0.00  0.00    +0.000 C 
ATOM     25  C   UNL     1      -1.079  12.431  20.056  0.00  0.00    +0.000 C 
ENDBRANCH   1  25
TORSDOF 2
ENDMDL
MODEL 2
REMARK VINA RESULT:      -7.3      0.167      1.017
REMARK  Name = 
REMARK  3 active torsions:
REMARK  status: ('A' for Active; 'I' for Inactive)
REMARK    1  A    between atoms: C_1  and  C_2
REMARK    2  A    between atoms: C_2  and  N_3
REMARK    3  A    between atoms: N_12  and  C_13
REMARK                            x       y       z     vdW  Elec       q    Type
REMARK                         _______ _______ _______ _____ _____    ______ ____
ROOT
ATOM      1  N   UNL     1      -0.451  11.236  20.625  0.00  0.00    +0.000 N 
ATOM      2  C   UNL     1      -0.618  10.724  21.905  0.00  0.00    +0.000 A 
ATOM      3  S   UNL     1      -1.487  11.374  23.168  0.00  0.00    +0.000 S 
ATOM      4  S   UNL     1       0.270   9.187  22.052  0.00  0.00    +0.000 S 
ATOM      5  C   UNL     1       0.834   9.311  20.393  0.00  0.00    +0.000 A 
ATOM      6  C   UNL     1       1.638   8.502  19.632  0.00  0.00    +0.000 A 
ATOM      7  N   UNL     1       2.110   7.290  20.174  0.00  0.00    +0.000 N 
ATOM      8  C   UNL     1       2.848   6.315  19.553  0.00  0.00    +0.000 C 
ATOM      9  O   UNL     1       3.005   5.234  20.115  0.00  0.00    +0.000 OA
ATOM     10  N   UNL     1       3.411   6.673  18.360  0.00  0.00    +0.000 N 
ATOM     11  N   UNL     1       1.962   8.825  18.364  0.00  0.00    +0.000 NA
ATOM     12  C   UNL     1       1.415   9.939  17.854  0.00  0.00    +0.000 A 
ATOM     13  N   UNL     1       0.610  10.783  18.504  0.00  0.00    +0.000 NA
ATOM     14  C   UNL     1       0.353  10.445  19.775  0.00  0.00    +0.000 A 
ATOM     15  H   UNL     1       1.794   7.029  21.102  0.00  0.00    +0.000 HD
ATOM     16  H   UNL     1       3.460   7.673  18.208  0.00  0.00    +0.000 HD
ENDROOT
BRANCH  10  17
ATOM     17  C   UNL     1       4.123   5.852  17.484  0.00  0.00    +0.000 A 
ATOM     18  C   UNL     1       5.181   6.330  16.707  0.00  0.00    +0.000 A 
ATOM     19  C   UNL     1       5.911   5.442  15.914  0.00  0.00    +0.000 A 
ATOM     20  C   UNL     1       5.549   4.099  15.871  0.00  0.00    +0.000 A 
ATOM     21  F   UNL     1       6.237   3.253  15.094  0.00  0.00    +0.000 F 
ATOM     22  C   UNL     1       4.488   3.619  16.629  0.00  0.00    +0.000 A 
ATOM     23  C   UNL     1       3.792   4.493  17.462  0.00  0.00    +0.000 A 
ENDBRANCH  10  17
BRANCH   1  25
ATOM     24  C   UNL     1      -2.472  12.187  19.555  0.00  0.00    +0.000 C 
ATOM     25  C   UNL     1      -1.074  12.450  20.088  0.00  0.00    +0.000 C 
ENDBRANCH   1  25
TORSDOF 2
ENDMDL
MODEL 3
REMARK VINA RESULT:      -7.1      2.431      3.134
REMARK  Name = 
REMARK  3 active torsions:
REMARK  status: ('A' for Active; 'I' for Inactive)
REMARK    1  A    between atoms: C_1  and  C_2
REMARK    2  A    between atoms: C_2  and  N_3
REMARK    3  A    between atoms: N_12  and  C_13
REMARK                            x       y       z     vdW  Elec       q    Type
REMARK                         _______ _______ _______ _____ _____    ______ ____
ROOT
ATOM      1  N   UNL     1      -0.695  12.292  21.662  0.00  0.00    +0.000 N 
ATOM      2  C   UNL     1      -0.607  13.156  20.577  0.00  0.00    +0.000 A 
ATOM      3  S   UNL     1      -1.145  14.728  20.468  0.00  0.00    +0.000 S 
ATOM      4  S   UNL     1       0.200  12.328  19.222  0.00  0.00    +0.000 S 
ATOM      5  C   UNL     1       0.370  10.860  20.171  0.00  0.00    +0.000 A 
ATOM      6  C   UNL     1       0.908   9.633  19.878  0.00  0.00    +0.000 A 
ATOM      7  N   UNL     1       1.515   9.426  18.623  0.00  0.00    +0.000 N 
ATOM      8  C   UNL     1       2.174   8.311  18.174  0.00  0.00    +0.000 C 
ATOM      9  O   UNL     1       2.813   8.374  17.127  0.00  0.00    +0.000 OA
ATOM     10  N   UNL     1       2.002   7.182  18.926  0.00  0.00    +0.000 N 
ATOM     11  N   UNL     1       0.899   8.629  20.777  0.00  0.00    +0.000 NA
ATOM     12  C   UNL     1       0.399   8.896  21.993  0.00  0.00    +0.000 A 
ATOM     13  N   UNL     1      -0.132  10.058  22.382  0.00  0.00    +0.000 NA
ATOM     14  C   UNL     1      -0.143  11.011  21.441  0.00  0.00    +0.000 A 
ATOM     15  H   UNL     1       1.577  10.216  17.990  0.00  0.00    +0.000 HD
ATOM     16  H   UNL     1       1.203   7.217  19.548  0.00  0.00    +0.000 HD
ENDROOT
BRANCH  10  17
ATOM     17  C   UNL     1       2.630   5.948  18.751  0.00  0.00    +0.000 A 
ATOM     18  C   UNL     1       3.832   5.626  19.386  0.00  0.00    +0.000 A 
ATOM     19  C   UNL     1       4.367   4.345  19.241  0.00  0.00    +0.000 A 
ATOM     20  C   UNL     1       3.722   3.416  18.428  0.00  0.00    +0.000 A 
ATOM     21  F   UNL     1       4.248   2.195  18.273  0.00  0.00    +0.000 F 
ATOM     22  C   UNL     1       2.536   3.735  17.780  0.00  0.00    +0.000 A 
ATOM     23  C   UNL     1       1.972   4.995  17.967  0.00  0.00    +0.000 A 
ENDBRANCH  10  17
BRANCH   1  25
ATOM     24  C   UNL     1      -2.727  12.349  23.077  0.00  0.00    +0.000 C 
ATOM     25  C   UNL     1      -1.234  12.616  22.986  0.00  0.00    +0.000 C 
ENDBRANCH   1  25
TORSDOF 2
ENDMDL
MODEL 4
REMARK VINA RESULT:      -7.0      2.571      3.325
REMARK  Name = 
REMARK  3 active torsions:
REMARK  status: ('A' for Active; 'I' for Inactive)
REMARK    1  A    between atoms: C_1  and  C_2
REMARK    2  A    between atoms: C_2  and  N_3
REMARK    3  A    between atoms: N_12  and  C_13
REMARK                            x       y       z     vdW  Elec       q    Type
REMARK                         _______ _______ _______ _____ _____    ______ ____
ROOT
ATOM      1  N   UNL     1      -0.481  12.350  21.696  0.00  0.00    +0.000 N 
ATOM      2  C   UNL     1      -0.460  12.969  20.453  0.00  0.00    +0.000 A 
ATOM      3  S   UNL     1      -1.019  14.485  20.049  0.00  0.00    +0.000 S 
ATOM      4  S   UNL     1       0.283  11.878  19.257  0.00  0.00    +0.000 S 
ATOM      5  C   UNL     1       0.518  10.638  20.479  0.00  0.00    +0.000 A 
ATOM      6  C   UNL     1       1.053   9.376  20.418  0.00  0.00    +0.000 A 
ATOM      7  N   UNL     1       1.594   8.913  19.202  0.00  0.00    +0.000 N 
ATOM      8  C   UNL     1       2.240   7.728  18.960  0.00  0.00    +0.000 C 
ATOM      9  O   UNL     1       2.821   7.572  17.889  0.00  0.00    +0.000 OA
ATOM     10  N   UNL     1       2.120   6.781  19.938  0.00  0.00    +0.000 N 
ATOM     11  N   UNL     1       1.102   8.581  21.505  0.00  0.00    +0.000 NA
ATOM     12  C   UNL     1       0.665   9.095  22.665  0.00  0.00    +0.000 A 
ATOM     13  N   UNL     1       0.142  10.313  22.832  0.00  0.00    +0.000 NA
ATOM     14  C   UNL     1       0.072  11.050  21.716  0.00  0.00    +0.000 A 
ATOM     15  H   UNL     1       1.615   9.554  18.417  0.00  0.00    +0.000 HD
ATOM     16  H   UNL     1       1.354   6.944  20.581  0.00  0.00    +0.000 HD
ENDROOT
BRANCH  10  17
ATOM     17  C   UNL     1       2.751   5.536  19.988  0.00  0.00    +0.000 A 
ATOM     18  C   UNL     1       2.129   4.407  20.525  0.00  0.00    +0.000 A 
ATOM     19  C   UNL     1       2.776   3.171  20.469  0.00  0.00    +0.000 A 
ATOM     20  C   UNL     1       4.053   3.086  19.921  0.00  0.00    +0.000 A 
ATOM     21  F   UNL     1       4.681   1.904  19.887  0.00  0.00    +0.000 F 
ATOM     22  C   UNL     1       4.684   4.209  19.400  0.00  0.00    +0.000 A 
ATOM     23  C   UNL     1       4.017   5.432  19.406  0.00  0.00    +0.000 A 
ENDBRANCH  10  17
BRANCH   1  25
ATOM     24  C   UNL     1      -2.429  12.679  23.189  0.00  0.00    +0.000 C 
ATOM     25  C   UNL     1      -0.952  12.942  22.952  0.00  0.00    +0.000 C 
ENDBRANCH   1  25
TORSDOF 2
ENDMDL
MODEL 5
REMARK VINA RESULT:      -7.0      4.441      8.504
REMARK  Name = 
REMARK  3 active torsions:
REMARK  status: ('A' for Active; 'I' for Inactive)
REMARK    1  A    between atoms: C_1  and  C_2
REMARK    2  A    between atoms: C_2  and  N_3
REMARK    3  A    between atoms: N_12  and  C_13
REMARK                            x       y       z     vdW  Elec       q    Type
REMARK                         _______ _______ _______ _____ _____    ______ ____
ROOT
ATOM      1  N   UNL     1       4.076   4.163  18.435  0.00  0.00    +0.000 N 
ATOM      2  C   UNL     1       4.684   4.729  17.322  0.00  0.00    +0.000 A 
ATOM      3  S   UNL     1       5.732   4.011  16.246  0.00  0.00    +0.000 S 
ATOM      4  S   UNL     1       4.180   6.431  17.170  0.00  0.00    +0.000 S 
ATOM      5  C   UNL     1       3.188   6.305  18.615  0.00  0.00    +0.000 A 
ATOM      6  C   UNL     1       2.402   7.216  19.272  0.00  0.00    +0.000 A 
ATOM      7  N   UNL     1       2.252   8.512  18.739  0.00  0.00    +0.000 N 
ATOM      8  C   UNL     1       1.454   9.529  19.196  0.00  0.00    +0.000 C 
ATOM      9  O   UNL     1       1.295  10.526  18.496  0.00  0.00    +0.000 OA
ATOM     10  N   UNL     1       0.946   9.359  20.454  0.00  0.00    +0.000 N 
ATOM     11  N   UNL     1       1.744   6.890  20.402  0.00  0.00    +0.000 NA
ATOM     12  C   UNL     1       1.836   5.620  20.824  0.00  0.00    +0.000 A 
ATOM     13  N   UNL     1       2.560   4.656  20.248  0.00  0.00    +0.000 NA
ATOM     14  C   UNL     1       3.233   5.039  19.155  0.00  0.00    +0.000 A 
ATOM     15  H   UNL     1       2.695   8.714  17.849  0.00  0.00    +0.000 HD
ATOM     16  H   UNL     1       1.431   8.660  21.005  0.00  0.00    +0.000 HD
ENDROOT
BRANCH  10  17
ATOM     17  C   UNL     1       0.038  10.187  21.116  0.00  0.00    +0.000 A 
ATOM     18  C   UNL     1      -0.670  11.195  20.456  0.00  0.00    +0.000 A 
ATOM     19  C   UNL     1      -1.629  11.933  21.153  0.00  0.00    +0.000 A 
ATOM     20  C   UNL     1      -1.837  11.689  22.507  0.00  0.00    +0.000 A 
ATOM     21  F   UNL     1      -2.743  12.412  23.178  0.00  0.00    +0.000 F 
ATOM     22  C   UNL     1      -1.126  10.699  23.173  0.00  0.00    +0.000 A 
ATOM     23  C   UNL     1      -0.207   9.925  22.467  0.00  0.00    +0.000 A 
ENDBRANCH  10  17
BRANCH   1  25
ATOM     24  C   UNL     1       3.261   1.852  18.076  0.00  0.00    +0.000 C 
ATOM     25  C   UNL     1       4.183   2.766  18.865  0.00  0.00    +0.000 C 
ENDBRANCH   1  25
TORSDOF 2
ENDMDL
MODEL 6
REMARK VINA RESULT:      -6.9      4.441      8.494
REMARK  Name = 
REMARK  3 active torsions:
REMARK  status: ('A' for Active; 'I' for Inactive)
REMARK    1  A    between atoms: C_1  and  C_2
REMARK    2  A    between atoms: C_2  and  N_3
REMARK    3  A    between atoms: N_12  and  C_13
REMARK                            x       y       z     vdW  Elec       q    Type
REMARK                         _______ _______ _______ _____ _____    ______ ____
ROOT
ATOM      1  N   UNL     1       4.100   4.128  18.439  0.00  0.00    +0.000 N 
ATOM      2  C   UNL     1       4.700   4.715  17.332  0.00  0.00    +0.000 A 
ATOM      3  S   UNL     1       5.761   4.024  16.250  0.00  0.00    +0.000 S 
ATOM      4  S   UNL     1       4.170   6.410  17.197  0.00  0.00    +0.000 S 
ATOM      5  C   UNL     1       3.179   6.254  18.639  0.00  0.00    +0.000 A 
ATOM      6  C   UNL     1       2.378   7.146  19.305  0.00  0.00    +0.000 A 
ATOM      7  N   UNL     1       2.207   8.444  18.784  0.00  0.00    +0.000 N 
ATOM      8  C   UNL     1       1.393   9.444  19.251  0.00  0.00    +0.000 C 
ATOM      9  O   UNL     1       1.219  10.445  18.561  0.00  0.00    +0.000 OA
ATOM     10  N   UNL     1       0.887   9.253  20.507  0.00  0.00    +0.000 N 
ATOM     11  N   UNL     1       1.724   6.798  20.430  0.00  0.00    +0.000 NA
ATOM     12  C   UNL     1       1.836   5.525  20.840  0.00  0.00    +0.000 A 
ATOM     13  N   UNL     1       2.576   4.579  20.255  0.00  0.00    +0.000 NA
ATOM     14  C   UNL     1       3.244   4.983  19.167  0.00  0.00    +0.000 A 
ATOM     15  H   UNL     1       2.648   8.662  17.897  0.00  0.00    +0.000 HD
ATOM     16  H   UNL     1       1.383   8.557  21.052  0.00  0.00    +0.000 HD
ENDROOT
BRANCH  10  17
ATOM     17  C   UNL     1      -0.035  10.060  21.176  0.00  0.00    +0.000 A 
ATOM     18  C   UNL     1      -0.313   9.905  22.536  0.00  0.00    +0.000 A 
ATOM     19  C   UNL     1      -1.180  10.797  23.169  0.00  0.00    +0.000 A 
ATOM     20  C   UNL     1      -1.793  11.804  22.429  0.00  0.00    +0.000 A 
ATOM     21  F   UNL     1      -2.641  12.647  23.034  0.00  0.00    +0.000 F 
ATOM     22  C   UNL     1      -1.534  11.955  21.073  0.00  0.00    +0.000 A 
ATOM     23  C   UNL     1      -0.627  11.099  20.451  0.00  0.00    +0.000 A 
ENDBRANCH  10  17
BRANCH   1  25
ATOM     24  C   UNL     1       3.299   1.813  18.077  0.00  0.00    +0.000 C 
ATOM     25  C   UNL     1       4.229   2.728  18.855  0.00  0.00    +0.000 C 
ENDBRANCH   1  25
TORSDOF 2
ENDMDL
MODEL 7
REMARK VINA RESULT:      -6.9      2.503      3.071
REMARK  Name = 
REMARK  3 active torsions:
REMARK  status: ('A' for Active; 'I' for Inactive)
REMARK    1  A    between atoms: C_1  and  C_2
REMARK    2  A    between atoms: C_2  and  N_3
REMARK    3  A    between atoms: N_12  and  C_13
REMARK                            x       y       z     vdW  Elec       q    Type
REMARK                         _______ _______ _______ _____ _____    ______ ____
ROOT
ATOM      1  N   UNL     1      -0.329  12.582  21.524  0.00  0.00    +0.000 N 
ATOM      2  C   UNL     1      -0.257  13.385  20.393  0.00  0.00    +0.000 A 
ATOM      3  S   UNL     1      -0.730  14.973  20.228  0.00  0.00    +0.000 S 
ATOM      4  S   UNL     1       0.444  12.455  19.046  0.00  0.00    +0.000 S 
ATOM      5  C   UNL     1       0.596  11.029  20.060  0.00  0.00    +0.000 A 
ATOM      6  C   UNL     1       1.064   9.765  19.806  0.00  0.00    +0.000 A 
ATOM      7  N   UNL     1       1.597   9.468  18.535  0.00  0.00    +0.000 N 
ATOM      8  C   UNL     1       2.183   8.302  18.114  0.00  0.00    +0.000 C 
ATOM      9  O   UNL     1       2.771   8.284  17.036  0.00  0.00    +0.000 OA
ATOM     10  N   UNL     1       1.999   7.222  18.931  0.00  0.00    +0.000 N 
ATOM     11  N   UNL     1       1.055   8.809  20.755  0.00  0.00    +0.000 NA
ATOM     12  C   UNL     1       0.629   9.158  21.978  0.00  0.00    +0.000 A 
ATOM     13  N   UNL     1       0.170  10.362  22.331  0.00  0.00    +0.000 NA
ATOM     14  C   UNL     1       0.154  11.267  21.343  0.00  0.00    +0.000 A 
ATOM     15  H   UNL     1       1.663  10.222  17.860  0.00  0.00    +0.000 HD
ATOM     16  H   UNL     1       1.234   7.325  19.588  0.00  0.00    +0.000 HD
ENDROOT
BRANCH  10  17
ATOM     17  C   UNL     1       2.562   5.952  18.790  0.00  0.00    +0.000 A 
ATOM     18  C   UNL     1       1.967   4.954  18.015  0.00  0.00    +0.000 A 
ATOM     19  C   UNL     1       2.622   3.733  17.842  0.00  0.00    +0.000 A 
ATOM     20  C   UNL     1       3.838   3.506  18.479  0.00  0.00    +0.000 A 
ATOM     21  F   UNL     1       4.454   2.327  18.329  0.00  0.00    +0.000 F 
ATOM     22  C   UNL     1       4.428   4.489  19.265  0.00  0.00    +0.000 A 
ATOM     23  C   UNL     1       3.803   5.727  19.395  0.00  0.00    +0.000 A 
ENDBRANCH  10  17
BRANCH   1  25
ATOM     24  C   UNL     1      -2.281  12.795  23.032  0.00  0.00    +0.000 C 
ATOM     25  C   UNL     1      -0.785  12.995  22.854  0.00  0.00    +0.000 C 
ENDBRANCH   1  25
TORSDOF 2
ENDMDL
MODEL 8
REMARK VINA RESULT:      -6.9      4.066      8.092
REMARK  Name = 
REMARK  3 active torsions:
REMARK  status: ('A' for Active; 'I' for Inactive)
REMARK    1  A    between atoms: C_1  and  C_2
REMARK    2  A    between atoms: C_2  and  N_3
REMARK    3  A    between atoms: N_12  and  C_13
REMARK                            x       y       z     vdW  Elec       q    Type
REMARK                         _______ _______ _______ _____ _____    ______ ____
ROOT
ATOM      1  N   UNL     1       4.087   4.548  18.410  0.00  0.00    +0.000 N 
ATOM      2  C   UNL     1       3.788   3.737  19.497  0.00  0.00    +0.000 A 
ATOM      3  S   UNL     1       4.273   2.168  19.775  0.00  0.00    +0.000 S 
ATOM      4  S   UNL     1       2.749   4.629  20.637  0.00  0.00    +0.000 S 
ATOM      5  C   UNL     1       2.755   6.043  19.595  0.00  0.00    +0.000 A 
ATOM      6  C   UNL     1       2.156   7.271  19.708  0.00  0.00    +0.000 A 
ATOM      7  N   UNL     1       1.419   7.576  20.870  0.00  0.00    +0.000 N 
ATOM      8  C   UNL     1       0.821   8.763  21.206  0.00  0.00    +0.000 C 
ATOM      9  O   UNL     1       0.387   8.913  22.346  0.00  0.00    +0.000 OA
ATOM     10  N   UNL     1       0.703   9.672  20.192  0.00  0.00    +0.000 N 
ATOM     11  N   UNL     1       2.285   8.207  18.747  0.00  0.00    +0.000 NA
ATOM     12  C   UNL     1       3.074   7.912  17.703  0.00  0.00    +0.000 A 
ATOM     13  N   UNL     1       3.712   6.755  17.507  0.00  0.00    +0.000 NA
ATOM     14  C   UNL     1       3.518   5.840  18.466  0.00  0.00    +0.000 A 
ATOM     15  H   UNL     1       1.397   6.886  21.614  0.00  0.00    +0.000 HD
ATOM     16  H   UNL     1       0.805   9.274  19.266  0.00  0.00    +0.000 HD
ENDROOT
BRANCH  10  17
ATOM     17  C   UNL     1       0.227  10.981  20.283  0.00  0.00    +0.000 A 
ATOM     18  C   UNL     1       1.027  12.036  20.727  0.00  0.00    +0.000 A 
ATOM     19  C   UNL     1       0.521  13.337  20.715  0.00  0.00    +0.000 A 
ATOM     20  C   UNL     1      -0.789  13.564  20.303  0.00  0.00    +0.000 A 
ATOM     21  F   UNL     1      -1.279  14.810  20.311  0.00  0.00    +0.000 F 
ATOM     22  C   UNL     1      -1.596  12.517  19.875  0.00  0.00    +0.000 A 
ATOM     23  C   UNL     1      -1.075  11.225  19.836  0.00  0.00    +0.000 A 
ENDBRANCH  10  17
BRANCH   1  25
ATOM     24  C   UNL     1       6.416   4.557  17.570  0.00  0.00    +0.000 C 
ATOM     25  C   UNL     1       4.965   4.205  17.288  0.00  0.00    +0.000 C 
ENDBRANCH   1  25
TORSDOF 2
ENDMDL
MODEL 9
REMARK VINA RESULT:      -6.8      4.103      8.078
REMARK  Name = 
REMARK  3 active torsions:
REMARK  status: ('A' for Active; 'I' for Inactive)
REMARK    1  A    between atoms: C_1  and  C_2
REMARK    2  A    between atoms: C_2  and  N_3
REMARK    3  A    between atoms: N_12  and  C_13
REMARK                            x       y       z     vdW  Elec       q    Type
REMARK                         _______ _______ _______ _____ _____    ______ ____
ROOT
ATOM      1  N   UNL     1       3.975   4.622  18.408  0.00  0.00    +0.000 N 
ATOM      2  C   UNL     1       3.696   3.808  19.499  0.00  0.00    +0.000 A 
ATOM      3  S   UNL     1       4.173   2.233  19.755  0.00  0.00    +0.000 S 
ATOM      4  S   UNL     1       2.697   4.704  20.670  0.00  0.00    +0.000 S 
ATOM      5  C   UNL     1       2.691   6.124  19.636  0.00  0.00    +0.000 A 
ATOM      6  C   UNL     1       2.108   7.357  19.771  0.00  0.00    +0.000 A 
ATOM      7  N   UNL     1       1.404   7.663  20.953  0.00  0.00    +0.000 N 
ATOM      8  C   UNL     1       0.827   8.855  21.311  0.00  0.00    +0.000 C 
ATOM      9  O   UNL     1       0.425   9.003  22.462  0.00  0.00    +0.000 OA
ATOM     10  N   UNL     1       0.693   9.770  20.304  0.00  0.00    +0.000 N 
ATOM     11  N   UNL     1       2.221   8.297  18.811  0.00  0.00    +0.000 NA
ATOM     12  C   UNL     1       2.979   8.000  17.745  0.00  0.00    +0.000 A 
ATOM     13  N   UNL     1       3.600   6.837  17.527  0.00  0.00    +0.000 NA
ATOM     14  C   UNL     1       3.421   5.919  18.485  0.00  0.00    +0.000 A 
ATOM     15  H   UNL     1       1.395   6.970  21.693  0.00  0.00    +0.000 HD
ATOM     16  H   UNL     1       0.767   9.376  19.374  0.00  0.00    +0.000 HD
ENDROOT
BRANCH  10  17
ATOM     17  C   UNL     1       0.233  11.083  20.415  0.00  0.00    +0.000 A 
ATOM     18  C   UNL     1      -1.115  11.416  20.262  0.00  0.00    +0.000 A 
ATOM     19  C   UNL     1      -1.528  12.734  20.469  0.00  0.00    +0.000 A 
ATOM     20  C   UNL     1      -0.586  13.710  20.782  0.00  0.00    +0.000 A 
ATOM     21  F   UNL     1      -0.981  14.977  20.960  0.00  0.00    +0.000 F 
ATOM     22  C   UNL     1       0.759  13.389  20.919  0.00  0.00    +0.000 A 
ATOM     23  C   UNL     1       1.164  12.065  20.766  0.00  0.00    +0.000 A 
ENDBRANCH  10  17
BRANCH   1  25
ATOM     24  C   UNL     1       6.293   4.527  17.541  0.00  0.00    +0.000 C 
ATOM     25  C   UNL     1       4.821   4.276  17.262  0.00  0.00    +0.000 C 
ENDBRANCH   1  25
TORSDOF 2
ENDMDL
