MODEL 1
REMARK VINA RESULT:      -7.5      0.000      0.000
REMARK  Name = 
REMARK  5 active torsions:
REMARK  status: ('A' for Active; 'I' for Inactive)
REMARK    1  A    between atoms: C_1  and  C_2
REMARK    2  A    between atoms: C_2  and  C_17
REMARK    3  A    between atoms: N_3  and  N_4
REMARK    4  A    between atoms: C_7  and  C_8
REMARK    5  A    between atoms: C_11  and  C_12
REMARK                            x       y       z     vdW  Elec       q    Type
REMARK                         _______ _______ _______ _____ _____    ______ ____
ROOT
ATOM      1  N   UNL     1       8.330   8.794  18.239  0.00  0.00    +0.000 N 
ATOM      2  C   UNL     1       7.940   7.536  17.891  0.00  0.00    +0.000 A 
ATOM      3  N   UNL     1       7.582   7.133  16.690  0.00  0.00    +0.000 NA
ATOM      4  C   UNL     1       7.242   5.789  16.703  0.00  0.00    +0.000 A 
ATOM      5  C   UNL     1       7.382   5.172  17.931  0.00  0.00    +0.000 A 
ATOM      6  S   UNL     1       7.952   6.293  19.090  0.00  0.00    +0.000 S 
ATOM      7  H   UNL     1       8.521   8.919  19.231  0.00  0.00    +0.000 HD
ENDROOT
BRANCH   4   8
ATOM      8  C   UNL     1       6.805   5.100  15.494  0.00  0.00    +0.000 A 
ATOM      9  C   UNL     1       5.635   4.331  15.515  0.00  0.00    +0.000 A 
ATOM     10  C   UNL     1       5.192   3.672  14.362  0.00  0.00    +0.000 A 
ATOM     11  C   UNL     1       5.918   3.764  13.171  0.00  0.00    +0.000 A 
ATOM     12  C   UNL     1       5.467   3.051  11.930  0.00  0.00    +0.000 C 
ATOM     13  C   UNL     1       7.095   4.520  13.149  0.00  0.00    +0.000 A 
ATOM     14  C   UNL     1       7.535   5.183  14.299  0.00  0.00    +0.000 A 
ENDBRANCH   4   8
BRANCH   1  17
ATOM     15  C   UNL     1       7.758  12.258  17.219  0.00  0.00    +0.000 C 
ATOM     16  C   UNL     1       8.433  11.052  17.847  0.00  0.00    +0.000 C 
ATOM     17  N   UNL     1       7.882   9.902  17.586  0.00  0.00    +0.000 NA
BRANCH  16  18
ATOM     18  C   UNL     1       9.655  11.307  18.678  0.00  0.00    +0.000 A 
ATOM     19  C   UNL     1       9.546  11.544  20.049  0.00  0.00    +0.000 A 
ATOM     20  C   UNL     1      10.706  11.774  20.771  0.00  0.00    +0.000 A 
ATOM     21  N   UNL     1      11.940  11.777  20.228  0.00  0.00    +0.000 NA
ATOM     22  C   UNL     1      12.020  11.572  18.898  0.00  0.00    +0.000 A 
ATOM     23  C   UNL     1      10.920  11.354  18.088  0.00  0.00    +0.000 A 
ENDBRANCH  16  18
ENDBRANCH   1  17
TORSDOF 3
ENDMDL
MODEL 2
REMARK VINA RESULT:      -7.5      5.239      8.114
REMARK  Name = 
REMARK  5 active torsions:
REMARK  status: ('A' for Active; 'I' for Inactive)
REMARK    1  A    between atoms: C_1  and  C_2
REMARK    2  A    between atoms: C_2  and  C_17
REMARK    3  A    between atoms: N_3  and  N_4
REMARK    4  A    between atoms: C_7  and  C_8
REMARK    5  A    between atoms: C_11  and  C_12
REMARK                            x       y       z     vdW  Elec       q    Type
REMARK                         _______ _______ _______ _____ _____    ______ ____
ROOT
ATOM      1  N   UNL     1       5.147   4.086  19.469  0.00  0.00    +0.000 N 
ATOM      2  C   UNL     1       3.923   4.635  19.705  0.00  0.00    +0.000 A 
ATOM      3  N   UNL     1       3.624   5.917  19.685  0.00  0.00    +0.000 NA
ATOM      4  C   UNL     1       2.283   6.115  19.976  0.00  0.00    +0.000 A 
ATOM      5  C   UNL     1       1.562   4.956  20.183  0.00  0.00    +0.000 A 
ATOM      6  S   UNL     1       2.580   3.592  20.008  0.00  0.00    +0.000 S 
ATOM      7  H   UNL     1       5.185   3.075  19.580  0.00  0.00    +0.000 HD
ENDROOT
BRANCH   4   8
ATOM      8  C   UNL     1       1.701   7.452  20.020  0.00  0.00    +0.000 A 
ATOM      9  C   UNL     1       1.801   8.292  18.904  0.00  0.00    +0.000 A 
ATOM     10  C   UNL     1       1.239   9.574  18.922  0.00  0.00    +0.000 A 
ATOM     11  C   UNL     1       0.575  10.040  20.061  0.00  0.00    +0.000 A 
ATOM     12  C   UNL     1      -0.019  11.417  20.103  0.00  0.00    +0.000 C 
ATOM     13  C   UNL     1       0.485   9.210  21.183  0.00  0.00    +0.000 A 
ATOM     14  C   UNL     1       1.042   7.927  21.164  0.00  0.00    +0.000 A 
ENDBRANCH   4   8
BRANCH   1  17
ATOM     15  C   UNL     1       8.341   5.826  19.114  0.00  0.00    +0.000 C 
ATOM     16  C   UNL     1       6.977   5.269  18.753  0.00  0.00    +0.000 C 
ATOM     17  N   UNL     1       6.306   4.747  19.739  0.00  0.00    +0.000 NA
BRANCH  16  18
ATOM     18  C   UNL     1       6.544   5.390  17.322  0.00  0.00    +0.000 A 
ATOM     19  C   UNL     1       7.037   4.514  16.355  0.00  0.00    +0.000 A 
ATOM     20  C   UNL     1       6.606   4.667  15.047  0.00  0.00    +0.000 A 
ATOM     21  N   UNL     1       5.730   5.614  14.652  0.00  0.00    +0.000 NA
ATOM     22  C   UNL     1       5.286   6.465  15.598  0.00  0.00    +0.000 A 
ATOM     23  C   UNL     1       5.673   6.406  16.925  0.00  0.00    +0.000 A 
ENDBRANCH  16  18
ENDBRANCH   1  17
TORSDOF 3
ENDMDL
MODEL 3
REMARK VINA RESULT:      -7.5      0.103      1.031
REMARK  Name = 
REMARK  5 active torsions:
REMARK  status: ('A' for Active; 'I' for Inactive)
REMARK    1  A    between atoms: C_1  and  C_2
REMARK    2  A    between atoms: C_2  and  C_17
REMARK    3  A    between atoms: N_3  and  N_4
REMARK    4  A    between atoms: C_7  and  C_8
REMARK    5  A    between atoms: C_11  and  C_12
REMARK                            x       y       z     vdW  Elec       q    Type
REMARK                         _______ _______ _______ _____ _____    ______ ____
ROOT
ATOM      1  N   UNL     1       8.363   8.858  18.265  0.00  0.00    +0.000 N 
ATOM      2  C   UNL     1       7.954   7.604  17.926  0.00  0.00    +0.000 A 
ATOM      3  N   UNL     1       7.570   7.202  16.732  0.00  0.00    +0.000 NA
ATOM      4  C   UNL     1       7.215   5.863  16.754  0.00  0.00    +0.000 A 
ATOM      5  C   UNL     1       7.370   5.246  17.980  0.00  0.00    +0.000 A 
ATOM      6  S   UNL     1       7.973   6.363  19.127  0.00  0.00    +0.000 S 
ATOM      7  H   UNL     1       8.573   8.983  19.253  0.00  0.00    +0.000 HD
ENDROOT
BRANCH   4   8
ATOM      8  C   UNL     1       6.750   5.177  15.553  0.00  0.00    +0.000 A 
ATOM      9  C   UNL     1       7.537   5.191  14.395  0.00  0.00    +0.000 A 
ATOM     10  C   UNL     1       7.115   4.528  13.236  0.00  0.00    +0.000 A 
ATOM     11  C   UNL     1       5.893   3.849  13.215  0.00  0.00    +0.000 A 
ATOM     12  C   UNL     1       5.417   3.147  11.977  0.00  0.00    +0.000 C 
ATOM     13  C   UNL     1       5.098   3.844  14.365  0.00  0.00    +0.000 A 
ATOM     14  C   UNL     1       5.521   4.501  15.524  0.00  0.00    +0.000 A 
ENDBRANCH   4   8
BRANCH   1  17
ATOM     15  C   UNL     1       7.802  12.327  17.257  0.00  0.00    +0.000 C 
ATOM     16  C   UNL     1       8.475  11.116  17.877  0.00  0.00    +0.000 C 
ATOM     17  N   UNL     1       7.915   9.970  17.618  0.00  0.00    +0.000 NA
BRANCH  16  18
ATOM     18  C   UNL     1       9.705  11.363  18.699  0.00  0.00    +0.000 A 
ATOM     19  C   UNL     1       9.606  11.622  20.067  0.00  0.00    +0.000 A 
ATOM     20  C   UNL     1      10.772  11.843  20.781  0.00  0.00    +0.000 A 
ATOM     21  N   UNL     1      12.004  11.817  20.232  0.00  0.00    +0.000 NA
ATOM     22  C   UNL     1      12.075  11.591  18.905  0.00  0.00    +0.000 A 
ATOM     23  C   UNL     1      10.968  11.379  18.103  0.00  0.00    +0.000 A 
ENDBRANCH  16  18
ENDBRANCH   1  17
TORSDOF 3
ENDMDL
MODEL 4
REMARK VINA RESULT:      -7.5      5.247      8.078
REMARK  Name = 
REMARK  5 active torsions:
REMARK  status: ('A' for Active; 'I' for Inactive)
REMARK    1  A    between atoms: C_1  and  C_2
REMARK    2  A    between atoms: C_2  and  C_17
REMARK    3  A    between atoms: N_3  and  N_4
REMARK    4  A    between atoms: C_7  and  C_8
REMARK    5  A    between atoms: C_11  and  C_12
REMARK                            x       y       z     vdW  Elec       q    Type
REMARK                         _______ _______ _______ _____ _____    ______ ____
ROOT
ATOM      1  N   UNL     1       5.148   4.114  19.462  0.00  0.00    +0.000 N 
ATOM      2  C   UNL     1       3.924   4.662  19.699  0.00  0.00    +0.000 A 
ATOM      3  N   UNL     1       3.623   5.944  19.675  0.00  0.00    +0.000 NA
ATOM      4  C   UNL     1       2.283   6.142  19.969  0.00  0.00    +0.000 A 
ATOM      5  C   UNL     1       1.564   4.982  20.182  0.00  0.00    +0.000 A 
ATOM      6  S   UNL     1       2.583   3.618  20.009  0.00  0.00    +0.000 S 
ATOM      7  H   UNL     1       5.188   3.104  19.576  0.00  0.00    +0.000 HD
ENDROOT
BRANCH   4   8
ATOM      8  C   UNL     1       1.699   7.478  20.010  0.00  0.00    +0.000 A 
ATOM      9  C   UNL     1       1.058   7.921  21.173  0.00  0.00    +0.000 A 
ATOM     10  C   UNL     1       0.502   9.204  21.238  0.00  0.00    +0.000 A 
ATOM     11  C   UNL     1       0.570  10.062  20.135  0.00  0.00    +0.000 A 
ATOM     12  C   UNL     1      -0.035  11.434  20.181  0.00  0.00    +0.000 C 
ATOM     13  C   UNL     1       1.197   9.617  18.967  0.00  0.00    +0.000 A 
ATOM     14  C   UNL     1       1.757   8.338  18.904  0.00  0.00    +0.000 A 
ENDBRANCH   4   8
BRANCH   1  17
ATOM     15  C   UNL     1       8.344   5.849  19.093  0.00  0.00    +0.000 C 
ATOM     16  C   UNL     1       6.980   5.288  18.736  0.00  0.00    +0.000 C 
ATOM     17  N   UNL     1       6.307   4.779  19.727  0.00  0.00    +0.000 NA
BRANCH  16  18
ATOM     18  C   UNL     1       6.551   5.391  17.303  0.00  0.00    +0.000 A 
ATOM     19  C   UNL     1       7.036   4.494  16.349  0.00  0.00    +0.000 A 
ATOM     20  C   UNL     1       6.608   4.632  15.039  0.00  0.00    +0.000 A 
ATOM     21  N   UNL     1       5.744   5.582  14.628  0.00  0.00    +0.000 NA
ATOM     22  C   UNL     1       5.308   6.453  15.560  0.00  0.00    +0.000 A 
ATOM     23  C   UNL     1       5.693   6.411  16.888  0.00  0.00    +0.000 A 
ENDBRANCH  16  18
ENDBRANCH   1  17
TORSDOF 3
ENDMDL
MODEL 5
REMARK VINA RESULT:      -7.5      0.088      1.438
REMARK  Name = 
REMARK  5 active torsions:
REMARK  status: ('A' for Active; 'I' for Inactive)
REMARK    1  A    between atoms: C_1  and  C_2
REMARK    2  A    between atoms: C_2  and  C_17
REMARK    3  A    between atoms: N_3  and  N_4
REMARK    4  A    between atoms: C_7  and  C_8
REMARK    5  A    between atoms: C_11  and  C_12
REMARK                            x       y       z     vdW  Elec       q    Type
REMARK                         _______ _______ _______ _____ _____    ______ ____
ROOT
ATOM      1  N   UNL     1       8.334   8.841  18.240  0.00  0.00    +0.000 N 
ATOM      2  C   UNL     1       7.953   7.578  17.902  0.00  0.00    +0.000 A 
ATOM      3  N   UNL     1       7.582   7.166  16.708  0.00  0.00    +0.000 NA
ATOM      4  C   UNL     1       7.257   5.818  16.730  0.00  0.00    +0.000 A 
ATOM      5  C   UNL     1       7.422   5.207  17.958  0.00  0.00    +0.000 A 
ATOM      6  S   UNL     1       7.996   6.339  19.105  0.00  0.00    +0.000 S 
ATOM      7  H   UNL     1       8.538   8.971  19.229  0.00  0.00    +0.000 HD
ENDROOT
BRANCH   4   8
ATOM      8  C   UNL     1       6.810   5.121  15.529  0.00  0.00    +0.000 A 
ATOM      9  C   UNL     1       7.541   5.245  14.341  0.00  0.00    +0.000 A 
ATOM     10  C   UNL     1       7.137   4.573  13.181  0.00  0.00    +0.000 A 
ATOM     11  C   UNL     1       5.989   3.774  13.188  0.00  0.00    +0.000 A 
ATOM     12  C   UNL     1       5.532   3.061  11.950  0.00  0.00    +0.000 C 
ATOM     13  C   UNL     1       5.250   3.659  14.370  0.00  0.00    +0.000 A 
ATOM     14  C   UNL     1       5.656   4.325  15.530  0.00  0.00    +0.000 A 
ENDBRANCH   4   8
BRANCH   1  17
ATOM     15  C   UNL     1       7.728  12.293  17.201  0.00  0.00    +0.000 C 
ATOM     16  C   UNL     1       8.423  11.094  17.819  0.00  0.00    +0.000 C 
ATOM     17  N   UNL     1       7.863   9.941  17.590  0.00  0.00    +0.000 NA
BRANCH  16  18
ATOM     18  C   UNL     1       9.672  11.358  18.606  0.00  0.00    +0.000 A 
ATOM     19  C   UNL     1      10.914  11.417  17.971  0.00  0.00    +0.000 A 
ATOM     20  C   UNL     1      12.037  11.664  18.743  0.00  0.00    +0.000 A 
ATOM     21  N   UNL     1      12.003  11.857  20.077  0.00  0.00    +0.000 NA
ATOM     22  C   UNL     1      10.797  11.770  20.674  0.00  0.00    +0.000 A 
ATOM     23  C   UNL     1       9.622  11.508  19.993  0.00  0.00    +0.000 A 
ENDBRANCH  16  18
ENDBRANCH   1  17
TORSDOF 3
ENDMDL
MODEL 6
REMARK VINA RESULT:      -7.4      5.275      8.110
REMARK  Name = 
REMARK  5 active torsions:
REMARK  status: ('A' for Active; 'I' for Inactive)
REMARK    1  A    between atoms: C_1  and  C_2
REMARK    2  A    between atoms: C_2  and  C_17
REMARK    3  A    between atoms: N_3  and  N_4
REMARK    4  A    between atoms: C_7  and  C_8
REMARK    5  A    between atoms: C_11  and  C_12
REMARK                            x       y       z     vdW  Elec       q    Type
REMARK                         _______ _______ _______ _____ _____    ______ ____
ROOT
ATOM      1  N   UNL     1       5.161   4.115  19.465  0.00  0.00    +0.000 N 
ATOM      2  C   UNL     1       3.932   4.642  19.720  0.00  0.00    +0.000 A 
ATOM      3  N   UNL     1       3.615   5.920  19.721  0.00  0.00    +0.000 NA
ATOM      4  C   UNL     1       2.274   6.095  20.028  0.00  0.00    +0.000 A 
ATOM      5  C   UNL     1       1.572   4.922  20.225  0.00  0.00    +0.000 A 
ATOM      6  S   UNL     1       2.607   3.575  20.021  0.00  0.00    +0.000 S 
ATOM      7  H   UNL     1       5.216   3.103  19.561  0.00  0.00    +0.000 HD
ENDROOT
BRANCH   4   8
ATOM      8  C   UNL     1       1.673   7.422  20.097  0.00  0.00    +0.000 A 
ATOM      9  C   UNL     1       1.764   8.285  18.998  0.00  0.00    +0.000 A 
ATOM     10  C   UNL     1       1.184   9.558  19.039  0.00  0.00    +0.000 A 
ATOM     11  C   UNL     1       0.510   9.993  20.185  0.00  0.00    +0.000 A 
ATOM     12  C   UNL     1      -0.104  11.360  20.253  0.00  0.00    +0.000 C 
ATOM     13  C   UNL     1       0.428   9.138  21.290  0.00  0.00    +0.000 A 
ATOM     14  C   UNL     1       1.004   7.865  21.247  0.00  0.00    +0.000 A 
ENDBRANCH   4   8
BRANCH   1  17
ATOM     15  C   UNL     1       8.347   5.872  19.106  0.00  0.00    +0.000 C 
ATOM     16  C   UNL     1       6.989   5.299  18.744  0.00  0.00    +0.000 C 
ATOM     17  N   UNL     1       6.313   4.789  19.733  0.00  0.00    +0.000 NA
BRANCH  16  18
ATOM     18  C   UNL     1       6.569   5.390  17.308  0.00  0.00    +0.000 A 
ATOM     19  C   UNL     1       5.667   6.370  16.892  0.00  0.00    +0.000 A 
ATOM     20  C   UNL     1       5.311   6.412  15.553  0.00  0.00    +0.000 A 
ATOM     21  N   UNL     1       5.790   5.562  14.623  0.00  0.00    +0.000 NA
ATOM     22  C   UNL     1       6.641   4.607  15.051  0.00  0.00    +0.000 A 
ATOM     23  C   UNL     1       7.040   4.471  16.368  0.00  0.00    +0.000 A 
ENDBRANCH  16  18
ENDBRANCH   1  17
TORSDOF 3
ENDMDL
MODEL 7
REMARK VINA RESULT:      -7.4      5.239      8.039
REMARK  Name = 
REMARK  5 active torsions:
REMARK  status: ('A' for Active; 'I' for Inactive)
REMARK    1  A    between atoms: C_1  and  C_2
REMARK    2  A    between atoms: C_2  and  C_17
REMARK    3  A    between atoms: N_3  and  N_4
REMARK    4  A    between atoms: C_7  and  C_8
REMARK    5  A    between atoms: C_11  and  C_12
REMARK                            x       y       z     vdW  Elec       q    Type
REMARK                         _______ _______ _______ _____ _____    ______ ____
ROOT
ATOM      1  N   UNL     1       5.150   4.108  19.464  0.00  0.00    +0.000 N 
ATOM      2  C   UNL     1       3.926   4.659  19.695  0.00  0.00    +0.000 A 
ATOM      3  N   UNL     1       3.629   5.942  19.672  0.00  0.00    +0.000 NA
ATOM      4  C   UNL     1       2.288   6.142  19.960  0.00  0.00    +0.000 A 
ATOM      5  C   UNL     1       1.565   4.983  20.167  0.00  0.00    +0.000 A 
ATOM      6  S   UNL     1       2.581   3.618  19.996  0.00  0.00    +0.000 S 
ATOM      7  H   UNL     1       5.187   3.097  19.576  0.00  0.00    +0.000 HD
ENDROOT
BRANCH   4   8
ATOM      8  C   UNL     1       1.707   7.480  20.000  0.00  0.00    +0.000 A 
ATOM      9  C   UNL     1       1.069   7.926  21.164  0.00  0.00    +0.000 A 
ATOM     10  C   UNL     1       0.517   9.210  21.229  0.00  0.00    +0.000 A 
ATOM     11  C   UNL     1       0.585  10.066  20.125  0.00  0.00    +0.000 A 
ATOM     12  C   UNL     1      -0.017  11.440  20.170  0.00  0.00    +0.000 C 
ATOM     13  C   UNL     1       1.209   9.620  18.956  0.00  0.00    +0.000 A 
ATOM     14  C   UNL     1       1.766   8.338  18.893  0.00  0.00    +0.000 A 
ENDBRANCH   4   8
BRANCH   1  17
ATOM     15  C   UNL     1       8.353   5.835  19.113  0.00  0.00    +0.000 C 
ATOM     16  C   UNL     1       6.989   5.278  18.749  0.00  0.00    +0.000 C 
ATOM     17  N   UNL     1       6.309   4.769  19.735  0.00  0.00    +0.000 NA
BRANCH  16  18
ATOM     18  C   UNL     1       6.568   5.384  17.313  0.00  0.00    +0.000 A 
ATOM     19  C   UNL     1       5.670   6.372  16.907  0.00  0.00    +0.000 A 
ATOM     20  C   UNL     1       5.313   6.427  15.569  0.00  0.00    +0.000 A 
ATOM     21  N   UNL     1       5.788   5.583  14.631  0.00  0.00    +0.000 NA
ATOM     22  C   UNL     1       6.635   4.621  15.049  0.00  0.00    +0.000 A 
ATOM     23  C   UNL     1       7.034   4.471  16.366  0.00  0.00    +0.000 A 
ENDBRANCH  16  18
ENDBRANCH   1  17
TORSDOF 3
ENDMDL
MODEL 8
REMARK VINA RESULT:      -7.2      7.433     10.439
REMARK  Name = 
REMARK  5 active torsions:
REMARK  status: ('A' for Active; 'I' for Inactive)
REMARK    1  A    between atoms: C_1  and  C_2
REMARK    2  A    between atoms: C_2  and  C_17
REMARK    3  A    between atoms: N_3  and  N_4
REMARK    4  A    between atoms: C_7  and  C_8
REMARK    5  A    between atoms: C_11  and  C_12
REMARK                            x       y       z     vdW  Elec       q    Type
REMARK                         _______ _______ _______ _____ _____    ______ ____
ROOT
ATOM      1  N   UNL     1       2.617   7.204  19.263  0.00  0.00    +0.000 N 
ATOM      2  C   UNL     1       1.866   8.340  19.275  0.00  0.00    +0.000 A 
ATOM      3  N   UNL     1       1.126   8.777  20.273  0.00  0.00    +0.000 NA
ATOM      4  C   UNL     1       0.493   9.962  19.935  0.00  0.00    +0.000 A 
ATOM      5  C   UNL     1       0.794  10.435  18.672  0.00  0.00    +0.000 A 
ATOM      6  S   UNL     1       1.891   9.377  17.895  0.00  0.00    +0.000 S 
ATOM      7  H   UNL     1       3.080   7.013  18.377  0.00  0.00    +0.000 HD
ENDROOT
BRANCH   4   8
ATOM      8  C   UNL     1      -0.389  10.651  20.871  0.00  0.00    +0.000 A 
ATOM      9  C   UNL     1      -0.423  10.257  22.214  0.00  0.00    +0.000 A 
ATOM     10  C   UNL     1      -1.253  10.912  23.131  0.00  0.00    +0.000 A 
ATOM     11  C   UNL     1      -2.071  11.968  22.716  0.00  0.00    +0.000 A 
ATOM     12  C   UNL     1      -2.979  12.671  23.681  0.00  0.00    +0.000 C 
ATOM     13  C   UNL     1      -2.051  12.356  21.372  0.00  0.00    +0.000 A 
ATOM     14  C   UNL     1      -1.218  11.704  20.457  0.00  0.00    +0.000 A 
ENDBRANCH   4   8
BRANCH   1  17
ATOM     15  C   UNL     1       2.286   3.761  20.446  0.00  0.00    +0.000 C 
ATOM     16  C   UNL     1       2.836   4.963  19.701  0.00  0.00    +0.000 C 
ATOM     17  N   UNL     1       2.291   6.107  20.000  0.00  0.00    +0.000 NA
BRANCH  16  18
ATOM     18  C   UNL     1       3.944   4.712  18.722  0.00  0.00    +0.000 A 
ATOM     19  C   UNL     1       3.664   4.260  17.432  0.00  0.00    +0.000 A 
ATOM     20  C   UNL     1       4.724   4.044  16.565  0.00  0.00    +0.000 A 
ATOM     21  N   UNL     1       6.015   4.251  16.894  0.00  0.00    +0.000 NA
ATOM     22  C   UNL     1       6.265   4.663  18.153  0.00  0.00    +0.000 A 
ATOM     23  C   UNL     1       5.278   4.886  19.096  0.00  0.00    +0.000 A 
ENDBRANCH  16  18
ENDBRANCH   1  17
TORSDOF 3
ENDMDL
MODEL 9
REMARK VINA RESULT:      -7.2      7.453     10.471
REMARK  Name = 
REMARK  5 active torsions:
REMARK  status: ('A' for Active; 'I' for Inactive)
REMARK    1  A    between atoms: C_1  and  C_2
REMARK    2  A    between atoms: C_2  and  C_17
REMARK    3  A    between atoms: N_3  and  N_4
REMARK    4  A    between atoms: C_7  and  C_8
REMARK    5  A    between atoms: C_11  and  C_12
REMARK                            x       y       z     vdW  Elec       q    Type
REMARK                         _______ _______ _______ _____ _____    ______ ____
ROOT
ATOM      1  N   UNL     1       2.611   7.197  19.290  0.00  0.00    +0.000 N 
ATOM      2  C   UNL     1       1.847   8.324  19.301  0.00  0.00    +0.000 A 
ATOM      3  N   UNL     1       1.123   8.768  20.308  0.00  0.00    +0.000 NA
ATOM      4  C   UNL     1       0.469   9.941  19.966  0.00  0.00    +0.000 A 
ATOM      5  C   UNL     1       0.738  10.398  18.690  0.00  0.00    +0.000 A 
ATOM      6  S   UNL     1       1.831   9.341  17.906  0.00  0.00    +0.000 S 
ATOM      7  H   UNL     1       3.058   6.998  18.397  0.00  0.00    +0.000 HD
ENDROOT
BRANCH   4   8
ATOM      8  C   UNL     1      -0.402  10.633  20.909  0.00  0.00    +0.000 A 
ATOM      9  C   UNL     1      -1.213  11.684  20.465  0.00  0.00    +0.000 A 
ATOM     10  C   UNL     1      -2.065  12.353  21.351  0.00  0.00    +0.000 A 
ATOM     11  C   UNL     1      -2.112  11.988  22.700  0.00  0.00    +0.000 A 
ATOM     12  C   UNL     1      -3.006  12.705  23.668  0.00  0.00    +0.000 C 
ATOM     13  C   UNL     1      -1.292  10.948  23.151  0.00  0.00    +0.000 A 
ATOM     14  C   UNL     1      -0.445  10.276  22.265  0.00  0.00    +0.000 A 
ENDBRANCH   4   8
BRANCH   1  17
ATOM     15  C   UNL     1       2.341   3.768  20.529  0.00  0.00    +0.000 C 
ATOM     16  C   UNL     1       2.862   4.964  19.754  0.00  0.00    +0.000 C 
ATOM     17  N   UNL     1       2.314   6.107  20.050  0.00  0.00    +0.000 NA
BRANCH  16  18
ATOM     18  C   UNL     1       3.948   4.710  18.751  0.00  0.00    +0.000 A 
ATOM     19  C   UNL     1       3.637   4.283  17.459  0.00  0.00    +0.000 A 
ATOM     20  C   UNL     1       4.678   4.062  16.571  0.00  0.00    +0.000 A 
ATOM     21  N   UNL     1       5.978   4.241  16.880  0.00  0.00    +0.000 NA
ATOM     22  C   UNL     1       6.257   4.629  18.140  0.00  0.00    +0.000 A 
ATOM     23  C   UNL     1       5.291   4.854  19.104  0.00  0.00    +0.000 A 
ENDBRANCH  16  18
ENDBRANCH   1  17
TORSDOF 3
ENDMDL
