MODEL 1
REMARK VINA RESULT:      -8.4      0.000      0.000
REMARK  Name = 
REMARK  4 active torsions:
REMARK  status: ('A' for Active; 'I' for Inactive)
REMARK    1  A    between atoms: C_7  and  S_8
REMARK    2  A    between atoms: S_8  and  N_11
REMARK    3  A    between atoms: N_20  and  N_21
REMARK    4  A    between atoms: C_22  and  C_24
REMARK                            x       y       z     vdW  Elec       q    Type
REMARK                         _______ _______ _______ _____ _____    ______ ____
ROOT
ATOM      1  O   UNL     1       0.511  12.123  19.138  0.00  0.00    +0.000 OA
ATOM      2  C   UNL     1       1.025  11.031  19.001  0.00  0.00    +0.000 C 
ATOM      3  N   UNL     1       1.781  10.524  17.956  0.00  0.00    +0.000 N 
ATOM      4  C   UNL     1       2.122   9.190  18.198  0.00  0.00    +0.000 A 
ATOM      5  C   UNL     1       2.756   8.291  17.369  0.00  0.00    +0.000 A 
ATOM      6  C   UNL     1       2.851   6.955  17.815  0.00  0.00    +0.000 A 
ATOM      7  C   UNL     1       2.363   6.571  19.092  0.00  0.00    +0.000 A 
ATOM      8  C   UNL     1       1.836   7.523  19.956  0.00  0.00    +0.000 A 
ATOM      9  C   UNL     1       1.673   8.792  19.451  0.00  0.00    +0.000 A 
ATOM     10  C   UNL     1       0.892   9.887  19.996  0.00  0.00    +0.000 C 
ATOM     11  N   UNL     1       0.157   9.770  21.053  0.00  0.00    +0.000 NA
ATOM     12  H   UNL     1       1.994  11.045  17.117  0.00  0.00    +0.000 HD
ENDROOT
BRANCH  11  13
ATOM     13  N   UNL     1      -0.656  10.802  21.407  0.00  0.00    +0.000 N 
ATOM     14  C   UNL     1      -0.836  11.058  22.764  0.00  0.00    +0.000 C 
ATOM     15  O   UNL     1      -0.328  10.394  23.667  0.00  0.00    +0.000 OA
ATOM     16  H   UNL     1      -1.212  11.264  20.689  0.00  0.00    +0.000 HD
BRANCH  14  17
ATOM     17  C   UNL     1      -1.731  12.195  23.122  0.00  0.00    +0.000 A 
ATOM     18  C   UNL     1      -1.211  13.498  23.051  0.00  0.00    +0.000 A 
ATOM     19  C   UNL     1      -2.019  14.601  23.342  0.00  0.00    +0.000 A 
ATOM     20  C   UNL     1      -3.352  14.410  23.699  0.00  0.00    +0.000 A 
ATOM     21  C   UNL     1      -3.879  13.120  23.762  0.00  0.00    +0.000 A 
ATOM     22  C   UNL     1      -3.075  12.013  23.472  0.00  0.00    +0.000 A 
ENDBRANCH  14  17
ENDBRANCH  11  13
BRANCH   7  23
ATOM     23  S   UNL     1       2.411   4.865  19.620  0.00  0.00    +0.000 S 
ATOM     24  O   UNL     1       2.892   4.878  20.986  0.00  0.00    +0.000 OA
ATOM     25  O   UNL     1       1.132   4.273  19.283  0.00  0.00    +0.000 OA
BRANCH  23  26
ATOM     26  N   UNL     1       3.620   4.132  18.655  0.00  0.00    +0.000 NA
ATOM     27  C   UNL     1       3.210   3.293  17.471  0.00  0.00    +0.000 C 
ATOM     28  C   UNL     1       2.891   1.830  17.836  0.00  0.00    +0.000 C 
ATOM     29  O   UNL     1       3.897   1.222  18.658  0.00  0.00    +0.000 OA
ATOM     30  C   UNL     1       4.125   2.005  19.837  0.00  0.00    +0.000 C 
ATOM     31  C   UNL     1       4.662   3.378  19.429  0.00  0.00    +0.000 C 
ENDBRANCH  23  26
ENDBRANCH   7  23
TORSDOF 4
ENDMDL
MODEL 2
REMARK VINA RESULT:      -8.2      1.000      1.222
REMARK  Name = 
REMARK  4 active torsions:
REMARK  status: ('A' for Active; 'I' for Inactive)
REMARK    1  A    between atoms: C_7  and  S_8
REMARK    2  A    between atoms: S_8  and  N_11
REMARK    3  A    between atoms: N_20  and  N_21
REMARK    4  A    between atoms: C_22  and  C_24
REMARK                            x       y       z     vdW  Elec       q    Type
REMARK                         _______ _______ _______ _____ _____    ______ ____
ROOT
ATOM      1  O   UNL     1       0.005  12.252  18.914  0.00  0.00    +0.000 OA
ATOM      2  C   UNL     1       0.649  11.225  18.845  0.00  0.00    +0.000 C 
ATOM      3  N   UNL     1       1.511  10.776  17.857  0.00  0.00    +0.000 N 
ATOM      4  C   UNL     1       1.993   9.501  18.168  0.00  0.00    +0.000 A 
ATOM      5  C   UNL     1       2.769   8.656  17.405  0.00  0.00    +0.000 A 
ATOM      6  C   UNL     1       2.997   7.357  17.908  0.00  0.00    +0.000 A 
ATOM      7  C   UNL     1       2.496   6.963  19.176  0.00  0.00    +0.000 A 
ATOM      8  C   UNL     1       1.819   7.874  19.976  0.00  0.00    +0.000 A 
ATOM      9  C   UNL     1       1.532   9.097  19.414  0.00  0.00    +0.000 A 
ATOM     10  C   UNL     1       0.603  10.109  19.879  0.00  0.00    +0.000 C 
ATOM     11  N   UNL     1      -0.164   9.943  20.905  0.00  0.00    +0.000 NA
ATOM     12  H   UNL     1       1.702  11.289  17.008  0.00  0.00    +0.000 HD
ENDROOT
BRANCH  11  13
ATOM     13  N   UNL     1      -1.110  10.882  21.181  0.00  0.00    +0.000 N 
ATOM     14  C   UNL     1      -1.226  11.328  22.494  0.00  0.00    +0.000 C 
ATOM     15  O   UNL     1      -0.546  10.910  23.430  0.00  0.00    +0.000 OA
ATOM     16  H   UNL     1      -1.788  11.127  20.461  0.00  0.00    +0.000 HD
BRANCH  14  17
ATOM     17  C   UNL     1      -2.269  12.359  22.766  0.00  0.00    +0.000 A 
ATOM     18  C   UNL     1      -2.290  13.511  21.962  0.00  0.00    +0.000 A 
ATOM     19  C   UNL     1      -3.269  14.490  22.153  0.00  0.00    +0.000 A 
ATOM     20  C   UNL     1      -4.236  14.322  23.141  0.00  0.00    +0.000 A 
ATOM     21  C   UNL     1      -4.228  13.176  23.937  0.00  0.00    +0.000 A 
ATOM     22  C   UNL     1      -3.250  12.194  23.750  0.00  0.00    +0.000 A 
ENDBRANCH  14  17
ENDBRANCH  11  13
BRANCH   7  23
ATOM     23  S   UNL     1       2.717   5.294  19.775  0.00  0.00    +0.000 S 
ATOM     24  O   UNL     1       4.140   5.029  19.716  0.00  0.00    +0.000 OA
ATOM     25  O   UNL     1       1.986   5.181  21.021  0.00  0.00    +0.000 OA
BRANCH  23  26
ATOM     26  N   UNL     1       1.959   4.297  18.608  0.00  0.00    +0.000 NA
ATOM     27  C   UNL     1       1.116   3.133  19.068  0.00  0.00    +0.000 C 
ATOM     28  C   UNL     1       1.932   1.856  19.345  0.00  0.00    +0.000 C 
ATOM     29  O   UNL     1       2.844   1.529  18.286  0.00  0.00    +0.000 OA
ATOM     30  C   UNL     1       3.709   2.638  18.007  0.00  0.00    +0.000 C 
ATOM     31  C   UNL     1       2.869   3.816  17.514  0.00  0.00    +0.000 C 
ENDBRANCH  23  26
ENDBRANCH   7  23
TORSDOF 4
ENDMDL
MODEL 3
REMARK VINA RESULT:      -8.1      3.123      5.318
REMARK  Name = 
REMARK  4 active torsions:
REMARK  status: ('A' for Active; 'I' for Inactive)
REMARK    1  A    between atoms: C_7  and  S_8
REMARK    2  A    between atoms: S_8  and  N_11
REMARK    3  A    between atoms: N_20  and  N_21
REMARK    4  A    between atoms: C_22  and  C_24
REMARK                            x       y       z     vdW  Elec       q    Type
REMARK                         _______ _______ _______ _____ _____    ______ ____
ROOT
ATOM      1  O   UNL     1       0.954   4.893  20.831  0.00  0.00    +0.000 OA
ATOM      2  C   UNL     1       1.696   4.606  19.914  0.00  0.00    +0.000 C 
ATOM      3  N   UNL     1       2.144   3.368  19.482  0.00  0.00    +0.000 N 
ATOM      4  C   UNL     1       3.038   3.512  18.418  0.00  0.00    +0.000 A 
ATOM      5  C   UNL     1       3.797   2.553  17.783  0.00  0.00    +0.000 A 
ATOM      6  C   UNL     1       4.730   2.998  16.822  0.00  0.00    +0.000 A 
ATOM      7  C   UNL     1       4.837   4.373  16.484  0.00  0.00    +0.000 A 
ATOM      8  C   UNL     1       3.976   5.303  17.052  0.00  0.00    +0.000 A 
ATOM      9  C   UNL     1       3.149   4.848  18.052  0.00  0.00    +0.000 A 
ATOM     10  C   UNL     1       2.383   5.621  19.012  0.00  0.00    +0.000 C 
ATOM     11  N   UNL     1       2.444   6.909  19.088  0.00  0.00    +0.000 NA
ATOM     12  H   UNL     1       1.895   2.497  19.929  0.00  0.00    +0.000 HD
ENDROOT
BRANCH  11  13
ATOM     13  N   UNL     1       1.808   7.541  20.112  0.00  0.00    +0.000 N 
ATOM     14  C   UNL     1       1.261   8.797  19.869  0.00  0.00    +0.000 C 
ATOM     15  O   UNL     1       1.337   9.389  18.792  0.00  0.00    +0.000 OA
ATOM     16  H   UNL     1       1.870   7.147  21.050  0.00  0.00    +0.000 HD
BRANCH  14  17
ATOM     17  C   UNL     1       0.570   9.464  21.009  0.00  0.00    +0.000 A 
ATOM     18  C   UNL     1      -0.203  10.606  20.742  0.00  0.00    +0.000 A 
ATOM     19  C   UNL     1      -0.900  11.247  21.770  0.00  0.00    +0.000 A 
ATOM     20  C   UNL     1      -0.835  10.748  23.069  0.00  0.00    +0.000 A 
ATOM     21  C   UNL     1      -0.078   9.608  23.341  0.00  0.00    +0.000 A 
ATOM     22  C   UNL     1       0.621   8.964  22.315  0.00  0.00    +0.000 A 
ENDBRANCH  14  17
ENDBRANCH  11  13
BRANCH   7  23
ATOM     23  S   UNL     1       6.074   4.942  15.327  0.00  0.00    +0.000 S 
ATOM     24  O   UNL     1       6.385   3.810  14.478  0.00  0.00    +0.000 OA
ATOM     25  O   UNL     1       5.598   6.190  14.765  0.00  0.00    +0.000 OA
BRANCH  23  26
ATOM     26  N   UNL     1       7.459   5.267  16.278  0.00  0.00    +0.000 NA
ATOM     27  C   UNL     1       7.707   4.452  17.523  0.00  0.00    +0.000 C 
ATOM     28  C   UNL     1       6.968   4.988  18.765  0.00  0.00    +0.000 C 
ATOM     29  O   UNL     1       7.134   6.401  18.954  0.00  0.00    +0.000 OA
ATOM     30  C   UNL     1       6.739   7.116  17.775  0.00  0.00    +0.000 C 
ATOM     31  C   UNL     1       7.655   6.717  16.618  0.00  0.00    +0.000 C 
ENDBRANCH  23  26
ENDBRANCH   7  23
TORSDOF 4
ENDMDL
MODEL 4
REMARK VINA RESULT:      -7.8      2.738      9.643
REMARK  Name = 
REMARK  4 active torsions:
REMARK  status: ('A' for Active; 'I' for Inactive)
REMARK    1  A    between atoms: C_7  and  S_8
REMARK    2  A    between atoms: S_8  and  N_11
REMARK    3  A    between atoms: N_20  and  N_21
REMARK    4  A    between atoms: C_22  and  C_24
REMARK                            x       y       z     vdW  Elec       q    Type
REMARK                         _______ _______ _______ _____ _____    ______ ____
ROOT
ATOM      1  O   UNL     1       2.537   8.215  17.779  0.00  0.00    +0.000 OA
ATOM      2  C   UNL     1       1.820   9.040  18.308  0.00  0.00    +0.000 C 
ATOM      3  N   UNL     1       1.382  10.270  17.844  0.00  0.00    +0.000 N 
ATOM      4  C   UNL     1       0.613  10.916  18.817  0.00  0.00    +0.000 A 
ATOM      5  C   UNL     1       0.094  12.192  18.808  0.00  0.00    +0.000 A 
ATOM      6  C   UNL     1      -0.531  12.645  19.991  0.00  0.00    +0.000 A 
ATOM      7  C   UNL     1      -0.668  11.795  21.119  0.00  0.00    +0.000 A 
ATOM      8  C   UNL     1      -0.242  10.474  21.058  0.00  0.00    +0.000 A 
ATOM      9  C   UNL     1       0.446  10.099  19.928  0.00  0.00    +0.000 A 
ATOM     10  C   UNL     1       1.254   8.912  19.714  0.00  0.00    +0.000 C 
ATOM     11  N   UNL     1       1.491   8.046  20.643  0.00  0.00    +0.000 NA
ATOM     12  H   UNL     1       1.644  10.654  16.948  0.00  0.00    +0.000 HD
ENDROOT
BRANCH  11  13
ATOM     13  N   UNL     1       2.379   7.043  20.398  0.00  0.00    +0.000 N 
ATOM     14  C   UNL     1       1.908   5.734  20.414  0.00  0.00    +0.000 C 
ATOM     15  O   UNL     1       0.744   5.419  20.662  0.00  0.00    +0.000 OA
ATOM     16  H   UNL     1       3.372   7.263  20.349  0.00  0.00    +0.000 HD
BRANCH  14  17
ATOM     17  C   UNL     1       2.902   4.657  20.141  0.00  0.00    +0.000 A 
ATOM     18  C   UNL     1       2.665   3.381  20.680  0.00  0.00    +0.000 A 
ATOM     19  C   UNL     1       3.548   2.329  20.424  0.00  0.00    +0.000 A 
ATOM     20  C   UNL     1       4.668   2.541  19.623  0.00  0.00    +0.000 A 
ATOM     21  C   UNL     1       4.905   3.802  19.076  0.00  0.00    +0.000 A 
ATOM     22  C   UNL     1       4.025   4.858  19.330  0.00  0.00    +0.000 A 
ENDBRANCH  14  17
ENDBRANCH  11  13
BRANCH   7  23
ATOM     23  S   UNL     1      -1.386  12.396  22.641  0.00  0.00    +0.000 S 
ATOM     24  O   UNL     1      -1.887  11.230  23.340  0.00  0.00    +0.000 OA
ATOM     25  O   UNL     1      -0.415  13.278  23.257  0.00  0.00    +0.000 OA
BRANCH  23  26
ATOM     26  N   UNL     1      -2.739  13.328  22.160  0.00  0.00    +0.000 NA
ATOM     27  C   UNL     1      -2.705  14.825  22.342  0.00  0.00    +0.000 C 
ATOM     28  C   UNL     1      -3.136  15.282  23.748  0.00  0.00    +0.000 C 
ATOM     29  O   UNL     1      -4.357  14.672  24.190  0.00  0.00    +0.000 OA
ATOM     30  C   UNL     1      -4.257  13.243  24.125  0.00  0.00    +0.000 C 
ATOM     31  C   UNL     1      -4.057  12.821  22.669  0.00  0.00    +0.000 C 
ENDBRANCH  23  26
ENDBRANCH   7  23
TORSDOF 4
ENDMDL
MODEL 5
REMARK VINA RESULT:      -7.5      2.726      9.459
REMARK  Name = 
REMARK  4 active torsions:
REMARK  status: ('A' for Active; 'I' for Inactive)
REMARK    1  A    between atoms: C_7  and  S_8
REMARK    2  A    between atoms: S_8  and  N_11
REMARK    3  A    between atoms: N_20  and  N_21
REMARK    4  A    between atoms: C_22  and  C_24
REMARK                            x       y       z     vdW  Elec       q    Type
REMARK                         _______ _______ _______ _____ _____    ______ ____
ROOT
ATOM      1  O   UNL     1       2.712   7.872  17.824  0.00  0.00    +0.000 OA
ATOM      2  C   UNL     1       2.063   8.784  18.295  0.00  0.00    +0.000 C 
ATOM      3  N   UNL     1       1.763  10.030  17.769  0.00  0.00    +0.000 N 
ATOM      4  C   UNL     1       1.030  10.787  18.687  0.00  0.00    +0.000 A 
ATOM      5  C   UNL     1       0.639  12.107  18.611  0.00  0.00    +0.000 A 
ATOM      6  C   UNL     1       0.023  12.666  19.751  0.00  0.00    +0.000 A 
ATOM      7  C   UNL     1      -0.235  11.881  20.905  0.00  0.00    +0.000 A 
ATOM      8  C   UNL     1       0.062  10.524  20.910  0.00  0.00    +0.000 A 
ATOM      9  C   UNL     1       0.747  10.038  19.821  0.00  0.00    +0.000 A 
ATOM     10  C   UNL     1       1.440   8.770  19.683  0.00  0.00    +0.000 C 
ATOM     11  N   UNL     1       1.561   7.924  20.652  0.00  0.00    +0.000 NA
ATOM     12  H   UNL     1       2.091  10.350  16.869  0.00  0.00    +0.000 HD
ENDROOT
BRANCH  11  13
ATOM     13  N   UNL     1       2.353   6.831  20.478  0.00  0.00    +0.000 N 
ATOM     14  C   UNL     1       1.749   5.577  20.489  0.00  0.00    +0.000 C 
ATOM     15  O   UNL     1       0.547   5.388  20.671  0.00  0.00    +0.000 OA
ATOM     16  H   UNL     1       3.365   6.948  20.486  0.00  0.00    +0.000 HD
BRANCH  14  17
ATOM     17  C   UNL     1       2.642   4.398  20.294  0.00  0.00    +0.000 A 
ATOM     18  C   UNL     1       3.608   4.456  19.276  0.00  0.00    +0.000 A 
ATOM     19  C   UNL     1       4.492   3.393  19.076  0.00  0.00    +0.000 A 
ATOM     20  C   UNL     1       4.422   2.268  19.895  0.00  0.00    +0.000 A 
ATOM     21  C   UNL     1       3.472   2.207  20.915  0.00  0.00    +0.000 A 
ATOM     22  C   UNL     1       2.585   3.268  21.119  0.00  0.00    +0.000 A 
ENDBRANCH  14  17
ENDBRANCH  11  13
BRANCH   7  23
ATOM     23  S   UNL     1      -0.940  12.611  22.376  0.00  0.00    +0.000 S 
ATOM     24  O   UNL     1      -0.700  11.669  23.450  0.00  0.00    +0.000 OA
ATOM     25  O   UNL     1      -0.456  13.975  22.455  0.00  0.00    +0.000 OA
BRANCH  23  26
ATOM     26  N   UNL     1      -2.627  12.649  22.091  0.00  0.00    +0.000 NA
ATOM     27  C   UNL     1      -3.231  13.842  21.392  0.00  0.00    +0.000 C 
ATOM     28  C   UNL     1      -3.563  15.007  22.343  0.00  0.00    +0.000 C 
ATOM     29  O   UNL     1      -4.284  14.594  23.512  0.00  0.00    +0.000 OA
ATOM     30  C   UNL     1      -3.573  13.557  24.201  0.00  0.00    +0.000 C 
ATOM     31  C   UNL     1      -3.469  12.332  23.293  0.00  0.00    +0.000 C 
ENDBRANCH  23  26
ENDBRANCH   7  23
TORSDOF 4
ENDMDL
MODEL 6
REMARK VINA RESULT:      -7.4      1.027      1.651
REMARK  Name = 
REMARK  4 active torsions:
REMARK  status: ('A' for Active; 'I' for Inactive)
REMARK    1  A    between atoms: C_7  and  S_8
REMARK    2  A    between atoms: S_8  and  N_11
REMARK    3  A    between atoms: N_20  and  N_21
REMARK    4  A    between atoms: C_22  and  C_24
REMARK                            x       y       z     vdW  Elec       q    Type
REMARK                         _______ _______ _______ _____ _____    ______ ____
ROOT
ATOM      1  O   UNL     1       0.579  12.035  19.096  0.00  0.00    +0.000 OA
ATOM      2  C   UNL     1       1.064  10.930  18.964  0.00  0.00    +0.000 C 
ATOM      3  N   UNL     1       1.799  10.396  17.917  0.00  0.00    +0.000 N 
ATOM      4  C   UNL     1       2.109   9.056  18.166  0.00  0.00    +0.000 A 
ATOM      5  C   UNL     1       2.713   8.135  17.339  0.00  0.00    +0.000 A 
ATOM      6  C   UNL     1       2.779   6.801  17.795  0.00  0.00    +0.000 A 
ATOM      7  C   UNL     1       2.293   6.439  19.079  0.00  0.00    +0.000 A 
ATOM      8  C   UNL     1       1.798   7.410  19.939  0.00  0.00    +0.000 A 
ATOM      9  C   UNL     1       1.661   8.679  19.426  0.00  0.00    +0.000 A 
ATOM     10  C   UNL     1       0.912   9.797  19.969  0.00  0.00    +0.000 C 
ATOM     11  N   UNL     1       0.184   9.707  21.033  0.00  0.00    +0.000 NA
ATOM     12  H   UNL     1       2.017  10.905  17.072  0.00  0.00    +0.000 HD
ENDROOT
BRANCH  11  13
ATOM     13  N   UNL     1      -0.600  10.762  21.386  0.00  0.00    +0.000 N 
ATOM     14  C   UNL     1      -0.741  11.049  22.741  0.00  0.00    +0.000 C 
ATOM     15  O   UNL     1      -0.221  10.394  23.645  0.00  0.00    +0.000 OA
ATOM     16  H   UNL     1      -1.166  11.218  20.672  0.00  0.00    +0.000 HD
BRANCH  14  17
ATOM     17  C   UNL     1      -1.605  12.210  23.098  0.00  0.00    +0.000 A 
ATOM     18  C   UNL     1      -2.951  11.965  23.413  0.00  0.00    +0.000 A 
ATOM     19  C   UNL     1      -3.794  13.014  23.789  0.00  0.00    +0.000 A 
ATOM     20  C   UNL     1      -3.296  14.313  23.858  0.00  0.00    +0.000 A 
ATOM     21  C   UNL     1      -1.958  14.564  23.556  0.00  0.00    +0.000 A 
ATOM     22  C   UNL     1      -1.111  13.517  23.179  0.00  0.00    +0.000 A 
ENDBRANCH  14  17
ENDBRANCH  11  13
BRANCH   7  23
ATOM     23  S   UNL     1       2.303   4.737  19.620  0.00  0.00    +0.000 S 
ATOM     24  O   UNL     1       1.780   4.739  20.971  0.00  0.00    +0.000 OA
ATOM     25  O   UNL     1       1.679   3.948  18.576  0.00  0.00    +0.000 OA
BRANCH  23  26
ATOM     26  N   UNL     1       3.958   4.306  19.710  0.00  0.00    +0.000 NA
ATOM     27  C   UNL     1       5.008   5.346  19.405  0.00  0.00    +0.000 C 
ATOM     28  C   UNL     1       5.324   5.476  17.903  0.00  0.00    +0.000 C 
ATOM     29  O   UNL     1       5.556   4.212  17.264  0.00  0.00    +0.000 OA
ATOM     30  C   UNL     1       4.447   3.330  17.478  0.00  0.00    +0.000 C 
ATOM     31  C   UNL     1       4.314   3.047  18.975  0.00  0.00    +0.000 C 
ENDBRANCH  23  26
ENDBRANCH   7  23
TORSDOF 4
ENDMDL
MODEL 7
REMARK VINA RESULT:      -7.4      3.327      4.737
REMARK  Name = 
REMARK  4 active torsions:
REMARK  status: ('A' for Active; 'I' for Inactive)
REMARK    1  A    between atoms: C_7  and  S_8
REMARK    2  A    between atoms: S_8  and  N_11
REMARK    3  A    between atoms: N_20  and  N_21
REMARK    4  A    between atoms: C_22  and  C_24
REMARK                            x       y       z     vdW  Elec       q    Type
REMARK                         _______ _______ _______ _____ _____    ______ ____
ROOT
ATOM      1  O   UNL     1       0.046  10.383  20.887  0.00  0.00    +0.000 OA
ATOM      2  C   UNL     1       0.576   9.333  20.583  0.00  0.00    +0.000 C 
ATOM      3  N   UNL     1       0.688   8.150  21.295  0.00  0.00    +0.000 N 
ATOM      4  C   UNL     1       1.436   7.213  20.577  0.00  0.00    +0.000 A 
ATOM      5  C   UNL     1       1.879   5.969  20.969  0.00  0.00    +0.000 A 
ATOM      6  C   UNL     1       2.744   5.282  20.090  0.00  0.00    +0.000 A 
ATOM      7  C   UNL     1       3.092   5.830  18.827  0.00  0.00    +0.000 A 
ATOM      8  C   UNL     1       2.535   7.031  18.407  0.00  0.00    +0.000 A 
ATOM      9  C   UNL     1       1.776   7.716  19.327  0.00  0.00    +0.000 A 
ATOM     10  C   UNL     1       1.332   9.097  19.283  0.00  0.00    +0.000 C 
ATOM     11  N   UNL     1       1.675   9.917  18.347  0.00  0.00    +0.000 NA
ATOM     12  H   UNL     1       0.323   8.024  22.229  0.00  0.00    +0.000 HD
ENDROOT
BRANCH  11  13
ATOM     13  N   UNL     1       1.335  11.230  18.464  0.00  0.00    +0.000 N 
ATOM     14  C   UNL     1       2.295  12.186  18.142  0.00  0.00    +0.000 C 
ATOM     15  O   UNL     1       3.443  11.922  17.783  0.00  0.00    +0.000 OA
ATOM     16  H   UNL     1       0.452  11.475  18.908  0.00  0.00    +0.000 HD
BRANCH  14  17
ATOM     17  C   UNL     1       1.894  13.616  18.278  0.00  0.00    +0.000 A 
ATOM     18  C   UNL     1       0.576  13.902  18.671  0.00  0.00    +0.000 A 
ATOM     19  C   UNL     1       0.160  15.224  18.848  0.00  0.00    +0.000 A 
ATOM     20  C   UNL     1       1.058  16.268  18.640  0.00  0.00    +0.000 A 
ATOM     21  C   UNL     1       2.372  15.992  18.260  0.00  0.00    +0.000 A 
ATOM     22  C   UNL     1       2.793  14.671  18.081  0.00  0.00    +0.000 A 
ENDBRANCH  14  17
ENDBRANCH  11  13
BRANCH   7  23
ATOM     23  S   UNL     1       4.250   4.997  17.751  0.00  0.00    +0.000 S 
ATOM     24  O   UNL     1       5.326   4.529  18.600  0.00  0.00    +0.000 OA
ATOM     25  O   UNL     1       3.490   4.076  16.930  0.00  0.00    +0.000 OA
BRANCH  23  26
ATOM     26  N   UNL     1       4.886   6.226  16.743  0.00  0.00    +0.000 NA
ATOM     27  C   UNL     1       5.243   5.896  15.314  0.00  0.00    +0.000 C 
ATOM     28  C   UNL     1       6.656   5.304  15.155  0.00  0.00    +0.000 C 
ATOM     29  O   UNL     1       7.664   6.056  15.846  0.00  0.00    +0.000 OA
ATOM     30  C   UNL     1       7.323   6.201  17.231  0.00  0.00    +0.000 C 
ATOM     31  C   UNL     1       6.024   6.999  17.346  0.00  0.00    +0.000 C 
ENDBRANCH  23  26
ENDBRANCH   7  23
TORSDOF 4
ENDMDL
MODEL 8
REMARK VINA RESULT:      -7.4      3.440      4.448
REMARK  Name = 
REMARK  4 active torsions:
REMARK  status: ('A' for Active; 'I' for Inactive)
REMARK    1  A    between atoms: C_7  and  S_8
REMARK    2  A    between atoms: S_8  and  N_11
REMARK    3  A    between atoms: N_20  and  N_21
REMARK    4  A    between atoms: C_22  and  C_24
REMARK                            x       y       z     vdW  Elec       q    Type
REMARK                         _______ _______ _______ _____ _____    ______ ____
ROOT
ATOM      1  O   UNL     1      -0.346  10.715  20.452  0.00  0.00    +0.000 OA
ATOM      2  C   UNL     1       0.392   9.846  20.032  0.00  0.00    +0.000 C 
ATOM      3  N   UNL     1       0.671   8.589  20.543  0.00  0.00    +0.000 N 
ATOM      4  C   UNL     1       1.630   7.942  19.759  0.00  0.00    +0.000 A 
ATOM      5  C   UNL     1       2.269   6.741  19.981  0.00  0.00    +0.000 A 
ATOM      6  C   UNL     1       3.307   6.386  19.093  0.00  0.00    +0.000 A 
ATOM      7  C   UNL     1       3.636   7.208  17.983  0.00  0.00    +0.000 A 
ATOM      8  C   UNL     1       2.897   8.353  17.715  0.00  0.00    +0.000 A 
ATOM      9  C   UNL     1       1.959   8.716  18.654  0.00  0.00    +0.000 A 
ATOM     10  C   UNL     1       1.269   9.985  18.797  0.00  0.00    +0.000 C 
ATOM     11  N   UNL     1       1.519  11.010  18.052  0.00  0.00    +0.000 NA
ATOM     12  H   UNL     1       0.270   8.232  21.399  0.00  0.00    +0.000 HD
ENDROOT
BRANCH  11  13
ATOM     13  N   UNL     1       0.933  12.201  18.351  0.00  0.00    +0.000 N 
ATOM     14  C   UNL     1       1.756  13.310  18.530  0.00  0.00    +0.000 C 
ATOM     15  O   UNL     1       2.984  13.279  18.459  0.00  0.00    +0.000 OA
ATOM     16  H   UNL     1      -0.062  12.221  18.572  0.00  0.00    +0.000 HD
BRANCH  14  17
ATOM     17  C   UNL     1       1.085  14.601  18.855  0.00  0.00    +0.000 A 
ATOM     18  C   UNL     1       1.786  15.794  18.612  0.00  0.00    +0.000 A 
ATOM     19  C   UNL     1       1.189  17.032  18.867  0.00  0.00    +0.000 A 
ATOM     20  C   UNL     1      -0.113  17.086  19.359  0.00  0.00    +0.000 A 
ATOM     21  C   UNL     1      -0.819  15.907  19.594  0.00  0.00    +0.000 A 
ATOM     22  C   UNL     1      -0.226  14.666  19.341  0.00  0.00    +0.000 A 
ENDBRANCH  14  17
ENDBRANCH  11  13
BRANCH   7  23
ATOM     23  S   UNL     1       5.003   6.798  16.908  0.00  0.00    +0.000 S 
ATOM     24  O   UNL     1       4.513   6.952  15.554  0.00  0.00    +0.000 OA
ATOM     25  O   UNL     1       6.157   7.539  17.376  0.00  0.00    +0.000 OA
BRANCH  23  26
ATOM     26  N   UNL     1       5.289   5.129  17.165  0.00  0.00    +0.000 NA
ATOM     27  C   UNL     1       6.203   4.702  18.287  0.00  0.00    +0.000 C 
ATOM     28  C   UNL     1       7.693   4.697  17.895  0.00  0.00    +0.000 C 
ATOM     29  O   UNL     1       7.948   4.028  16.652  0.00  0.00    +0.000 OA
ATOM     30  C   UNL     1       7.145   4.590  15.605  0.00  0.00    +0.000 C 
ATOM     31  C   UNL     1       5.668   4.365  15.930  0.00  0.00    +0.000 C 
ENDBRANCH  23  26
ENDBRANCH   7  23
TORSDOF 4
ENDMDL
MODEL 9
REMARK VINA RESULT:      -7.3      3.397      4.913
REMARK  Name = 
REMARK  4 active torsions:
REMARK  status: ('A' for Active; 'I' for Inactive)
REMARK    1  A    between atoms: C_7  and  S_8
REMARK    2  A    between atoms: S_8  and  N_11
REMARK    3  A    between atoms: N_20  and  N_21
REMARK    4  A    between atoms: C_22  and  C_24
REMARK                            x       y       z     vdW  Elec       q    Type
REMARK                         _______ _______ _______ _____ _____    ______ ____
ROOT
ATOM      1  O   UNL     1      -0.017  11.540  20.396  0.00  0.00    +0.000 OA
ATOM      2  C   UNL     1       0.463  10.439  20.220  0.00  0.00    +0.000 C 
ATOM      3  N   UNL     1       0.389   9.297  21.001  0.00  0.00    +0.000 N 
ATOM      4  C   UNL     1       1.146   8.266  20.438  0.00  0.00    +0.000 A 
ATOM      5  C   UNL     1       1.435   7.020  20.950  0.00  0.00    +0.000 A 
ATOM      6  C   UNL     1       2.348   6.220  20.230  0.00  0.00    +0.000 A 
ATOM      7  C   UNL     1       2.897   6.662  18.997  0.00  0.00    +0.000 A 
ATOM      8  C   UNL     1       2.496   7.871  18.445  0.00  0.00    +0.000 A 
ATOM      9  C   UNL     1       1.682   8.664  19.220  0.00  0.00    +0.000 A 
ATOM     10  C   UNL     1       1.357  10.068  19.046  0.00  0.00    +0.000 C 
ATOM     11  N   UNL     1       1.882  10.802  18.121  0.00  0.00    +0.000 NA
ATOM     12  H   UNL     1      -0.101   9.255  21.884  0.00  0.00    +0.000 HD
ENDROOT
BRANCH  11  13
ATOM     13  N   UNL     1       1.635  12.141  18.123  0.00  0.00    +0.000 N 
ATOM     14  C   UNL     1       2.724  13.008  18.140  0.00  0.00    +0.000 C 
ATOM     15  O   UNL     1       3.899  12.643  18.178  0.00  0.00    +0.000 OA
ATOM     16  H   UNL     1       0.679  12.467  18.253  0.00  0.00    +0.000 HD
BRANCH  14  17
ATOM     17  C   UNL     1       2.423  14.468  18.140  0.00  0.00    +0.000 A 
ATOM     18  C   UNL     1       3.338  15.335  17.520  0.00  0.00    +0.000 A 
ATOM     19  C   UNL     1       3.085  16.708  17.461  0.00  0.00    +0.000 A 
ATOM     20  C   UNL     1       1.915  17.223  18.016  0.00  0.00    +0.000 A 
ATOM     21  C   UNL     1       0.997  16.367  18.625  0.00  0.00    +0.000 A 
ATOM     22  C   UNL     1       1.246  14.993  18.686  0.00  0.00    +0.000 A 
ENDBRANCH  14  17
ENDBRANCH  11  13
BRANCH   7  23
ATOM     23  S   UNL     1       4.113   5.683  18.129  0.00  0.00    +0.000 S 
ATOM     24  O   UNL     1       5.101   5.296  19.116  0.00  0.00    +0.000 OA
ATOM     25  O   UNL     1       3.396   4.687  17.358  0.00  0.00    +0.000 OA
BRANCH  23  26
ATOM     26  N   UNL     1       4.869   6.769  17.043  0.00  0.00    +0.000 NA
ATOM     27  C   UNL     1       4.960   6.407  15.581  0.00  0.00    +0.000 C 
ATOM     28  C   UNL     1       6.178   5.526  15.242  0.00  0.00    +0.000 C 
ATOM     29  O   UNL     1       7.405   6.024  15.794  0.00  0.00    +0.000 OA
ATOM     30  C   UNL     1       7.283   6.204  17.211  0.00  0.00    +0.000 C 
ATOM     31  C   UNL     1       6.215   7.261  17.491  0.00  0.00    +0.000 C 
ENDBRANCH  23  26
ENDBRANCH   7  23
TORSDOF 4
ENDMDL
