MODEL 1
REMARK VINA RESULT:      -8.2      0.000      0.000
REMARK  Name = 
REMARK  7 active torsions:
REMARK  status: ('A' for Active; 'I' for Inactive)
REMARK    1  A    between atoms: C_1  and  C_2
REMARK    2  A    between atoms: C_2  and  O_3
REMARK    3  A    between atoms: C_5  and  N_6
REMARK    4  A    between atoms: C_7  and  O_9
REMARK    5  A    between atoms: O_9  and  C_10
REMARK    6  A    between atoms: C_12  and  C_13
REMARK    7  A    between atoms: C_14  and  C_15
REMARK                            x       y       z     vdW  Elec       q    Type
REMARK                         _______ _______ _______ _____ _____    ______ ____
ROOT
ATOM      1  C   UNL     1       3.357   5.490  18.456  0.00  0.00    +0.000 A 
ATOM      2  C   UNL     1       4.726   5.248  18.315  0.00  0.00    +0.000 A 
ATOM      3  N   UNL     1       4.850   3.873  18.235  0.00  0.00    +0.000 N 
ATOM      4  C   UNL     1       3.637   3.250  18.365  0.00  0.00    +0.000 A 
ATOM      5  C   UNL     1       3.343   1.881  18.352  0.00  0.00    +0.000 A 
ATOM      6  F   UNL     1       4.321   0.974  18.226  0.00  0.00    +0.000 F 
ATOM      7  C   UNL     1       2.026   1.473  18.482  0.00  0.00    +0.000 A 
ATOM      8  C   UNL     1       1.037   2.430  18.609  0.00  0.00    +0.000 A 
ATOM      9  F   UNL     1      -0.239   2.038  18.735  0.00  0.00    +0.000 F 
ATOM     10  C   UNL     1       1.328   3.800  18.619  0.00  0.00    +0.000 A 
ATOM     11  C   UNL     1       2.664   4.235  18.502  0.00  0.00    +0.000 A 
ATOM     12  H   UNL     1       5.717   3.378  18.088  0.00  0.00    +0.000 HD
ENDROOT
BRANCH   2  13
ATOM     13  C   UNL     1       5.929   6.107  18.246  0.00  0.00    +0.000 A 
ATOM     14  C   UNL     1       6.999   5.900  19.140  0.00  0.00    +0.000 A 
ATOM     15  C   UNL     1       8.146   6.702  19.103  0.00  0.00    +0.000 A 
ATOM     16  C   UNL     1       8.226   7.738  18.186  0.00  0.00    +0.000 A 
ATOM     17  F   UNL     1       9.311   8.521  18.160  0.00  0.00    +0.000 F 
ATOM     18  C   UNL     1       7.194   7.966  17.289  0.00  0.00    +0.000 A 
ATOM     19  C   UNL     1       6.064   7.142  17.309  0.00  0.00    +0.000 A 
ENDBRANCH   2  13
BRANCH   1  22
ATOM     20  C   UNL     1       1.766   8.564  17.676  0.00  0.00    +0.000 C 
ATOM     21  C   UNL     1       3.247   8.068  17.669  0.00  0.00    +0.000 C 
ATOM     22  C   UNL     1       2.732   6.872  18.492  0.00  0.00    +0.000 C 
ATOM     23  C   UNL     1       1.405   7.046  17.697  0.00  0.00    +0.000 C 
BRANCH  20  24
ATOM     24  O   UNL     1       1.313   9.299  18.840  0.00  0.00    +0.000 OA
BRANCH  24  26
ATOM     25  N   UNL     1      -0.016  11.053  18.247  0.00  0.00    +0.000 N 
ATOM     26  C   UNL     1       1.221  10.642  18.669  0.00  0.00    +0.000 C 
ATOM     27  O   UNL     1       2.145  11.430  18.822  0.00  0.00    +0.000 OA
ATOM     28  H   UNL     1      -0.016  12.045  18.028  0.00  0.00    +0.000 HD
BRANCH  25  32
ATOM     29  C   UNL     1      -4.319  11.002  17.042  0.00  0.00    +0.000 C 
ATOM     30  C   UNL     1      -2.815  11.076  17.262  0.00  0.00    +0.000 C 
ATOM     31  C   UNL     1      -2.418  11.535  18.692  0.00  0.00    +0.000 C 
ATOM     32  C   UNL     1      -1.300  10.460  18.685  0.00  0.00    +0.000 C 
ATOM     33  C   UNL     1      -2.099   9.732  17.574  0.00  0.00    +0.000 C 
BRANCH  30  34
ATOM     34  O   UNL     1      -2.205  11.823  16.183  0.00  0.00    +0.000 OA
ATOM     35  H   UNL     1      -1.441  12.278  16.577  0.00  0.00    +0.000 HD
ENDBRANCH  30  34
ENDBRANCH  25  32
ENDBRANCH  24  26
ENDBRANCH  20  24
ENDBRANCH   1  22
TORSDOF 6
ENDMDL
MODEL 2
REMARK VINA RESULT:      -8.0      3.663      7.052
REMARK  Name = 
REMARK  7 active torsions:
REMARK  status: ('A' for Active; 'I' for Inactive)
REMARK    1  A    between atoms: C_1  and  C_2
REMARK    2  A    between atoms: C_2  and  O_3
REMARK    3  A    between atoms: C_5  and  N_6
REMARK    4  A    between atoms: C_7  and  O_9
REMARK    5  A    between atoms: O_9  and  C_10
REMARK    6  A    between atoms: C_12  and  C_13
REMARK    7  A    between atoms: C_14  and  C_15
REMARK                            x       y       z     vdW  Elec       q    Type
REMARK                         _______ _______ _______ _____ _____    ______ ____
ROOT
ATOM      1  C   UNL     1       3.534   5.686  18.433  0.00  0.00    +0.000 A 
ATOM      2  C   UNL     1       2.351   6.327  18.812  0.00  0.00    +0.000 A 
ATOM      3  N   UNL     1       1.447   5.312  19.066  0.00  0.00    +0.000 N 
ATOM      4  C   UNL     1       1.993   4.079  18.822  0.00  0.00    +0.000 A 
ATOM      5  C   UNL     1       1.405   2.815  18.944  0.00  0.00    +0.000 A 
ATOM      6  F   UNL     1       0.126   2.690  19.323  0.00  0.00    +0.000 F 
ATOM      7  C   UNL     1       2.160   1.689  18.659  0.00  0.00    +0.000 A 
ATOM      8  C   UNL     1       3.477   1.847  18.271  0.00  0.00    +0.000 A 
ATOM      9  F   UNL     1       4.211   0.760  17.994  0.00  0.00    +0.000 F 
ATOM     10  C   UNL     1       4.069   3.111  18.150  0.00  0.00    +0.000 A 
ATOM     11  C   UNL     1       3.312   4.269  18.424  0.00  0.00    +0.000 A 
ATOM     12  H   UNL     1       0.505   5.447  19.402  0.00  0.00    +0.000 HD
ENDROOT
BRANCH   2  13
ATOM     13  C   UNL     1       1.942   7.741  18.968  0.00  0.00    +0.000 A 
ATOM     14  C   UNL     1       1.495   8.215  20.217  0.00  0.00    +0.000 A 
ATOM     15  C   UNL     1       1.095   9.545  20.392  0.00  0.00    +0.000 A 
ATOM     16  C   UNL     1       1.116  10.413  19.311  0.00  0.00    +0.000 A 
ATOM     17  F   UNL     1       0.715  11.680  19.467  0.00  0.00    +0.000 F 
ATOM     18  C   UNL     1       1.556   9.981  18.070  0.00  0.00    +0.000 A 
ATOM     19  C   UNL     1       1.985   8.659  17.908  0.00  0.00    +0.000 A 
ENDBRANCH   2  13
BRANCH   1  22
ATOM     20  C   UNL     1       6.568   6.862  17.021  0.00  0.00    +0.000 C 
ATOM     21  C   UNL     1       6.191   5.683  17.973  0.00  0.00    +0.000 C 
ATOM     22  C   UNL     1       4.839   6.401  18.143  0.00  0.00    +0.000 C 
ATOM     23  C   UNL     1       5.045   6.889  16.680  0.00  0.00    +0.000 C 
BRANCH  20  24
ATOM     24  O   UNL     1       7.062   8.081  17.630  0.00  0.00    +0.000 OA
BRANCH  24  26
ATOM     25  N   UNL     1       8.905   9.095  18.506  0.00  0.00    +0.000 N 
ATOM     26  C   UNL     1       8.190   7.934  18.369  0.00  0.00    +0.000 C 
ATOM     27  O   UNL     1       8.583   6.876  18.842  0.00  0.00    +0.000 OA
ATOM     28  H   UNL     1       9.793   8.925  18.972  0.00  0.00    +0.000 HD
BRANCH  25  32
ATOM     29  C   UNL     1      10.001  13.382  17.881  0.00  0.00    +0.000 C 
ATOM     30  C   UNL     1       9.777  11.879  17.964  0.00  0.00    +0.000 C 
ATOM     31  C   UNL     1       9.311  11.397  19.365  0.00  0.00    +0.000 C 
ATOM     32  C   UNL     1       8.312  10.442  18.661  0.00  0.00    +0.000 C 
ATOM     33  C   UNL     1       8.421  11.355  17.414  0.00  0.00    +0.000 C 
BRANCH  30  34
ATOM     34  O   UNL     1      10.929  11.188  17.425  0.00  0.00    +0.000 OA
ATOM     35  H   UNL     1      11.595  11.194  18.135  0.00  0.00    +0.000 HD
ENDBRANCH  30  34
ENDBRANCH  25  32
ENDBRANCH  24  26
ENDBRANCH  20  24
ENDBRANCH   1  22
TORSDOF 6
ENDMDL
MODEL 3
REMARK VINA RESULT:      -8.0      6.143     10.757
REMARK  Name = 
REMARK  7 active torsions:
REMARK  status: ('A' for Active; 'I' for Inactive)
REMARK    1  A    between atoms: C_1  and  C_2
REMARK    2  A    between atoms: C_2  and  O_3
REMARK    3  A    between atoms: C_5  and  N_6
REMARK    4  A    between atoms: C_7  and  O_9
REMARK    5  A    between atoms: O_9  and  C_10
REMARK    6  A    between atoms: C_12  and  C_13
REMARK    7  A    between atoms: C_14  and  C_15
REMARK                            x       y       z     vdW  Elec       q    Type
REMARK                         _______ _______ _______ _____ _____    ______ ____
ROOT
ATOM      1  C   UNL     1      -3.351  13.541  22.548  0.00  0.00    +0.000 A 
ATOM      2  C   UNL     1      -2.102  13.091  22.985  0.00  0.00    +0.000 A 
ATOM      3  N   UNL     1      -1.774  13.900  24.058  0.00  0.00    +0.000 N 
ATOM      4  C   UNL     1      -2.733  14.855  24.280  0.00  0.00    +0.000 A 
ATOM      5  C   UNL     1      -2.765  15.861  25.253  0.00  0.00    +0.000 A 
ATOM      6  F   UNL     1      -1.753  16.008  26.118  0.00  0.00    +0.000 F 
ATOM      7  C   UNL     1      -3.857  16.712  25.305  0.00  0.00    +0.000 A 
ATOM      8  C   UNL     1      -4.887  16.537  24.400  0.00  0.00    +0.000 A 
ATOM      9  F   UNL     1      -5.945  17.360  24.448  0.00  0.00    +0.000 F 
ATOM     10  C   UNL     1      -4.857  15.529  23.428  0.00  0.00    +0.000 A 
ATOM     11  C   UNL     1      -3.749  14.661  23.351  0.00  0.00    +0.000 A 
ATOM     12  H   UNL     1      -0.944  13.804  24.624  0.00  0.00    +0.000 HD
ENDROOT
BRANCH   2  13
ATOM     13  C   UNL     1      -1.173  12.025  22.549  0.00  0.00    +0.000 A 
ATOM     14  C   UNL     1      -1.233  10.747  23.141  0.00  0.00    +0.000 A 
ATOM     15  C   UNL     1      -0.362   9.722  22.754  0.00  0.00    +0.000 A 
ATOM     16  C   UNL     1       0.597   9.971  21.783  0.00  0.00    +0.000 A 
ATOM     17  F   UNL     1       1.446   9.000  21.424  0.00  0.00    +0.000 F 
ATOM     18  C   UNL     1       0.680  11.214  21.177  0.00  0.00    +0.000 A 
ATOM     19  C   UNL     1      -0.214  12.226  21.546  0.00  0.00    +0.000 A 
ENDBRANCH   2  13
BRANCH   1  22
ATOM     20  C   UNL     1      -5.704  12.764  20.010  0.00  0.00    +0.000 C 
ATOM     21  C   UNL     1      -5.651  12.543  21.556  0.00  0.00    +0.000 C 
ATOM     22  C   UNL     1      -4.155  12.889  21.440  0.00  0.00    +0.000 C 
ATOM     23  C   UNL     1      -4.578  13.815  20.263  0.00  0.00    +0.000 C 
BRANCH  20  24
ATOM     24  O   UNL     1      -5.306  11.658  19.163  0.00  0.00    +0.000 OA
BRANCH  24  26
ATOM     25  N   UNL     1      -3.863  11.558  17.402  0.00  0.00    +0.000 N 
ATOM     26  C   UNL     1      -5.081  11.983  17.865  0.00  0.00    +0.000 C 
ATOM     27  O   UNL     1      -5.847  12.630  17.164  0.00  0.00    +0.000 OA
ATOM     28  H   UNL     1      -3.686  11.911  16.465  0.00  0.00    +0.000 HD
BRANCH  25  32
ATOM     29  C   UNL     1       0.236   9.880  17.996  0.00  0.00    +0.000 C 
ATOM     30  C   UNL     1      -1.075  10.633  17.820  0.00  0.00    +0.000 C 
ATOM     31  C   UNL     1      -2.044   9.967  16.806  0.00  0.00    +0.000 C 
ATOM     32  C   UNL     1      -3.214  10.282  17.774  0.00  0.00    +0.000 C 
ATOM     33  C   UNL     1      -2.160  10.387  18.905  0.00  0.00    +0.000 C 
BRANCH  30  34
ATOM     34  O   UNL     1      -0.799  12.034  17.581  0.00  0.00    +0.000 OA
ATOM     35  H   UNL     1      -0.400  12.076  16.695  0.00  0.00    +0.000 HD
ENDBRANCH  30  34
ENDBRANCH  25  32
ENDBRANCH  24  26
ENDBRANCH  20  24
ENDBRANCH   1  22
TORSDOF 6
ENDMDL
MODEL 4
REMARK VINA RESULT:      -7.9      4.847     10.221
REMARK  Name = 
REMARK  7 active torsions:
REMARK  status: ('A' for Active; 'I' for Inactive)
REMARK    1  A    between atoms: C_1  and  C_2
REMARK    2  A    between atoms: C_2  and  O_3
REMARK    3  A    between atoms: C_5  and  N_6
REMARK    4  A    between atoms: C_7  and  O_9
REMARK    5  A    between atoms: O_9  and  C_10
REMARK    6  A    between atoms: C_12  and  C_13
REMARK    7  A    between atoms: C_14  and  C_15
REMARK                            x       y       z     vdW  Elec       q    Type
REMARK                         _______ _______ _______ _____ _____    ______ ____
ROOT
ATOM      1  C   UNL     1      -1.585  11.714  20.276  0.00  0.00    +0.000 A 
ATOM      2  C   UNL     1      -2.486  12.033  19.257  0.00  0.00    +0.000 A 
ATOM      3  N   UNL     1      -3.121  13.189  19.675  0.00  0.00    +0.000 N 
ATOM      4  C   UNL     1      -2.692  13.577  20.917  0.00  0.00    +0.000 A 
ATOM      5  C   UNL     1      -3.096  14.676  21.685  0.00  0.00    +0.000 A 
ATOM      6  F   UNL     1      -4.046  15.508  21.239  0.00  0.00    +0.000 F 
ATOM      7  C   UNL     1      -2.506  14.888  22.920  0.00  0.00    +0.000 A 
ATOM      8  C   UNL     1      -1.527  14.014  23.354  0.00  0.00    +0.000 A 
ATOM      9  F   UNL     1      -0.955  14.216  24.549  0.00  0.00    +0.000 F 
ATOM     10  C   UNL     1      -1.120  12.915  22.586  0.00  0.00    +0.000 A 
ATOM     11  C   UNL     1      -1.718  12.675  21.333  0.00  0.00    +0.000 A 
ATOM     12  H   UNL     1      -3.805  13.700  19.137  0.00  0.00    +0.000 HD
ENDROOT
BRANCH   2  13
ATOM     13  C   UNL     1      -2.843  11.418  17.958  0.00  0.00    +0.000 A 
ATOM     14  C   UNL     1      -4.083  11.708  17.355  0.00  0.00    +0.000 A 
ATOM     15  C   UNL     1      -4.450  11.135  16.131  0.00  0.00    +0.000 A 
ATOM     16  C   UNL     1      -3.588  10.247  15.507  0.00  0.00    +0.000 A 
ATOM     17  F   UNL     1      -3.943   9.681  14.347  0.00  0.00    +0.000 F 
ATOM     18  C   UNL     1      -2.359   9.944  16.070  0.00  0.00    +0.000 A 
ATOM     19  C   UNL     1      -1.983  10.544  17.278  0.00  0.00    +0.000 A 
ENDBRANCH   2  13
BRANCH   1  22
ATOM     20  C   UNL     1       1.090   9.449  20.824  0.00  0.00    +0.000 C 
ATOM     21  C   UNL     1       0.912  10.743  19.968  0.00  0.00    +0.000 C 
ATOM     22  C   UNL     1      -0.598  10.564  20.216  0.00  0.00    +0.000 C 
ATOM     23  C   UNL     1      -0.182   9.944  21.582  0.00  0.00    +0.000 C 
BRANCH  20  24
ATOM     24  O   UNL     1       0.923   8.176  20.153  0.00  0.00    +0.000 OA
BRANCH  24  26
ATOM     25  N   UNL     1       2.511   6.540  20.184  0.00  0.00    +0.000 N 
ATOM     26  C   UNL     1       2.048   7.679  19.579  0.00  0.00    +0.000 C 
ATOM     27  O   UNL     1       2.642   8.198  18.643  0.00  0.00    +0.000 OA
ATOM     28  H   UNL     1       3.408   6.260  19.798  0.00  0.00    +0.000 HD
BRANCH  25  32
ATOM     29  C   UNL     1       2.011   2.107  19.919  0.00  0.00    +0.000 C 
ATOM     30  C   UNL     1       2.369   3.586  19.940  0.00  0.00    +0.000 C 
ATOM     31  C   UNL     1       1.172   4.520  19.614  0.00  0.00    +0.000 C 
ATOM     32  C   UNL     1       1.654   5.470  20.741  0.00  0.00    +0.000 C 
ATOM     33  C   UNL     1       2.418   4.261  21.339  0.00  0.00    +0.000 C 
BRANCH  30  34
ATOM     34  O   UNL     1       3.558   3.807  19.146  0.00  0.00    +0.000 OA
ATOM     35  H   UNL     1       3.243   3.977  18.241  0.00  0.00    +0.000 HD
ENDBRANCH  30  34
ENDBRANCH  25  32
ENDBRANCH  24  26
ENDBRANCH  20  24
ENDBRANCH   1  22
TORSDOF 6
ENDMDL
MODEL 5
REMARK VINA RESULT:      -7.9      6.777     11.276
REMARK  Name = 
REMARK  7 active torsions:
REMARK  status: ('A' for Active; 'I' for Inactive)
REMARK    1  A    between atoms: C_1  and  C_2
REMARK    2  A    between atoms: C_2  and  O_3
REMARK    3  A    between atoms: C_5  and  N_6
REMARK    4  A    between atoms: C_7  and  O_9
REMARK    5  A    between atoms: O_9  and  C_10
REMARK    6  A    between atoms: C_12  and  C_13
REMARK    7  A    between atoms: C_14  and  C_15
REMARK                            x       y       z     vdW  Elec       q    Type
REMARK                         _______ _______ _______ _____ _____    ______ ____
ROOT
ATOM      1  C   UNL     1      -4.119  13.891  22.267  0.00  0.00    +0.000 A 
ATOM      2  C   UNL     1      -2.904  13.394  22.746  0.00  0.00    +0.000 A 
ATOM      3  N   UNL     1      -2.598  14.171  23.848  0.00  0.00    +0.000 N 
ATOM      4  C   UNL     1      -3.535  15.150  24.050  0.00  0.00    +0.000 A 
ATOM      5  C   UNL     1      -3.579  16.138  25.041  0.00  0.00    +0.000 A 
ATOM      6  F   UNL     1      -2.600  16.236  25.951  0.00  0.00    +0.000 F 
ATOM      7  C   UNL     1      -4.645  17.022  25.065  0.00  0.00    +0.000 A 
ATOM      8  C   UNL     1      -5.641  16.897  24.115  0.00  0.00    +0.000 A 
ATOM      9  F   UNL     1      -6.674  17.751  24.136  0.00  0.00    +0.000 F 
ATOM     10  C   UNL     1      -5.600  15.908  23.124  0.00  0.00    +0.000 A 
ATOM     11  C   UNL     1      -4.517  15.007  23.075  0.00  0.00    +0.000 A 
ATOM     12  H   UNL     1      -1.795  14.037  24.446  0.00  0.00    +0.000 HD
ENDROOT
BRANCH   2  13
ATOM     13  C   UNL     1      -1.990  12.308  22.327  0.00  0.00    +0.000 A 
ATOM     14  C   UNL     1      -1.636  11.290  23.235  0.00  0.00    +0.000 A 
ATOM     15  C   UNL     1      -0.768  10.255  22.868  0.00  0.00    +0.000 A 
ATOM     16  C   UNL     1      -0.225  10.238  21.593  0.00  0.00    +0.000 A 
ATOM     17  F   UNL     1       0.622   9.262  21.244  0.00  0.00    +0.000 F 
ATOM     18  C   UNL     1      -0.556  11.220  20.673  0.00  0.00    +0.000 A 
ATOM     19  C   UNL     1      -1.449  12.235  21.035  0.00  0.00    +0.000 A 
ENDBRANCH   2  13
BRANCH   1  22
ATOM     20  C   UNL     1      -6.457  13.181  19.695  0.00  0.00    +0.000 C 
ATOM     21  C   UNL     1      -6.361  12.824  21.212  0.00  0.00    +0.000 C 
ATOM     22  C   UNL     1      -4.895  13.286  21.112  0.00  0.00    +0.000 C 
ATOM     23  C   UNL     1      -5.403  14.282  20.030  0.00  0.00    +0.000 C 
BRANCH  20  24
ATOM     24  O   UNL     1      -5.997  12.187  18.745  0.00  0.00    +0.000 OA
BRANCH  24  26
ATOM     25  N   UNL     1      -4.776  12.120  16.822  0.00  0.00    +0.000 N 
ATOM     26  C   UNL     1      -5.870  12.631  17.469  0.00  0.00    +0.000 C 
ATOM     27  O   UNL     1      -6.615  13.441  16.934  0.00  0.00    +0.000 OA
ATOM     28  H   UNL     1      -4.655  12.554  15.911  0.00  0.00    +0.000 HD
BRANCH  25  32
ATOM     29  C   UNL     1      -0.891   9.982  17.380  0.00  0.00    +0.000 C 
ATOM     30  C   UNL     1      -2.118  10.875  17.258  0.00  0.00    +0.000 C 
ATOM     31  C   UNL     1      -3.038  10.507  16.062  0.00  0.00    +0.000 C 
ATOM     32  C   UNL     1      -4.264  10.741  16.983  0.00  0.00    +0.000 C 
ATOM     33  C   UNL     1      -3.314  10.529  18.189  0.00  0.00    +0.000 C 
BRANCH  30  34
ATOM     34  O   UNL     1      -1.714  12.263  17.322  0.00  0.00    +0.000 OA
ATOM     35  H   UNL     1      -1.537  12.528  16.402  0.00  0.00    +0.000 HD
ENDBRANCH  30  34
ENDBRANCH  25  32
ENDBRANCH  24  26
ENDBRANCH  20  24
ENDBRANCH   1  22
TORSDOF 6
ENDMDL
MODEL 6
REMARK VINA RESULT:      -7.9      4.443      9.514
REMARK  Name = 
REMARK  7 active torsions:
REMARK  status: ('A' for Active; 'I' for Inactive)
REMARK    1  A    between atoms: C_1  and  C_2
REMARK    2  A    between atoms: C_2  and  O_3
REMARK    3  A    between atoms: C_5  and  N_6
REMARK    4  A    between atoms: C_7  and  O_9
REMARK    5  A    between atoms: O_9  and  C_10
REMARK    6  A    between atoms: C_12  and  C_13
REMARK    7  A    between atoms: C_14  and  C_15
REMARK                            x       y       z     vdW  Elec       q    Type
REMARK                         _______ _______ _______ _____ _____    ______ ____
ROOT
ATOM      1  C   UNL     1      -1.742  11.058  18.751  0.00  0.00    +0.000 A 
ATOM      2  C   UNL     1      -2.349  12.012  19.572  0.00  0.00    +0.000 A 
ATOM      3  N   UNL     1      -3.507  12.382  18.913  0.00  0.00    +0.000 N 
ATOM      4  C   UNL     1      -3.627  11.740  17.708  0.00  0.00    +0.000 A 
ATOM      5  C   UNL     1      -4.640  11.851  16.748  0.00  0.00    +0.000 A 
ATOM      6  F   UNL     1      -5.666  12.693  16.931  0.00  0.00    +0.000 F 
ATOM      7  C   UNL     1      -4.565  11.083  15.598  0.00  0.00    +0.000 A 
ATOM      8  C   UNL     1      -3.496  10.222  15.435  0.00  0.00    +0.000 A 
ATOM      9  F   UNL     1      -3.420   9.477  14.323  0.00  0.00    +0.000 F 
ATOM     10  C   UNL     1      -2.483  10.108  16.396  0.00  0.00    +0.000 A 
ATOM     11  C   UNL     1      -2.535  10.891  17.567  0.00  0.00    +0.000 A 
ATOM     12  H   UNL     1      -4.194  13.031  19.269  0.00  0.00    +0.000 HD
ENDROOT
BRANCH   2  13
ATOM     13  C   UNL     1      -2.006  12.629  20.873  0.00  0.00    +0.000 A 
ATOM     14  C   UNL     1      -2.760  12.320  22.023  0.00  0.00    +0.000 A 
ATOM     15  C   UNL     1      -2.463  12.894  23.265  0.00  0.00    +0.000 A 
ATOM     16  C   UNL     1      -1.422  13.803  23.366  0.00  0.00    +0.000 A 
ATOM     17  F   UNL     1      -1.147  14.371  24.547  0.00  0.00    +0.000 F 
ATOM     18  C   UNL     1      -0.657  14.125  22.256  0.00  0.00    +0.000 A 
ATOM     19  C   UNL     1      -0.938  13.524  21.024  0.00  0.00    +0.000 A 
ENDBRANCH   2  13
BRANCH   1  22
ATOM     20  C   UNL     1       1.205   9.826  20.292  0.00  0.00    +0.000 C 
ATOM     21  C   UNL     1       0.905  10.955  19.256  0.00  0.00    +0.000 C 
ATOM     22  C   UNL     1      -0.480  10.297  19.111  0.00  0.00    +0.000 C 
ATOM     23  C   UNL     1      -0.321   9.902  20.608  0.00  0.00    +0.000 C 
BRANCH  20  24
ATOM     24  O   UNL     1       1.643   8.544  19.776  0.00  0.00    +0.000 OA
BRANCH  24  26
ATOM     25  N   UNL     1       2.231   6.382  20.191  0.00  0.00    +0.000 N 
ATOM     26  C   UNL     1       1.834   7.584  20.716  0.00  0.00    +0.000 C 
ATOM     27  O   UNL     1       1.635   7.730  21.914  0.00  0.00    +0.000 OA
ATOM     28  H   UNL     1       2.260   5.662  20.909  0.00  0.00    +0.000 HD
BRANCH  25  32
ATOM     29  C   UNL     1       4.010   3.131  17.693  0.00  0.00    +0.000 C 
ATOM     30  C   UNL     1       3.262   4.103  18.594  0.00  0.00    +0.000 C 
ATOM     31  C   UNL     1       4.190   5.110  19.328  0.00  0.00    +0.000 C 
ATOM     32  C   UNL     1       3.148   6.222  19.040  0.00  0.00    +0.000 C 
ATOM     33  C   UNL     1       2.611   5.328  17.893  0.00  0.00    +0.000 C 
BRANCH  30  34
ATOM     34  O   UNL     1       2.352   3.369  19.446  0.00  0.00    +0.000 OA
ATOM     35  H   UNL     1       1.473   3.466  19.039  0.00  0.00    +0.000 HD
ENDBRANCH  30  34
ENDBRANCH  25  32
ENDBRANCH  24  26
ENDBRANCH  20  24
ENDBRANCH   1  22
TORSDOF 6
ENDMDL
MODEL 7
REMARK VINA RESULT:      -7.7      4.576      9.997
REMARK  Name = 
REMARK  7 active torsions:
REMARK  status: ('A' for Active; 'I' for Inactive)
REMARK    1  A    between atoms: C_1  and  C_2
REMARK    2  A    between atoms: C_2  and  O_3
REMARK    3  A    between atoms: C_5  and  N_6
REMARK    4  A    between atoms: C_7  and  O_9
REMARK    5  A    between atoms: O_9  and  C_10
REMARK    6  A    between atoms: C_12  and  C_13
REMARK    7  A    between atoms: C_14  and  C_15
REMARK                            x       y       z     vdW  Elec       q    Type
REMARK                         _______ _______ _______ _____ _____    ______ ____
ROOT
ATOM      1  C   UNL     1      -1.584  11.443  19.710  0.00  0.00    +0.000 A 
ATOM      2  C   UNL     1      -2.570  11.749  18.768  0.00  0.00    +0.000 A 
ATOM      3  N   UNL     1      -3.277  12.809  19.307  0.00  0.00    +0.000 N 
ATOM      4  C   UNL     1      -2.810  13.145  20.551  0.00  0.00    +0.000 A 
ATOM      5  C   UNL     1      -3.262  14.143  21.421  0.00  0.00    +0.000 A 
ATOM      6  F   UNL     1      -4.307  14.915  21.093  0.00  0.00    +0.000 F 
ATOM      7  C   UNL     1      -2.619  14.320  22.636  0.00  0.00    +0.000 A 
ATOM      8  C   UNL     1      -1.543  13.511  22.948  0.00  0.00    +0.000 A 
ATOM      9  F   UNL     1      -0.918  13.679  24.122  0.00  0.00    +0.000 F 
ATOM     10  C   UNL     1      -1.088  12.513  22.077  0.00  0.00    +0.000 A 
ATOM     11  C   UNL     1      -1.737  12.309  20.842  0.00  0.00    +0.000 A 
ATOM     12  H   UNL     1      -4.036  13.291  18.848  0.00  0.00    +0.000 HD
ENDROOT
BRANCH   2  13
ATOM     13  C   UNL     1      -2.950  11.199  17.447  0.00  0.00    +0.000 A 
ATOM     14  C   UNL     1      -2.111  10.270  16.800  0.00  0.00    +0.000 A 
ATOM     15  C   UNL     1      -2.441   9.739  15.547  0.00  0.00    +0.000 A 
ATOM     16  C   UNL     1      -3.605  10.150  14.916  0.00  0.00    +0.000 A 
ATOM     17  F   UNL     1      -3.914   9.661  13.709  0.00  0.00    +0.000 F 
ATOM     18  C   UNL     1      -4.455  11.058  15.527  0.00  0.00    +0.000 A 
ATOM     19  C   UNL     1      -4.136  11.562  16.793  0.00  0.00    +0.000 A 
ENDBRANCH   2  13
BRANCH   1  22
ATOM     20  C   UNL     1       1.228   9.303  20.019  0.00  0.00    +0.000 C 
ATOM     21  C   UNL     1       0.997  10.722  19.409  0.00  0.00    +0.000 C 
ATOM     22  C   UNL     1      -0.505  10.396  19.508  0.00  0.00    +0.000 C 
ATOM     23  C   UNL     1      -0.122   9.555  20.760  0.00  0.00    +0.000 C 
BRANCH  20  24
ATOM     24  O   UNL     1       1.206   8.174  19.110  0.00  0.00    +0.000 OA
BRANCH  24  26
ATOM     25  N   UNL     1       2.837   6.584  19.057  0.00  0.00    +0.000 N 
ATOM     26  C   UNL     1       2.417   7.811  18.617  0.00  0.00    +0.000 C 
ATOM     27  O   UNL     1       3.111   8.507  17.889  0.00  0.00    +0.000 OA
ATOM     28  H   UNL     1       3.790   6.394  18.755  0.00  0.00    +0.000 HD
BRANCH  25  32
ATOM     29  C   UNL     1       2.698   2.214  18.135  0.00  0.00    +0.000 C 
ATOM     30  C   UNL     1       2.945   3.688  18.418  0.00  0.00    +0.000 C 
ATOM     31  C   UNL     1       1.783   4.612  17.963  0.00  0.00    +0.000 C 
ATOM     32  C   UNL     1       1.957   5.415  19.278  0.00  0.00    +0.000 C 
ATOM     33  C   UNL     1       2.658   4.166  19.869  0.00  0.00    +0.000 C 
BRANCH  30  34
ATOM     34  O   UNL     1       4.256   4.060  17.932  0.00  0.00    +0.000 OA
ATOM     35  H   UNL     1       4.891   3.596  18.505  0.00  0.00    +0.000 HD
ENDBRANCH  30  34
ENDBRANCH  25  32
ENDBRANCH  24  26
ENDBRANCH  20  24
ENDBRANCH   1  22
TORSDOF 6
ENDMDL
MODEL 8
REMARK VINA RESULT:      -7.7      5.169      9.499
REMARK  Name = 
REMARK  7 active torsions:
REMARK  status: ('A' for Active; 'I' for Inactive)
REMARK    1  A    between atoms: C_1  and  C_2
REMARK    2  A    between atoms: C_2  and  O_3
REMARK    3  A    between atoms: C_5  and  N_6
REMARK    4  A    between atoms: C_7  and  O_9
REMARK    5  A    between atoms: O_9  and  C_10
REMARK    6  A    between atoms: C_12  and  C_13
REMARK    7  A    between atoms: C_14  and  C_15
REMARK                            x       y       z     vdW  Elec       q    Type
REMARK                         _______ _______ _______ _____ _____    ______ ____
ROOT
ATOM      1  C   UNL     1      -0.500  12.112  21.938  0.00  0.00    +0.000 A 
ATOM      2  C   UNL     1       0.044  13.267  21.368  0.00  0.00    +0.000 A 
ATOM      3  N   UNL     1      -0.748  14.308  21.818  0.00  0.00    +0.000 N 
ATOM      4  C   UNL     1      -1.779  13.854  22.600  0.00  0.00    +0.000 A 
ATOM      5  C   UNL     1      -2.795  14.584  23.228  0.00  0.00    +0.000 A 
ATOM      6  F   UNL     1      -2.870  15.914  23.086  0.00  0.00    +0.000 F 
ATOM      7  C   UNL     1      -3.732  13.911  23.995  0.00  0.00    +0.000 A 
ATOM      8  C   UNL     1      -3.630  12.539  24.126  0.00  0.00    +0.000 A 
ATOM      9  F   UNL     1      -4.536  11.885  24.868  0.00  0.00    +0.000 F 
ATOM     10  C   UNL     1      -2.613  11.808  23.500  0.00  0.00    +0.000 A 
ATOM     11  C   UNL     1      -1.657  12.473  22.705  0.00  0.00    +0.000 A 
ATOM     12  H   UNL     1      -0.591  15.284  21.616  0.00  0.00    +0.000 HD
ENDROOT
BRANCH   2  13
ATOM     13  C   UNL     1       1.186  13.539  20.467  0.00  0.00    +0.000 A 
ATOM     14  C   UNL     1       1.125  13.158  19.112  0.00  0.00    +0.000 A 
ATOM     15  C   UNL     1       2.193  13.397  18.239  0.00  0.00    +0.000 A 
ATOM     16  C   UNL     1       3.346  13.999  18.718  0.00  0.00    +0.000 A 
ATOM     17  F   UNL     1       4.378  14.210  17.892  0.00  0.00    +0.000 F 
ATOM     18  C   UNL     1       3.437  14.391  20.044  0.00  0.00    +0.000 A 
ATOM     19  C   UNL     1       2.354  14.180  20.905  0.00  0.00    +0.000 A 
ENDBRANCH   2  13
BRANCH   1  22
ATOM     20  C   UNL     1       0.073   8.661  21.350  0.00  0.00    +0.000 C 
ATOM     21  C   UNL     1      -0.391   9.497  22.586  0.00  0.00    +0.000 C 
ATOM     22  C   UNL     1       0.097  10.726  21.796  0.00  0.00    +0.000 C 
ATOM     23  C   UNL     1      -0.314   9.928  20.525  0.00  0.00    +0.000 C 
BRANCH  20  24
ATOM     24  O   UNL     1       1.476   8.307  21.273  0.00  0.00    +0.000 OA
BRANCH  24  26
ATOM     25  N   UNL     1       2.284   6.531  20.096  0.00  0.00    +0.000 N 
ATOM     26  C   UNL     1       1.883   7.841  20.065  0.00  0.00    +0.000 C 
ATOM     27  O   UNL     1       1.943   8.509  19.042  0.00  0.00    +0.000 OA
ATOM     28  H   UNL     1       2.681   6.250  19.203  0.00  0.00    +0.000 HD
BRANCH  25  32
ATOM     29  C   UNL     1       1.812   2.087  20.123  0.00  0.00    +0.000 C 
ATOM     30  C   UNL     1       2.131   3.569  19.992  0.00  0.00    +0.000 C 
ATOM     31  C   UNL     1       0.874   4.480  20.015  0.00  0.00    +0.000 C 
ATOM     32  C   UNL     1       1.655   5.471  20.916  0.00  0.00    +0.000 C 
ATOM     33  C   UNL     1       2.587   4.291  21.290  0.00  0.00    +0.000 C 
BRANCH  30  34
ATOM     34  O   UNL     1       3.021   3.774  18.869  0.00  0.00    +0.000 OA
ATOM     35  H   UNL     1       3.694   3.074  18.935  0.00  0.00    +0.000 HD
ENDBRANCH  30  34
ENDBRANCH  25  32
ENDBRANCH  24  26
ENDBRANCH  20  24
ENDBRANCH   1  22
TORSDOF 6
ENDMDL
MODEL 9
REMARK VINA RESULT:      -7.7      4.536     10.136
REMARK  Name = 
REMARK  7 active torsions:
REMARK  status: ('A' for Active; 'I' for Inactive)
REMARK    1  A    between atoms: C_1  and  C_2
REMARK    2  A    between atoms: C_2  and  O_3
REMARK    3  A    between atoms: C_5  and  N_6
REMARK    4  A    between atoms: C_7  and  O_9
REMARK    5  A    between atoms: O_9  and  C_10
REMARK    6  A    between atoms: C_12  and  C_13
REMARK    7  A    between atoms: C_14  and  C_15
REMARK                            x       y       z     vdW  Elec       q    Type
REMARK                         _______ _______ _______ _____ _____    ______ ____
ROOT
ATOM      1  C   UNL     1       0.673  12.489  19.081  0.00  0.00    +0.000 A 
ATOM      2  C   UNL     1      -0.587  12.955  18.697  0.00  0.00    +0.000 A 
ATOM      3  N   UNL     1      -0.431  14.314  18.493  0.00  0.00    +0.000 N 
ATOM      4  C   UNL     1       0.847  14.722  18.773  0.00  0.00    +0.000 A 
ATOM      5  C   UNL     1       1.397  16.007  18.705  0.00  0.00    +0.000 A 
ATOM      6  F   UNL     1       0.642  17.055  18.350  0.00  0.00    +0.000 F 
ATOM      7  C   UNL     1       2.734  16.185  19.020  0.00  0.00    +0.000 A 
ATOM      8  C   UNL     1       3.490  15.086  19.383  0.00  0.00    +0.000 A 
ATOM      9  F   UNL     1       4.784  15.255  19.688  0.00  0.00    +0.000 F 
ATOM     10  C   UNL     1       2.942  13.799  19.449  0.00  0.00    +0.000 A 
ATOM     11  C   UNL     1       1.580  13.599  19.145  0.00  0.00    +0.000 A 
ATOM     12  H   UNL     1      -1.155  14.937  18.166  0.00  0.00    +0.000 HD
ENDROOT
BRANCH   2  13
ATOM     13  C   UNL     1      -1.910  12.322  18.496  0.00  0.00    +0.000 A 
ATOM     14  C   UNL     1      -2.162  11.562  17.336  0.00  0.00    +0.000 A 
ATOM     15  C   UNL     1      -3.406  10.958  17.116  0.00  0.00    +0.000 A 
ATOM     16  C   UNL     1      -4.421  11.127  18.045  0.00  0.00    +0.000 A 
ATOM     17  F   UNL     1      -5.618  10.569  17.830  0.00  0.00    +0.000 F 
ATOM     18  C   UNL     1      -4.205  11.863  19.199  0.00  0.00    +0.000 A 
ATOM     19  C   UNL     1      -2.950  12.438  19.429  0.00  0.00    +0.000 A 
ENDBRANCH   2  13
BRANCH   1  22
ATOM     20  C   UNL     1       0.898   8.951  18.975  0.00  0.00    +0.000 C 
ATOM     21  C   UNL     1      -0.035   9.964  19.711  0.00  0.00    +0.000 C 
ATOM     22  C   UNL     1       1.008  11.031  19.326  0.00  0.00    +0.000 C 
ATOM     23  C   UNL     1       1.258  10.162  18.059  0.00  0.00    +0.000 C 
BRANCH  20  24
ATOM     24  O   UNL     1       2.020   8.414  19.720  0.00  0.00    +0.000 OA
BRANCH  24  26
ATOM     25  N   UNL     1       1.646   6.386  20.689  0.00  0.00    +0.000 N 
ATOM     26  C   UNL     1       1.688   7.745  20.853  0.00  0.00    +0.000 C 
ATOM     27  O   UNL     1       1.402   8.275  21.919  0.00  0.00    +0.000 OA
ATOM     28  H   UNL     1       1.291   5.928  21.525  0.00  0.00    +0.000 HD
BRANCH  25  32
ATOM     29  C   UNL     1       2.063   2.263  19.015  0.00  0.00    +0.000 C 
ATOM     30  C   UNL     1       1.724   3.624  19.607  0.00  0.00    +0.000 C 
ATOM     31  C   UNL     1       2.863   4.224  20.477  0.00  0.00    +0.000 C 
ATOM     32  C   UNL     1       2.571   5.606  19.837  0.00  0.00    +0.000 C 
ATOM     33  C   UNL     1       1.900   4.847  18.664  0.00  0.00    +0.000 C 
BRANCH  30  34
ATOM     34  O   UNL     1       0.427   3.564  20.246  0.00  0.00    +0.000 OA
ATOM     35  H   UNL     1       0.541   2.987  21.021  0.00  0.00    +0.000 HD
ENDBRANCH  30  34
ENDBRANCH  25  32
ENDBRANCH  24  26
ENDBRANCH  20  24
ENDBRANCH   1  22
TORSDOF 6
ENDMDL
