MODEL 1
REMARK VINA RESULT:      -8.3      0.000      0.000
REMARK  Name = 
REMARK  6 active torsions:
REMARK  status: ('A' for Active; 'I' for Inactive)
REMARK    1  A    between atoms: C_2  and  O_3
REMARK    2  A    between atoms: C_2  and  C_21
REMARK    3  A    between atoms: O_3  and  C_4
REMARK    4  A    between atoms: C_4  and  C_5
REMARK    5  A    between atoms: C_4  and  C_11
REMARK    6  A    between atoms: C_5  and  N_6
REMARK                            x       y       z     vdW  Elec       q    Type
REMARK                         _______ _______ _______ _____ _____    ______ ____
ROOT
ATOM      1  C   UNL     1       3.897   6.236  17.751  0.00  0.00    +0.000 C 
ENDROOT
BRANCH   1   2
ATOM      2  C   UNL     1       2.973   7.320  18.322  0.00  0.00    +0.000 A 
ATOM      3  C   UNL     1       2.589   8.421  17.538  0.00  0.00    +0.000 A 
ATOM      4  C   UNL     1       1.646   9.344  18.004  0.00  0.00    +0.000 A 
ATOM      5  C   UNL     1       1.088   9.219  19.284  0.00  0.00    +0.000 A 
ATOM      6  C   UNL     1       0.113  10.112  19.757  0.00  0.00    +0.000 A 
ATOM      7  C   UNL     1      -0.415   9.976  21.042  0.00  0.00    +0.000 A 
ATOM      8  C   UNL     1       0.029   8.951  21.871  0.00  0.00    +0.000 A 
ATOM      9  C   UNL     1       0.989   8.049  21.409  0.00  0.00    +0.000 A 
ATOM     10  C   UNL     1       1.518   8.163  20.114  0.00  0.00    +0.000 A 
ATOM     11  C   UNL     1       2.453   7.234  19.624  0.00  0.00    +0.000 A 
ENDBRANCH   1   2
BRANCH   1  12
ATOM     12  O   UNL     1       3.101   5.103  17.303  0.00  0.00    +0.000 OA
BRANCH  12  14
ATOM     13  O   UNL     1       4.214   3.112  17.154  0.00  0.00    +0.000 OA
ATOM     14  C   UNL     1       3.449   3.867  17.730  0.00  0.00    +0.000 C 
BRANCH  14  15
ATOM     15  C   UNL     1       2.840   3.557  19.058  0.00  0.00    +0.000 A 
ATOM     16  C   UNL     1       1.463   3.772  19.229  0.00  0.00    +0.000 A 
ATOM     17  C   UNL     1       0.819   3.359  20.402  0.00  0.00    +0.000 A 
ATOM     18  C   UNL     1       1.551   2.734  21.409  0.00  0.00    +0.000 A 
ATOM     19 CL   UNL     1       0.749   2.144  22.812  0.00  0.00    +0.000 Cl
ATOM     20  C   UNL     1       2.927   2.558  21.272  0.00  0.00    +0.000 A 
ATOM     21  C   UNL     1       3.572   2.976  20.103  0.00  0.00    +0.000 A 
ENDBRANCH  14  15
ENDBRANCH  12  14
ENDBRANCH   1  12
BRANCH   1  22
ATOM     22  C   UNL     1       4.838   6.792  16.655  0.00  0.00    +0.000 C 
BRANCH  22  23
ATOM     23  N   UNL     1       5.814   5.843  16.157  0.00  0.00    +0.000 N 
ATOM     24  C   UNL     1       5.825   5.253  14.924  0.00  0.00    +0.000 A 
ATOM     25  C   UNL     1       6.994   4.534  14.887  0.00  0.00    +0.000 A 
ATOM     26  N   UNL     1       7.690   4.674  16.058  0.00  0.00    +0.000 NA
ATOM     27  C   UNL     1       6.961   5.476  16.798  0.00  0.00    +0.000 A 
ENDBRANCH  22  23
ENDBRANCH   1  22
TORSDOF 6
ENDMDL
MODEL 2
REMARK VINA RESULT:      -8.2      0.611      1.349
REMARK  Name = 
REMARK  6 active torsions:
REMARK  status: ('A' for Active; 'I' for Inactive)
REMARK    1  A    between atoms: C_2  and  O_3
REMARK    2  A    between atoms: C_2  and  C_21
REMARK    3  A    between atoms: O_3  and  C_4
REMARK    4  A    between atoms: C_4  and  C_5
REMARK    5  A    between atoms: C_4  and  C_11
REMARK    6  A    between atoms: C_5  and  N_6
REMARK                            x       y       z     vdW  Elec       q    Type
REMARK                         _______ _______ _______ _____ _____    ______ ____
ROOT
ATOM      1  C   UNL     1       3.756   6.312  18.014  0.00  0.00    +0.000 C 
ENDROOT
BRANCH   1   2
ATOM      2  C   UNL     1       2.850   7.446  18.512  0.00  0.00    +0.000 A 
ATOM      3  C   UNL     1       2.515   8.520  17.669  0.00  0.00    +0.000 A 
ATOM      4  C   UNL     1       1.586   9.488  18.069  0.00  0.00    +0.000 A 
ATOM      5  C   UNL     1       0.997   9.437  19.339  0.00  0.00    +0.000 A 
ATOM      6  C   UNL     1       0.036  10.377  19.747  0.00  0.00    +0.000 A 
ATOM      7  C   UNL     1      -0.525  10.315  21.024  0.00  0.00    +0.000 A 
ATOM      8  C   UNL     1      -0.129   9.319  21.910  0.00  0.00    +0.000 A 
ATOM      9  C   UNL     1       0.816   8.371  21.513  0.00  0.00    +0.000 A 
ATOM     10  C   UNL     1       1.378   8.411  20.228  0.00  0.00    +0.000 A 
ATOM     11  C   UNL     1       2.298   7.436  19.803  0.00  0.00    +0.000 A 
ENDBRANCH   1   2
BRANCH   1  12
ATOM     12  O   UNL     1       2.961   5.337  17.284  0.00  0.00    +0.000 OA
BRANCH  12  14
ATOM     13  O   UNL     1       3.990   3.378  16.710  0.00  0.00    +0.000 OA
ATOM     14  C   UNL     1       3.256   4.026  17.439  0.00  0.00    +0.000 C 
BRANCH  14  15
ATOM     15  C   UNL     1       2.633   3.468  18.676  0.00  0.00    +0.000 A 
ATOM     16  C   UNL     1       3.473   3.098  19.739  0.00  0.00    +0.000 A 
ATOM     17  C   UNL     1       2.932   2.709  20.971  0.00  0.00    +0.000 A 
ATOM     18  C   UNL     1       1.550   2.687  21.143  0.00  0.00    +0.000 A 
ATOM     19 CL   UNL     1       0.883   2.298  22.680  0.00  0.00    +0.000 Cl
ATOM     20  C   UNL     1       0.705   3.005  20.081  0.00  0.00    +0.000 A 
ATOM     21  C   UNL     1       1.244   3.387  18.848  0.00  0.00    +0.000 A 
ENDBRANCH  14  15
ENDBRANCH  12  14
ENDBRANCH   1  12
BRANCH   1  22
ATOM     22  C   UNL     1       4.962   6.846  17.204  0.00  0.00    +0.000 C 
BRANCH  22  23
ATOM     23  N   UNL     1       6.133   5.991  17.227  0.00  0.00    +0.000 N 
ATOM     24  C   UNL     1       6.674   5.375  18.320  0.00  0.00    +0.000 A 
ATOM     25  C   UNL     1       7.688   4.596  17.821  0.00  0.00    +0.000 A 
ATOM     26  N   UNL     1       7.774   4.720  16.460  0.00  0.00    +0.000 NA
ATOM     27  C   UNL     1       6.818   5.558  16.129  0.00  0.00    +0.000 A 
ENDBRANCH  22  23
ENDBRANCH   1  22
TORSDOF 6
ENDMDL
MODEL 3
REMARK VINA RESULT:      -8.0      0.619      1.776
REMARK  Name = 
REMARK  6 active torsions:
REMARK  status: ('A' for Active; 'I' for Inactive)
REMARK    1  A    between atoms: C_2  and  O_3
REMARK    2  A    between atoms: C_2  and  C_21
REMARK    3  A    between atoms: O_3  and  C_4
REMARK    4  A    between atoms: C_4  and  C_5
REMARK    5  A    between atoms: C_4  and  C_11
REMARK    6  A    between atoms: C_5  and  N_6
REMARK                            x       y       z     vdW  Elec       q    Type
REMARK                         _______ _______ _______ _____ _____    ______ ____
ROOT
ATOM      1  C   UNL     1       3.913   5.949  17.823  0.00  0.00    +0.000 C 
ENDROOT
BRANCH   1   2
ATOM      2  C   UNL     1       2.936   6.895  18.534  0.00  0.00    +0.000 A 
ATOM      3  C   UNL     1       2.441   6.587  19.813  0.00  0.00    +0.000 A 
ATOM      4  C   UNL     1       1.656   7.503  20.522  0.00  0.00    +0.000 A 
ATOM      5  C   UNL     1       1.305   8.738  19.957  0.00  0.00    +0.000 A 
ATOM      6  C   UNL     1       0.548   9.687  20.665  0.00  0.00    +0.000 A 
ATOM      7  C   UNL     1       0.198  10.902  20.075  0.00  0.00    +0.000 A 
ATOM      8  C   UNL     1       0.592  11.181  18.770  0.00  0.00    +0.000 A 
ATOM      9  C   UNL     1       1.354  10.252  18.060  0.00  0.00    +0.000 A 
ATOM     10  C   UNL     1       1.728   9.032  18.645  0.00  0.00    +0.000 A 
ATOM     11  C   UNL     1       2.532   8.109  17.954  0.00  0.00    +0.000 A 
ENDBRANCH   1   2
BRANCH   1  12
ATOM     12  O   UNL     1       3.173   4.861  17.201  0.00  0.00    +0.000 OA
BRANCH  12  14
ATOM     13  O   UNL     1       4.319   2.900  16.944  0.00  0.00    +0.000 OA
ATOM     14  C   UNL     1       3.504   3.591  17.532  0.00  0.00    +0.000 C 
BRANCH  14  15
ATOM     15  C   UNL     1       2.802   3.149  18.774  0.00  0.00    +0.000 A 
ATOM     16  C   UNL     1       3.576   2.812  19.895  0.00  0.00    +0.000 A 
ATOM     17  C   UNL     1       2.965   2.535  21.124  0.00  0.00    +0.000 A 
ATOM     18  C   UNL     1       1.577   2.591  21.235  0.00  0.00    +0.000 A 
ATOM     19 CL   UNL     1       0.828   2.340  22.762  0.00  0.00    +0.000 Cl
ATOM     20  C   UNL     1       0.795   2.877  20.117  0.00  0.00    +0.000 A 
ATOM     21  C   UNL     1       1.404   3.148  18.887  0.00  0.00    +0.000 A 
ENDBRANCH  14  15
ENDBRANCH  12  14
ENDBRANCH   1  12
BRANCH   1  22
ATOM     22  C   UNL     1       4.836   6.703  16.835  0.00  0.00    +0.000 C 
BRANCH  22  23
ATOM     23  N   UNL     1       5.788   5.862  16.135  0.00  0.00    +0.000 N 
ATOM     24  C   UNL     1       5.712   5.451  14.833  0.00  0.00    +0.000 A 
ATOM     25  C   UNL     1       6.888   4.779  14.607  0.00  0.00    +0.000 A 
ATOM     26  N   UNL     1       7.671   4.773  15.730  0.00  0.00    +0.000 NA
ATOM     27  C   UNL     1       6.987   5.442  16.630  0.00  0.00    +0.000 A 
ENDBRANCH  22  23
ENDBRANCH   1  22
TORSDOF 6
ENDMDL
MODEL 4
REMARK VINA RESULT:      -8.0      3.063      4.948
REMARK  Name = 
REMARK  6 active torsions:
REMARK  status: ('A' for Active; 'I' for Inactive)
REMARK    1  A    between atoms: C_2  and  O_3
REMARK    2  A    between atoms: C_2  and  C_21
REMARK    3  A    between atoms: O_3  and  C_4
REMARK    4  A    between atoms: C_4  and  C_5
REMARK    5  A    between atoms: C_4  and  C_11
REMARK    6  A    between atoms: C_5  and  N_6
REMARK                            x       y       z     vdW  Elec       q    Type
REMARK                         _______ _______ _______ _____ _____    ______ ____
ROOT
ATOM      1  C   UNL     1       3.475   5.950  18.705  0.00  0.00    +0.000 C 
ENDROOT
BRANCH   1   2
ATOM      2  C   UNL     1       2.685   7.256  18.865  0.00  0.00    +0.000 A 
ATOM      3  C   UNL     1       2.580   8.166  17.799  0.00  0.00    +0.000 A 
ATOM      4  C   UNL     1       1.755   9.293  17.892  0.00  0.00    +0.000 A 
ATOM      5  C   UNL     1       1.044   9.569  19.068  0.00  0.00    +0.000 A 
ATOM      6  C   UNL     1       0.182  10.673  19.170  0.00  0.00    +0.000 A 
ATOM      7  C   UNL     1      -0.503  10.935  20.357  0.00  0.00    +0.000 A 
ATOM      8  C   UNL     1      -0.331  10.102  21.458  0.00  0.00    +0.000 A 
ATOM      9  C   UNL     1       0.512   8.994  21.366  0.00  0.00    +0.000 A 
ATOM     10  C   UNL     1       1.196   8.708  20.175  0.00  0.00    +0.000 A 
ATOM     11  C   UNL     1       2.014   7.570  20.058  0.00  0.00    +0.000 A 
ENDBRANCH   1   2
BRANCH   1  12
ATOM     12  O   UNL     1       4.878   6.255  18.468  0.00  0.00    +0.000 OA
BRANCH  12  14
ATOM     13  O   UNL     1       6.244   4.683  19.411  0.00  0.00    +0.000 OA
ATOM     14  C   UNL     1       5.759   5.228  18.433  0.00  0.00    +0.000 C 
BRANCH  14  15
ATOM     15  C   UNL     1       6.013   4.774  17.033  0.00  0.00    +0.000 A 
ATOM     16  C   UNL     1       5.083   3.913  16.430  0.00  0.00    +0.000 A 
ATOM     17  C   UNL     1       5.198   3.578  15.075  0.00  0.00    +0.000 A 
ATOM     18  C   UNL     1       6.246   4.101  14.321  0.00  0.00    +0.000 A 
ATOM     19 CL   UNL     1       6.341   3.765  12.636  0.00  0.00    +0.000 Cl
ATOM     20  C   UNL     1       7.204   4.917  14.919  0.00  0.00    +0.000 A 
ATOM     21  C   UNL     1       7.093   5.248  16.275  0.00  0.00    +0.000 A 
ENDBRANCH  14  15
ENDBRANCH  12  14
ENDBRANCH   1  12
BRANCH   1  22
ATOM     22  C   UNL     1       3.253   4.988  19.897  0.00  0.00    +0.000 C 
BRANCH  22  23
ATOM     23  N   UNL     1       2.397   3.853  19.607  0.00  0.00    +0.000 N 
ATOM     24  C   UNL     1       1.058   3.754  19.860  0.00  0.00    +0.000 A 
ATOM     25  C   UNL     1       0.683   2.553  19.310  0.00  0.00    +0.000 A 
ATOM     26  N   UNL     1       1.754   1.926  18.730  0.00  0.00    +0.000 NA
ATOM     27  C   UNL     1       2.770   2.737  18.916  0.00  0.00    +0.000 A 
ENDBRANCH  22  23
ENDBRANCH   1  22
TORSDOF 6
ENDMDL
MODEL 5
REMARK VINA RESULT:      -8.0      3.105      4.871
REMARK  Name = 
REMARK  6 active torsions:
REMARK  status: ('A' for Active; 'I' for Inactive)
REMARK    1  A    between atoms: C_2  and  O_3
REMARK    2  A    between atoms: C_2  and  C_21
REMARK    3  A    between atoms: O_3  and  C_4
REMARK    4  A    between atoms: C_4  and  C_5
REMARK    5  A    between atoms: C_4  and  C_11
REMARK    6  A    between atoms: C_5  and  N_6
REMARK                            x       y       z     vdW  Elec       q    Type
REMARK                         _______ _______ _______ _____ _____    ______ ____
ROOT
ATOM      1  C   UNL     1       2.963   5.944  18.317  0.00  0.00    +0.000 C 
ENDROOT
BRANCH   1   2
ATOM      2  C   UNL     1       2.353   7.276  18.775  0.00  0.00    +0.000 A 
ATOM      3  C   UNL     1       2.143   8.321  17.860  0.00  0.00    +0.000 A 
ATOM      4  C   UNL     1       1.469   9.487  18.239  0.00  0.00    +0.000 A 
ATOM      5  C   UNL     1       1.022   9.663  19.556  0.00  0.00    +0.000 A 
ATOM      6  C   UNL     1       0.311  10.809  19.950  0.00  0.00    +0.000 A 
ATOM      7  C   UNL     1      -0.110  10.968  21.271  0.00  0.00    +0.000 A 
ATOM      8  C   UNL     1       0.180   9.988  22.216  0.00  0.00    +0.000 A 
ATOM      9  C   UNL     1       0.874   8.839  21.835  0.00  0.00    +0.000 A 
ATOM     10  C   UNL     1       1.291   8.658  20.507  0.00  0.00    +0.000 A 
ATOM     11  C   UNL     1       1.952   7.484  20.105  0.00  0.00    +0.000 A 
ENDBRANCH   1   2
BRANCH   1  12
ATOM     12  O   UNL     1       3.959   5.506  19.283  0.00  0.00    +0.000 OA
BRANCH  12  14
ATOM     13  O   UNL     1       6.220   5.601  19.604  0.00  0.00    +0.000 OA
ATOM     14  C   UNL     1       5.250   5.435  18.883  0.00  0.00    +0.000 C 
BRANCH  14  15
ATOM     15  C   UNL     1       5.356   5.043  17.446  0.00  0.00    +0.000 A 
ATOM     16  C   UNL     1       5.670   6.036  16.504  0.00  0.00    +0.000 A 
ATOM     17  C   UNL     1       5.926   5.694  15.170  0.00  0.00    +0.000 A 
ATOM     18  C   UNL     1       5.866   4.360  14.774  0.00  0.00    +0.000 A 
ATOM     19 CL   UNL     1       6.268   3.926  13.159  0.00  0.00    +0.000 Cl
ATOM     20  C   UNL     1       5.509   3.371  15.689  0.00  0.00    +0.000 A 
ATOM     21  C   UNL     1       5.246   3.712  17.021  0.00  0.00    +0.000 A 
ENDBRANCH  14  15
ENDBRANCH  12  14
ENDBRANCH   1  12
BRANCH   1  22
ATOM     22  C   UNL     1       1.879   4.876  18.032  0.00  0.00    +0.000 C 
BRANCH  22  23
ATOM     23  N   UNL     1       1.717   3.884  19.077  0.00  0.00    +0.000 N 
ATOM     24  C   UNL     1       2.376   2.691  19.181  0.00  0.00    +0.000 A 
ATOM     25  C   UNL     1       1.969   2.167  20.383  0.00  0.00    +0.000 A 
ATOM     26  N   UNL     1       1.088   3.007  21.009  0.00  0.00    +0.000 NA
ATOM     27  C   UNL     1       0.963   4.038  20.204  0.00  0.00    +0.000 A 
ENDBRANCH  22  23
ENDBRANCH   1  22
TORSDOF 6
ENDMDL
MODEL 6
REMARK VINA RESULT:      -8.0      3.141      5.174
REMARK  Name = 
REMARK  6 active torsions:
REMARK  status: ('A' for Active; 'I' for Inactive)
REMARK    1  A    between atoms: C_2  and  O_3
REMARK    2  A    between atoms: C_2  and  C_21
REMARK    3  A    between atoms: O_3  and  C_4
REMARK    4  A    between atoms: C_4  and  C_5
REMARK    5  A    between atoms: C_4  and  C_11
REMARK    6  A    between atoms: C_5  and  N_6
REMARK                            x       y       z     vdW  Elec       q    Type
REMARK                         _______ _______ _______ _____ _____    ______ ____
ROOT
ATOM      1  C   UNL     1       3.782   5.715  18.422  0.00  0.00    +0.000 C 
ENDROOT
BRANCH   1   2
ATOM      2  C   UNL     1       2.971   6.995  18.666  0.00  0.00    +0.000 A 
ATOM      3  C   UNL     1       2.849   7.970  17.662  0.00  0.00    +0.000 A 
ATOM      4  C   UNL     1       2.007   9.075  17.828  0.00  0.00    +0.000 A 
ATOM      5  C   UNL     1       1.292   9.262  19.019  0.00  0.00    +0.000 A 
ATOM      6  C   UNL     1       0.414  10.344  19.193  0.00  0.00    +0.000 A 
ATOM      7  C   UNL     1      -0.274  10.518  20.395  0.00  0.00    +0.000 A 
ATOM      8  C   UNL     1      -0.087   9.617  21.439  0.00  0.00    +0.000 A 
ATOM      9  C   UNL     1       0.774   8.531  21.276  0.00  0.00    +0.000 A 
ATOM     10  C   UNL     1       1.461   8.335  20.068  0.00  0.00    +0.000 A 
ATOM     11  C   UNL     1       2.296   7.220  19.877  0.00  0.00    +0.000 A 
ENDBRANCH   1   2
BRANCH   1  12
ATOM     12  O   UNL     1       5.179   6.057  18.209  0.00  0.00    +0.000 OA
BRANCH  12  14
ATOM     13  O   UNL     1       6.682   4.409  18.713  0.00  0.00    +0.000 OA
ATOM     14  C   UNL     1       6.043   5.061  17.904  0.00  0.00    +0.000 C 
BRANCH  14  15
ATOM     15  C   UNL     1       6.065   4.787  16.435  0.00  0.00    +0.000 A 
ATOM     16  C   UNL     1       7.209   5.146  15.705  0.00  0.00    +0.000 A 
ATOM     17  C   UNL     1       7.339   4.779  14.360  0.00  0.00    +0.000 A 
ATOM     18  C   UNL     1       6.323   4.055  13.740  0.00  0.00    +0.000 A 
ATOM     19 CL   UNL     1       6.517   3.524  12.116  0.00  0.00    +0.000 Cl
ATOM     20  C   UNL     1       5.161   3.735  14.440  0.00  0.00    +0.000 A 
ATOM     21  C   UNL     1       5.028   4.107  15.782  0.00  0.00    +0.000 A 
ENDBRANCH  14  15
ENDBRANCH  12  14
ENDBRANCH   1  12
BRANCH   1  22
ATOM     22  C   UNL     1       3.573   4.672  19.547  0.00  0.00    +0.000 C 
BRANCH  22  23
ATOM     23  N   UNL     1       2.407   3.827  19.380  0.00  0.00    +0.000 N 
ATOM     24  C   UNL     1       1.943   3.297  18.209  0.00  0.00    +0.000 A 
ATOM     25  C   UNL     1       0.897   2.488  18.578  0.00  0.00    +0.000 A 
ATOM     26  N   UNL     1       0.718   2.510  19.935  0.00  0.00    +0.000 NA
ATOM     27  C   UNL     1       1.648   3.316  20.392  0.00  0.00    +0.000 A 
ENDBRANCH  22  23
ENDBRANCH   1  22
TORSDOF 6
ENDMDL
MODEL 7
REMARK VINA RESULT:      -7.8      3.203      5.139
REMARK  Name = 
REMARK  6 active torsions:
REMARK  status: ('A' for Active; 'I' for Inactive)
REMARK    1  A    between atoms: C_2  and  O_3
REMARK    2  A    between atoms: C_2  and  C_21
REMARK    3  A    between atoms: O_3  and  C_4
REMARK    4  A    between atoms: C_4  and  C_5
REMARK    5  A    between atoms: C_4  and  C_11
REMARK    6  A    between atoms: C_5  and  N_6
REMARK                            x       y       z     vdW  Elec       q    Type
REMARK                         _______ _______ _______ _____ _____    ______ ____
ROOT
ATOM      1  C   UNL     1       2.920   5.184  18.130  0.00  0.00    +0.000 C 
ENDROOT
BRANCH   1   2
ATOM      2  C   UNL     1       2.477   6.597  18.531  0.00  0.00    +0.000 A 
ATOM      3  C   UNL     1       2.353   7.611  17.567  0.00  0.00    +0.000 A 
ATOM      4  C   UNL     1       1.825   8.864  17.902  0.00  0.00    +0.000 A 
ATOM      5  C   UNL     1       1.444   9.155  19.219  0.00  0.00    +0.000 A 
ATOM      6  C   UNL     1       0.878  10.392  19.569  0.00  0.00    +0.000 A 
ATOM      7  C   UNL     1       0.522  10.664  20.891  0.00  0.00    +0.000 A 
ATOM      8  C   UNL     1       0.733   9.707  21.879  0.00  0.00    +0.000 A 
ATOM      9  C   UNL     1       1.283   8.469  21.543  0.00  0.00    +0.000 A 
ATOM     10  C   UNL     1       1.632   8.175  20.215  0.00  0.00    +0.000 A 
ATOM     11  C   UNL     1       2.146   6.916  19.859  0.00  0.00    +0.000 A 
ENDBRANCH   1   2
BRANCH   1  12
ATOM     12  O   UNL     1       4.243   4.915  18.673  0.00  0.00    +0.000 OA
BRANCH  12  14
ATOM     13  O   UNL     1       5.335   3.743  17.042  0.00  0.00    +0.000 OA
ATOM     14  C   UNL     1       5.257   4.691  17.805  0.00  0.00    +0.000 C 
BRANCH  14  15
ATOM     15  C   UNL     1       6.253   5.804  17.831  0.00  0.00    +0.000 A 
ATOM     16  C   UNL     1       5.988   6.957  17.074  0.00  0.00    +0.000 A 
ATOM     17  C   UNL     1       6.814   8.082  17.180  0.00  0.00    +0.000 A 
ATOM     18  C   UNL     1       7.909   8.058  18.040  0.00  0.00    +0.000 A 
ATOM     19 CL   UNL     1       8.873   9.468  18.241  0.00  0.00    +0.000 Cl
ATOM     20  C   UNL     1       8.212   6.903  18.760  0.00  0.00    +0.000 A 
ATOM     21  C   UNL     1       7.390   5.775  18.650  0.00  0.00    +0.000 A 
ENDBRANCH  14  15
ENDBRANCH  12  14
ENDBRANCH   1  12
BRANCH   1  22
ATOM     22  C   UNL     1       1.871   4.113  18.519  0.00  0.00    +0.000 C 
BRANCH  22  23
ATOM     23  N   UNL     1       2.115   3.463  19.793  0.00  0.00    +0.000 N 
ATOM     24  C   UNL     1       2.976   2.429  20.031  0.00  0.00    +0.000 A 
ATOM     25  C   UNL     1       2.937   2.244  21.391  0.00  0.00    +0.000 A 
ATOM     26  N   UNL     1       2.082   3.137  21.981  0.00  0.00    +0.000 NA
ATOM     27  C   UNL     1       1.610   3.864  20.995  0.00  0.00    +0.000 A 
ENDBRANCH  22  23
ENDBRANCH   1  22
TORSDOF 6
ENDMDL
MODEL 8
REMARK VINA RESULT:      -7.8      3.063      4.880
REMARK  Name = 
REMARK  6 active torsions:
REMARK  status: ('A' for Active; 'I' for Inactive)
REMARK    1  A    between atoms: C_2  and  O_3
REMARK    2  A    between atoms: C_2  and  C_21
REMARK    3  A    between atoms: O_3  and  C_4
REMARK    4  A    between atoms: C_4  and  C_5
REMARK    5  A    between atoms: C_4  and  C_11
REMARK    6  A    between atoms: C_5  and  N_6
REMARK                            x       y       z     vdW  Elec       q    Type
REMARK                         _______ _______ _______ _____ _____    ______ ____
ROOT
ATOM      1  C   UNL     1       2.967   6.471  18.625  0.00  0.00    +0.000 C 
ENDROOT
BRANCH   1   2
ATOM      2  C   UNL     1       2.184   7.714  19.068  0.00  0.00    +0.000 A 
ATOM      3  C   UNL     1       1.840   8.713  18.142  0.00  0.00    +0.000 A 
ATOM      4  C   UNL     1       1.015   9.783  18.508  0.00  0.00    +0.000 A 
ATOM      5  C   UNL     1       0.545   9.911  19.822  0.00  0.00    +0.000 A 
ATOM      6  C   UNL     1      -0.313  10.956  20.203  0.00  0.00    +0.000 A 
ATOM      7  C   UNL     1      -0.755  11.072  21.521  0.00  0.00    +0.000 A 
ATOM      8  C   UNL     1      -0.340  10.149  22.477  0.00  0.00    +0.000 A 
ATOM      9  C   UNL     1       0.502   9.099  22.110  0.00  0.00    +0.000 A 
ATOM     10  C   UNL     1       0.943   8.960  20.784  0.00  0.00    +0.000 A 
ATOM     11  C   UNL     1       1.756   7.881  20.395  0.00  0.00    +0.000 A 
ENDBRANCH   1   2
BRANCH   1  12
ATOM     12  O   UNL     1       4.321   6.853  18.258  0.00  0.00    +0.000 OA
BRANCH  12  14
ATOM     13  O   UNL     1       5.918   5.521  19.208  0.00  0.00    +0.000 OA
ATOM     14  C   UNL     1       5.275   5.893  18.240  0.00  0.00    +0.000 C 
BRANCH  14  15
ATOM     15  C   UNL     1       5.397   5.268  16.889  0.00  0.00    +0.000 A 
ATOM     16  C   UNL     1       5.266   6.090  15.758  0.00  0.00    +0.000 A 
ATOM     17  C   UNL     1       5.517   5.583  14.477  0.00  0.00    +0.000 A 
ATOM     18  C   UNL     1       5.898   4.252  14.323  0.00  0.00    +0.000 A 
ATOM     19 CL   UNL     1       6.295   3.649  12.762  0.00  0.00    +0.000 Cl
ATOM     20  C   UNL     1       5.984   3.413  15.433  0.00  0.00    +0.000 A 
ATOM     21  C   UNL     1       5.727   3.917  16.713  0.00  0.00    +0.000 A 
ENDBRANCH  14  15
ENDBRANCH  12  14
ENDBRANCH   1  12
BRANCH   1  22
ATOM     22  C   UNL     1       2.917   5.345  19.687  0.00  0.00    +0.000 C 
BRANCH  22  23
ATOM     23  N   UNL     1       2.170   4.168  19.287  0.00  0.00    +0.000 N 
ATOM     24  C   UNL     1       1.085   3.634  19.924  0.00  0.00    +0.000 A 
ATOM     25  C   UNL     1       0.668   2.609  19.111  0.00  0.00    +0.000 A 
ATOM     26  N   UNL     1       1.466   2.511  18.002  0.00  0.00    +0.000 NA
ATOM     27  C   UNL     1       2.354   3.469  18.131  0.00  0.00    +0.000 A 
ENDBRANCH  22  23
ENDBRANCH   1  22
TORSDOF 6
ENDMDL
MODEL 9
REMARK VINA RESULT:      -7.7      1.195      1.411
REMARK  Name = 
REMARK  6 active torsions:
REMARK  status: ('A' for Active; 'I' for Inactive)
REMARK    1  A    between atoms: C_2  and  O_3
REMARK    2  A    between atoms: C_2  and  C_21
REMARK    3  A    between atoms: O_3  and  C_4
REMARK    4  A    between atoms: C_4  and  C_5
REMARK    5  A    between atoms: C_4  and  C_11
REMARK    6  A    between atoms: C_5  and  N_6
REMARK                            x       y       z     vdW  Elec       q    Type
REMARK                         _______ _______ _______ _____ _____    ______ ____
ROOT
ATOM      1  C   UNL     1       3.793   6.346  17.936  0.00  0.00    +0.000 C 
ENDROOT
BRANCH   1   2
ATOM      2  C   UNL     1       2.876   7.469  18.441  0.00  0.00    +0.000 A 
ATOM      3  C   UNL     1       2.523   8.539  17.600  0.00  0.00    +0.000 A 
ATOM      4  C   UNL     1       1.586   9.496  18.007  0.00  0.00    +0.000 A 
ATOM      5  C   UNL     1       1.006   9.438  19.282  0.00  0.00    +0.000 A 
ATOM      6  C   UNL     1       0.037  10.366  19.697  0.00  0.00    +0.000 A 
ATOM      7  C   UNL     1      -0.515  10.297  20.977  0.00  0.00    +0.000 A 
ATOM      8  C   UNL     1      -0.100   9.305  21.860  0.00  0.00    +0.000 A 
ATOM      9  C   UNL     1       0.853   8.369  21.456  0.00  0.00    +0.000 A 
ATOM     10  C   UNL     1       1.406   8.416  20.167  0.00  0.00    +0.000 A 
ATOM     11  C   UNL     1       2.334   7.452  19.736  0.00  0.00    +0.000 A 
ENDBRANCH   1   2
BRANCH   1  12
ATOM     12  O   UNL     1       2.991   5.310  17.304  0.00  0.00    +0.000 OA
BRANCH  12  14
ATOM     13  O   UNL     1       3.903   3.249  16.919  0.00  0.00    +0.000 OA
ATOM     14  C   UNL     1       3.257   4.019  17.610  0.00  0.00    +0.000 C 
BRANCH  14  15
ATOM     15  C   UNL     1       2.727   3.658  18.959  0.00  0.00    +0.000 A 
ATOM     16  C   UNL     1       1.367   3.884  19.226  0.00  0.00    +0.000 A 
ATOM     17  C   UNL     1       0.791   3.429  20.418  0.00  0.00    +0.000 A 
ATOM     18  C   UNL     1       1.573   2.748  21.348  0.00  0.00    +0.000 A 
ATOM     19 CL   UNL     1       0.850   2.108  22.772  0.00  0.00    +0.000 Cl
ATOM     20  C   UNL     1       2.934   2.559  21.117  0.00  0.00    +0.000 A 
ATOM     21  C   UNL     1       3.513   3.020  19.929  0.00  0.00    +0.000 A 
ENDBRANCH  14  15
ENDBRANCH  12  14
ENDBRANCH   1  12
BRANCH   1  22
ATOM     22  C   UNL     1       4.923   6.884  17.026  0.00  0.00    +0.000 C 
BRANCH  22  23
ATOM     23  N   UNL     1       6.251   6.819  17.607  0.00  0.00    +0.000 N 
ATOM     24  C   UNL     1       7.215   7.786  17.553  0.00  0.00    +0.000 A 
ATOM     25  C   UNL     1       8.237   7.309  18.336  0.00  0.00    +0.000 A 
ATOM     26  N   UNL     1       7.919   6.086  18.862  0.00  0.00    +0.000 NA
ATOM     27  C   UNL     1       6.713   5.821  18.414  0.00  0.00    +0.000 A 
ENDBRANCH  22  23
ENDBRANCH   1  22
TORSDOF 6
ENDMDL
