MODEL 1
REMARK VINA RESULT:      -8.3      0.000      0.000
REMARK  Name = 
REMARK  3 active torsions:
REMARK  status: ('A' for Active; 'I' for Inactive)
REMARK    1  A    between atoms: O_1  and  C_2
REMARK    2  A    between atoms: C_8  and  C_9
REMARK    3  A    between atoms: C_12  and  C_13
REMARK                            x       y       z     vdW  Elec       q    Type
REMARK                         _______ _______ _______ _____ _____    ______ ____
ROOT
ATOM      1  C   UNL     1       3.952   5.359  18.762  0.00  0.00    +0.000 A 
ATOM      2  N   UNL     1       3.134   4.529  19.379  0.00  0.00    +0.000 NA
ATOM      3  N   UNL     1       2.204   5.314  20.032  0.00  0.00    +0.000 NA
ATOM      4  C   UNL     1       2.499   6.569  19.745  0.00  0.00    +0.000 A 
ATOM      5  O   UNL     1       3.585   6.666  18.915  0.00  0.00    +0.000 OA
ENDROOT
BRANCH   4   6
ATOM      6  C   UNL     1       1.775   7.692  20.235  0.00  0.00    +0.000 A 
ATOM      7  C   UNL     1       1.339   8.818  19.571  0.00  0.00    +0.000 A 
ATOM      8  C   UNL     1       0.620   9.623  20.498  0.00  0.00    +0.000 A 
ATOM      9  C   UNL     1      -0.075  10.843  20.403  0.00  0.00    +0.000 A 
ATOM     10  C   UNL     1      -0.701  11.366  21.539  0.00  0.00    +0.000 A 
ATOM     11  C   UNL     1      -0.628  10.698  22.759  0.00  0.00    +0.000 A 
ATOM     12  C   UNL     1       0.064   9.488  22.882  0.00  0.00    +0.000 A 
ATOM     13  C   UNL     1       0.669   8.970  21.731  0.00  0.00    +0.000 A 
ATOM     14  N   UNL     1       1.385   7.807  21.544  0.00  0.00    +0.000 N 
ATOM     15  H   UNL     1       1.586   7.125  22.263  0.00  0.00    +0.000 HD
ENDBRANCH   4   6
BRANCH   1  22
ATOM     16  C   UNL     1       6.428   5.038  18.482  0.00  0.00    +0.000 A 
ATOM     17  C   UNL     1       7.524   4.709  17.680  0.00  0.00    +0.000 A 
ATOM     18  C   UNL     1       7.334   4.415  16.330  0.00  0.00    +0.000 A 
ATOM     19  C   UNL     1       6.051   4.453  15.791  0.00  0.00    +0.000 A 
ATOM     20 BR   UNL     1       5.795   4.059  13.960  0.00  0.00    +0.000 Br
ATOM     21  C   UNL     1       4.953   4.773  16.590  0.00  0.00    +0.000 A 
ATOM     22  C   UNL     1       5.126   5.075  17.953  0.00  0.00    +0.000 A 
BRANCH  16  23
ATOM     23  O   UNL     1       6.632   5.292  19.810  0.00  0.00    +0.000 OA
ATOM     24  H   UNL     1       6.166   6.106  20.064  0.00  0.00    +0.000 HD
ENDBRANCH  16  23
ENDBRANCH   1  22
TORSDOF 3
ENDMDL
MODEL 2
REMARK VINA RESULT:      -7.9      7.817      9.684
REMARK  Name = 
REMARK  3 active torsions:
REMARK  status: ('A' for Active; 'I' for Inactive)
REMARK    1  A    between atoms: O_1  and  C_2
REMARK    2  A    between atoms: C_8  and  C_9
REMARK    3  A    between atoms: C_12  and  C_13
REMARK                            x       y       z     vdW  Elec       q    Type
REMARK                         _______ _______ _______ _____ _____    ______ ____
ROOT
ATOM      1  C   UNL     1       9.969  12.053  18.822  0.00  0.00    +0.000 A 
ATOM      2  N   UNL     1       9.975  11.659  20.081  0.00  0.00    +0.000 NA
ATOM      3  N   UNL     1       9.379  10.414  20.101  0.00  0.00    +0.000 NA
ATOM      4  C   UNL     1       9.077  10.117  18.850  0.00  0.00    +0.000 A 
ATOM      5  O   UNL     1       9.453  11.107  17.981  0.00  0.00    +0.000 OA
ENDROOT
BRANCH   4   6
ATOM      6  C   UNL     1       8.438   8.911  18.446  0.00  0.00    +0.000 A 
ATOM      7  C   UNL     1       7.551   8.685  17.416  0.00  0.00    +0.000 A 
ATOM      8  C   UNL     1       7.241   7.297  17.401  0.00  0.00    +0.000 A 
ATOM      9  C   UNL     1       6.442   6.481  16.579  0.00  0.00    +0.000 A 
ATOM     10  C   UNL     1       6.366   5.109  16.841  0.00  0.00    +0.000 A 
ATOM     11  C   UNL     1       7.060   4.553  17.913  0.00  0.00    +0.000 A 
ATOM     12  C   UNL     1       7.854   5.345  18.751  0.00  0.00    +0.000 A 
ATOM     13  C   UNL     1       7.934   6.711  18.462  0.00  0.00    +0.000 A 
ATOM     14  N   UNL     1       8.642   7.716  19.086  0.00  0.00    +0.000 N 
ATOM     15  H   UNL     1       9.241   7.593  19.892  0.00  0.00    +0.000 HD
ENDBRANCH   4   6
BRANCH   1  22
ATOM     16  C   UNL     1      11.557  13.361  17.379  0.00  0.00    +0.000 A 
ATOM     17  C   UNL     1      11.949  14.568  16.795  0.00  0.00    +0.000 A 
ATOM     18  C   UNL     1      11.233  15.735  17.064  0.00  0.00    +0.000 A 
ATOM     19  C   UNL     1      10.132  15.686  17.915  0.00  0.00    +0.000 A 
ATOM     20 BR   UNL     1       9.166  17.269  18.283  0.00  0.00    +0.000 Br
ATOM     21  C   UNL     1       9.733  14.481  18.494  0.00  0.00    +0.000 A 
ATOM     22  C   UNL     1      10.444  13.296  18.236  0.00  0.00    +0.000 A 
BRANCH  16  23
ATOM     23  O   UNL     1      12.253  12.223  17.078  0.00  0.00    +0.000 OA
ATOM     24  H   UNL     1      12.953  12.426  16.436  0.00  0.00    +0.000 HD
ENDBRANCH  16  23
ENDBRANCH   1  22
TORSDOF 3
ENDMDL
MODEL 3
REMARK VINA RESULT:      -7.9      5.235      6.876
REMARK  Name = 
REMARK  3 active torsions:
REMARK  status: ('A' for Active; 'I' for Inactive)
REMARK    1  A    between atoms: O_1  and  C_2
REMARK    2  A    between atoms: C_8  and  C_9
REMARK    3  A    between atoms: C_12  and  C_13
REMARK                            x       y       z     vdW  Elec       q    Type
REMARK                         _______ _______ _______ _____ _____    ______ ____
ROOT
ATOM      1  C   UNL     1       6.263   5.986  17.377  0.00  0.00    +0.000 A 
ATOM      2  N   UNL     1       7.133   5.883  16.391  0.00  0.00    +0.000 NA
ATOM      3  N   UNL     1       7.969   6.977  16.495  0.00  0.00    +0.000 NA
ATOM      4  C   UNL     1       7.574   7.657  17.556  0.00  0.00    +0.000 A 
ATOM      5  O   UNL     1       6.509   7.064  18.181  0.00  0.00    +0.000 OA
ENDROOT
BRANCH   4   6
ATOM      6  C   UNL     1       8.180   8.865  18.004  0.00  0.00    +0.000 A 
ATOM      7  C   UNL     1       8.209  10.109  17.413  0.00  0.00    +0.000 A 
ATOM      8  C   UNL     1       8.904  10.992  18.286  0.00  0.00    +0.000 A 
ATOM      9  C   UNL     1       9.215  12.365  18.245  0.00  0.00    +0.000 A 
ATOM     10  C   UNL     1       9.922  12.938  19.307  0.00  0.00    +0.000 A 
ATOM     11  C   UNL     1      10.330  12.161  20.389  0.00  0.00    +0.000 A 
ATOM     12  C   UNL     1      10.041  10.793  20.448  0.00  0.00    +0.000 A 
ATOM     13  C   UNL     1       9.317  10.240  19.386  0.00  0.00    +0.000 A 
ATOM     14  N   UNL     1       8.874   8.950  19.183  0.00  0.00    +0.000 N 
ATOM     15  H   UNL     1       9.023   8.176  19.817  0.00  0.00    +0.000 HD
ENDBRANCH   4   6
BRANCH   1  22
ATOM     16  C   UNL     1       4.939   3.865  17.131  0.00  0.00    +0.000 A 
ATOM     17  C   UNL     1       3.880   3.045  17.527  0.00  0.00    +0.000 A 
ATOM     18  C   UNL     1       3.002   3.477  18.522  0.00  0.00    +0.000 A 
ATOM     19  C   UNL     1       3.188   4.725  19.111  0.00  0.00    +0.000 A 
ATOM     20 BR   UNL     1       1.994   5.311  20.454  0.00  0.00    +0.000 Br
ATOM     21  C   UNL     1       4.250   5.543  18.723  0.00  0.00    +0.000 A 
ATOM     22  C   UNL     1       5.144   5.125  17.721  0.00  0.00    +0.000 A 
BRANCH  16  23
ATOM     23  O   UNL     1       5.808   3.410  16.177  0.00  0.00    +0.000 OA
ATOM     24  H   UNL     1       6.266   4.160  15.766  0.00  0.00    +0.000 HD
ENDBRANCH  16  23
ENDBRANCH   1  22
TORSDOF 3
ENDMDL
MODEL 4
REMARK VINA RESULT:      -7.9      0.770      1.366
REMARK  Name = 
REMARK  3 active torsions:
REMARK  status: ('A' for Active; 'I' for Inactive)
REMARK    1  A    between atoms: O_1  and  C_2
REMARK    2  A    between atoms: C_8  and  C_9
REMARK    3  A    between atoms: C_12  and  C_13
REMARK                            x       y       z     vdW  Elec       q    Type
REMARK                         _______ _______ _______ _____ _____    ______ ____
ROOT
ATOM      1  C   UNL     1       4.024   5.457  18.880  0.00  0.00    +0.000 A 
ATOM      2  N   UNL     1       3.342   4.684  19.703  0.00  0.00    +0.000 NA
ATOM      3  N   UNL     1       2.381   5.487  20.284  0.00  0.00    +0.000 NA
ATOM      4  C   UNL     1       2.521   6.689  19.755  0.00  0.00    +0.000 A 
ATOM      5  O   UNL     1       3.532   6.731  18.831  0.00  0.00    +0.000 OA
ENDROOT
BRANCH   4   6
ATOM      6  C   UNL     1       1.717   7.813  20.099  0.00  0.00    +0.000 A 
ATOM      7  C   UNL     1       1.069   8.106  21.279  0.00  0.00    +0.000 A 
ATOM      8  C   UNL     1       0.438   9.373  21.130  0.00  0.00    +0.000 A 
ATOM      9  C   UNL     1      -0.322  10.194  21.983  0.00  0.00    +0.000 A 
ATOM     10  C   UNL     1      -0.794  11.422  21.509  0.00  0.00    +0.000 A 
ATOM     11  C   UNL     1      -0.530  11.827  20.202  0.00  0.00    +0.000 A 
ATOM     12  C   UNL     1       0.215  11.024  19.332  0.00  0.00    +0.000 A 
ATOM     13  C   UNL     1       0.695   9.807  19.828  0.00  0.00    +0.000 A 
ATOM     14  N   UNL     1       1.463   8.836  19.222  0.00  0.00    +0.000 N 
ATOM     15  H   UNL     1       1.807   8.874  18.271  0.00  0.00    +0.000 HD
ENDBRANCH   4   6
BRANCH   1  22
ATOM     16  C   UNL     1       6.478   5.051  18.529  0.00  0.00    +0.000 A 
ATOM     17  C   UNL     1       7.539   4.690  17.695  0.00  0.00    +0.000 A 
ATOM     18  C   UNL     1       7.301   4.412  16.349  0.00  0.00    +0.000 A 
ATOM     19  C   UNL     1       6.005   4.499  15.846  0.00  0.00    +0.000 A 
ATOM     20 BR   UNL     1       5.685   4.128  14.021  0.00  0.00    +0.000 Br
ATOM     21  C   UNL     1       4.943   4.852  16.678  0.00  0.00    +0.000 A 
ATOM     22  C   UNL     1       5.164   5.137  18.037  0.00  0.00    +0.000 A 
BRANCH  16  23
ATOM     23  O   UNL     1       6.728   5.289  19.852  0.00  0.00    +0.000 OA
ATOM     24  H   UNL     1       5.889   5.375  20.334  0.00  0.00    +0.000 HD
ENDBRANCH  16  23
ENDBRANCH   1  22
TORSDOF 3
ENDMDL
MODEL 5
REMARK VINA RESULT:      -7.9      2.038      2.825
REMARK  Name = 
REMARK  3 active torsions:
REMARK  status: ('A' for Active; 'I' for Inactive)
REMARK    1  A    between atoms: O_1  and  C_2
REMARK    2  A    between atoms: C_8  and  C_9
REMARK    3  A    between atoms: C_12  and  C_13
REMARK                            x       y       z     vdW  Elec       q    Type
REMARK                         _______ _______ _______ _____ _____    ______ ____
ROOT
ATOM      1  C   UNL     1       4.961   4.805  16.263  0.00  0.00    +0.000 A 
ATOM      2  N   UNL     1       4.700   3.923  17.208  0.00  0.00    +0.000 NA
ATOM      3  N   UNL     1       3.929   4.577  18.148  0.00  0.00    +0.000 NA
ATOM      4  C   UNL     1       3.745   5.805  17.699  0.00  0.00    +0.000 A 
ATOM      5  O   UNL     1       4.352   6.008  16.487  0.00  0.00    +0.000 OA
ENDROOT
BRANCH   4   6
ATOM      6  C   UNL     1       3.001   6.805  18.387  0.00  0.00    +0.000 A 
ATOM      7  C   UNL     1       2.505   8.007  17.930  0.00  0.00    +0.000 A 
ATOM      8  C   UNL     1       1.792   8.621  18.996  0.00  0.00    +0.000 A 
ATOM      9  C   UNL     1       1.054   9.813  19.122  0.00  0.00    +0.000 A 
ATOM     10  C   UNL     1       0.450  10.119  20.346  0.00  0.00    +0.000 A 
ATOM     11  C   UNL     1       0.587   9.264  21.438  0.00  0.00    +0.000 A 
ATOM     12  C   UNL     1       1.323   8.078  21.340  0.00  0.00    +0.000 A 
ATOM     13  C   UNL     1       1.905   7.778  20.103  0.00  0.00    +0.000 A 
ATOM     14  N   UNL     1       2.653   6.690  19.708  0.00  0.00    +0.000 N 
ATOM     15  H   UNL     1       2.901   5.908  20.299  0.00  0.00    +0.000 HD
ENDBRANCH   4   6
BRANCH   1  22
ATOM     16  C   UNL     1       6.997   5.297  14.875  0.00  0.00    +0.000 A 
ATOM     17  C   UNL     1       7.753   5.092  13.719  0.00  0.00    +0.000 A 
ATOM     18  C   UNL     1       7.275   4.248  12.716  0.00  0.00    +0.000 A 
ATOM     19  C   UNL     1       6.044   3.617  12.877  0.00  0.00    +0.000 A 
ATOM     20 BR   UNL     1       5.394   2.478  11.515  0.00  0.00    +0.000 Br
ATOM     21  C   UNL     1       5.290   3.813  14.033  0.00  0.00    +0.000 A 
ATOM     22  C   UNL     1       5.755   4.662  15.054  0.00  0.00    +0.000 A 
BRANCH  16  23
ATOM     23  O   UNL     1       7.499   6.103  15.860  0.00  0.00    +0.000 OA
ATOM     24  H   UNL     1       8.142   6.723  15.480  0.00  0.00    +0.000 HD
ENDBRANCH  16  23
ENDBRANCH   1  22
TORSDOF 3
ENDMDL
MODEL 6
REMARK VINA RESULT:      -7.8      2.092      3.143
REMARK  Name = 
REMARK  3 active torsions:
REMARK  status: ('A' for Active; 'I' for Inactive)
REMARK    1  A    between atoms: O_1  and  C_2
REMARK    2  A    between atoms: C_8  and  C_9
REMARK    3  A    between atoms: C_12  and  C_13
REMARK                            x       y       z     vdW  Elec       q    Type
REMARK                         _______ _______ _______ _____ _____    ______ ____
ROOT
ATOM      1  C   UNL     1       4.991   4.634  16.279  0.00  0.00    +0.000 A 
ATOM      2  N   UNL     1       4.765   3.706  17.189  0.00  0.00    +0.000 NA
ATOM      3  N   UNL     1       3.987   4.299  18.164  0.00  0.00    +0.000 NA
ATOM      4  C   UNL     1       3.766   5.540  17.769  0.00  0.00    +0.000 A 
ATOM      5  O   UNL     1       4.354   5.809  16.561  0.00  0.00    +0.000 OA
ENDROOT
BRANCH   4   6
ATOM      6  C   UNL     1       3.005   6.490  18.507  0.00  0.00    +0.000 A 
ATOM      7  C   UNL     1       2.572   6.450  19.814  0.00  0.00    +0.000 A 
ATOM      8  C   UNL     1       1.887   7.667  20.087  0.00  0.00    +0.000 A 
ATOM      9  C   UNL     1       1.269   8.208  21.230  0.00  0.00    +0.000 A 
ATOM     10  C   UNL     1       0.684   9.476  21.158  0.00  0.00    +0.000 A 
ATOM     11  C   UNL     1       0.697  10.195  19.964  0.00  0.00    +0.000 A 
ATOM     12  C   UNL     1       1.297   9.675  18.812  0.00  0.00    +0.000 A 
ATOM     13  C   UNL     1       1.893   8.413  18.907  0.00  0.00    +0.000 A 
ATOM     14  N   UNL     1       2.568   7.670  17.963  0.00  0.00    +0.000 N 
ATOM     15  H   UNL     1       2.733   7.956  17.006  0.00  0.00    +0.000 HD
ENDBRANCH   4   6
BRANCH   1  22
ATOM     16  C   UNL     1       6.982   5.260  14.881  0.00  0.00    +0.000 A 
ATOM     17  C   UNL     1       7.732   5.124  13.710  0.00  0.00    +0.000 A 
ATOM     18  C   UNL     1       7.279   4.287  12.689  0.00  0.00    +0.000 A 
ATOM     19  C   UNL     1       6.081   3.595  12.846  0.00  0.00    +0.000 A 
ATOM     20 BR   UNL     1       5.466   2.465  11.461  0.00  0.00    +0.000 Br
ATOM     21  C   UNL     1       5.335   3.722  14.018  0.00  0.00    +0.000 A 
ATOM     22  C   UNL     1       5.774   4.563  15.056  0.00  0.00    +0.000 A 
BRANCH  16  23
ATOM     23  O   UNL     1       7.459   6.061  15.882  0.00  0.00    +0.000 OA
ATOM     24  H   UNL     1       7.078   6.950  15.801  0.00  0.00    +0.000 HD
ENDBRANCH  16  23
ENDBRANCH   1  22
TORSDOF 3
ENDMDL
MODEL 7
REMARK VINA RESULT:      -7.8      0.849      1.103
REMARK  Name = 
REMARK  3 active torsions:
REMARK  status: ('A' for Active; 'I' for Inactive)
REMARK    1  A    between atoms: O_1  and  C_2
REMARK    2  A    between atoms: C_8  and  C_9
REMARK    3  A    between atoms: C_12  and  C_13
REMARK                            x       y       z     vdW  Elec       q    Type
REMARK                         _______ _______ _______ _____ _____    ______ ____
ROOT
ATOM      1  C   UNL     1       4.044   5.762  18.651  0.00  0.00    +0.000 A 
ATOM      2  N   UNL     1       3.354   5.134  19.584  0.00  0.00    +0.000 NA
ATOM      3  N   UNL     1       2.377   6.015  20.004  0.00  0.00    +0.000 NA
ATOM      4  C   UNL     1       2.517   7.110  19.279  0.00  0.00    +0.000 A 
ATOM      5  O   UNL     1       3.542   7.003  18.376  0.00  0.00    +0.000 OA
ENDROOT
BRANCH   4   6
ATOM      6  C   UNL     1       1.699   8.267  19.412  0.00  0.00    +0.000 A 
ATOM      7  C   UNL     1       1.294   9.175  18.458  0.00  0.00    +0.000 A 
ATOM      8  C   UNL     1       0.445  10.126  19.091  0.00  0.00    +0.000 A 
ATOM      9  C   UNL     1      -0.284  11.242  18.638  0.00  0.00    +0.000 A 
ATOM     10  C   UNL     1      -1.052  11.974  19.549  0.00  0.00    +0.000 A 
ATOM     11  C   UNL     1      -1.088  11.616  20.895  0.00  0.00    +0.000 A 
ATOM     12  C   UNL     1      -0.365  10.516  21.371  0.00  0.00    +0.000 A 
ATOM     13  C   UNL     1       0.383   9.784  20.443  0.00  0.00    +0.000 A 
ATOM     14  N   UNL     1       1.162   8.659  20.611  0.00  0.00    +0.000 N 
ATOM     15  H   UNL     1       1.309   8.178  21.489  0.00  0.00    +0.000 HD
ENDBRANCH   4   6
BRANCH   1  22
ATOM     16  C   UNL     1       6.469   5.132  18.469  0.00  0.00    +0.000 A 
ATOM     17  C   UNL     1       7.543   4.650  17.716  0.00  0.00    +0.000 A 
ATOM     18  C   UNL     1       7.363   4.345  16.367  0.00  0.00    +0.000 A 
ATOM     19  C   UNL     1       6.113   4.526  15.780  0.00  0.00    +0.000 A 
ATOM     20 BR   UNL     1       5.872   4.117  13.950  0.00  0.00    +0.000 Br
ATOM     21  C   UNL     1       5.037   4.999  16.531  0.00  0.00    +0.000 A 
ATOM     22  C   UNL     1       5.200   5.314  17.892  0.00  0.00    +0.000 A 
BRANCH  16  23
ATOM     23  O   UNL     1       6.658   5.395  19.798  0.00  0.00    +0.000 OA
ATOM     24  H   UNL     1       6.183   4.738  20.333  0.00  0.00    +0.000 HD
ENDBRANCH  16  23
ENDBRANCH   1  22
TORSDOF 3
ENDMDL
MODEL 8
REMARK VINA RESULT:      -7.7      5.276      7.006
REMARK  Name = 
REMARK  3 active torsions:
REMARK  status: ('A' for Active; 'I' for Inactive)
REMARK    1  A    between atoms: O_1  and  C_2
REMARK    2  A    between atoms: C_8  and  C_9
REMARK    3  A    between atoms: C_12  and  C_13
REMARK                            x       y       z     vdW  Elec       q    Type
REMARK                         _______ _______ _______ _____ _____    ______ ____
ROOT
ATOM      1  C   UNL     1       6.239   5.990  17.360  0.00  0.00    +0.000 A 
ATOM      2  N   UNL     1       7.106   5.907  16.370  0.00  0.00    +0.000 NA
ATOM      3  N   UNL     1       7.945   6.996  16.496  0.00  0.00    +0.000 NA
ATOM      4  C   UNL     1       7.553   7.655  17.571  0.00  0.00    +0.000 A 
ATOM      5  O   UNL     1       6.487   7.050  18.186  0.00  0.00    +0.000 OA
ENDROOT
BRANCH   4   6
ATOM      6  C   UNL     1       8.162   8.851  18.043  0.00  0.00    +0.000 A 
ATOM      7  C   UNL     1       8.962   9.058  19.146  0.00  0.00    +0.000 A 
ATOM      8  C   UNL     1       9.356  10.425  19.152  0.00  0.00    +0.000 A 
ATOM      9  C   UNL     1      10.181  11.203  19.987  0.00  0.00    +0.000 A 
ATOM     10  C   UNL     1      10.372  12.556  19.691  0.00  0.00    +0.000 A 
ATOM     11  C   UNL     1       9.743  13.138  18.593  0.00  0.00    +0.000 A 
ATOM     12  C   UNL     1       8.911  12.388  17.754  0.00  0.00    +0.000 A 
ATOM     13  C   UNL     1       8.746  11.031  18.053  0.00  0.00    +0.000 A 
ATOM     14  N   UNL     1       8.019  10.056  17.405  0.00  0.00    +0.000 N 
ATOM     15  H   UNL     1       7.468  10.199  16.569  0.00  0.00    +0.000 HD
ENDBRANCH   4   6
BRANCH   1  22
ATOM     16  C   UNL     1       4.912   3.876  17.074  0.00  0.00    +0.000 A 
ATOM     17  C   UNL     1       3.851   3.050  17.454  0.00  0.00    +0.000 A 
ATOM     18  C   UNL     1       2.974   3.464  18.456  0.00  0.00    +0.000 A 
ATOM     19  C   UNL     1       3.162   4.700  19.069  0.00  0.00    +0.000 A 
ATOM     20 BR   UNL     1       1.968   5.263  20.422  0.00  0.00    +0.000 Br
ATOM     21  C   UNL     1       4.224   5.524  18.697  0.00  0.00    +0.000 A 
ATOM     22  C   UNL     1       5.118   5.124  17.687  0.00  0.00    +0.000 A 
BRANCH  16  23
ATOM     23  O   UNL     1       5.780   3.437  16.112  0.00  0.00    +0.000 OA
ATOM     24  H   UNL     1       6.217   4.197  15.693  0.00  0.00    +0.000 HD
ENDBRANCH  16  23
ENDBRANCH   1  22
TORSDOF 3
ENDMDL
MODEL 9
REMARK VINA RESULT:      -7.7      2.568      3.152
REMARK  Name = 
REMARK  3 active torsions:
REMARK  status: ('A' for Active; 'I' for Inactive)
REMARK    1  A    between atoms: O_1  and  C_2
REMARK    2  A    between atoms: C_8  and  C_9
REMARK    3  A    between atoms: C_12  and  C_13
REMARK                            x       y       z     vdW  Elec       q    Type
REMARK                         _______ _______ _______ _____ _____    ______ ____
ROOT
ATOM      1  C   UNL     1       2.587   7.522  18.003  0.00  0.00    +0.000 A 
ATOM      2  N   UNL     1       2.784   8.565  17.219  0.00  0.00    +0.000 NA
ATOM      3  N   UNL     1       2.051   9.602  17.761  0.00  0.00    +0.000 NA
ATOM      4  C   UNL     1       1.481   9.132  18.856  0.00  0.00    +0.000 A 
ATOM      5  O   UNL     1       1.806   7.821  19.084  0.00  0.00    +0.000 OA
ENDROOT
BRANCH   4   6
ATOM      6  C   UNL     1       0.631   9.895  19.705  0.00  0.00    +0.000 A 
ATOM      7  C   UNL     1      -0.190  10.959  19.405  0.00  0.00    +0.000 A 
ATOM      8  C   UNL     1      -0.869  11.340  20.597  0.00  0.00    +0.000 A 
ATOM      9  C   UNL     1      -1.838  12.313  20.903  0.00  0.00    +0.000 A 
ATOM     10  C   UNL     1      -2.316  12.414  22.214  0.00  0.00    +0.000 A 
ATOM     11  C   UNL     1      -1.830  11.573  23.213  0.00  0.00    +0.000 A 
ATOM     12  C   UNL     1      -0.860  10.604  22.935  0.00  0.00    +0.000 A 
ATOM     13  C   UNL     1      -0.407  10.504  21.615  0.00  0.00    +0.000 A 
ATOM     14  N   UNL     1       0.510   9.645  21.048  0.00  0.00    +0.000 N 
ATOM     15  H   UNL     1       1.015   8.922  21.543  0.00  0.00    +0.000 HD
ENDBRANCH   4   6
BRANCH   1  22
ATOM     16  C   UNL     1       4.413   5.871  17.499  0.00  0.00    +0.000 A 
ATOM     17  C   UNL     1       4.875   4.554  17.449  0.00  0.00    +0.000 A 
ATOM     18  C   UNL     1       4.019   3.504  17.784  0.00  0.00    +0.000 A 
ATOM     19  C   UNL     1       2.708   3.779  18.163  0.00  0.00    +0.000 A 
ATOM     20 BR   UNL     1       1.547   2.356  18.610  0.00  0.00    +0.000 Br
ATOM     21  C   UNL     1       2.245   5.094  18.221  0.00  0.00    +0.000 A 
ATOM     22  C   UNL     1       3.093   6.165  17.886  0.00  0.00    +0.000 A 
BRANCH  16  23
ATOM     23  O   UNL     1       5.277   6.888  17.198  0.00  0.00    +0.000 OA
ATOM     24  H   UNL     1       6.185   6.622  17.416  0.00  0.00    +0.000 HD
ENDBRANCH  16  23
ENDBRANCH   1  22
TORSDOF 3
ENDMDL
