MODEL 1
REMARK VINA RESULT:      -7.6      0.000      0.000
REMARK  Name = 
REMARK  7 active torsions:
REMARK  status: ('A' for Active; 'I' for Inactive)
REMARK    1  A    between atoms: C_1  and  O_2
REMARK    2  A    between atoms: O_2  and  C_3
REMARK    3  A    between atoms: C_6  and  S_7
REMARK    4  A    between atoms: S_7  and  N_10
REMARK    5  A    between atoms: N_10  and  C_11
REMARK    6  A    between atoms: C_11  and  C_12
REMARK    7  A    between atoms: N_14  and  C_15
REMARK                            x       y       z     vdW  Elec       q    Type
REMARK                         _______ _______ _______ _____ _____    ______ ____
ROOT
ATOM      1  N   UNL     1       7.300   6.714  16.980  0.00  0.00    +0.000 NA
ATOM      2  H   UNL     1       6.400   7.178  16.830  0.00  0.00    +0.000 HD
ENDROOT
BRANCH   1   3
ATOM      3  S   UNL     1       7.097   5.025  16.905  0.00  0.00    +0.000 S 
ATOM      4  O   UNL     1       7.812   4.428  18.013  0.00  0.00    +0.000 OA
ATOM      5  O   UNL     1       7.351   4.644  15.539  0.00  0.00    +0.000 OA
BRANCH   3   9
ATOM      6  C   UNL     1       2.638   4.462  17.782  0.00  0.00    +0.000 A 
ATOM      7  C   UNL     1       3.424   3.381  17.375  0.00  0.00    +0.000 A 
ATOM      8  C   UNL     1       4.781   3.554  17.092  0.00  0.00    +0.000 A 
ATOM      9  C   UNL     1       5.349   4.827  17.191  0.00  0.00    +0.000 A 
ATOM     10  C   UNL     1       4.572   5.916  17.597  0.00  0.00    +0.000 A 
ATOM     11  C   UNL     1       3.214   5.731  17.884  0.00  0.00    +0.000 A 
BRANCH   6  13
ATOM     12  C   UNL     1       1.055   2.872  18.545  0.00  0.00    +0.000 C 
ATOM     13  O   UNL     1       1.323   4.166  18.014  0.00  0.00    +0.000 OA
ENDBRANCH   6  13
ENDBRANCH   3   9
ENDBRANCH   1   3
BRANCH   1  14
ATOM     14  C   UNL     1       7.963   7.195  18.213  0.00  0.00    +0.000 C 
BRANCH  14  15
ATOM     15  C   UNL     1       8.224   8.691  18.128  0.00  0.00    +0.000 C 
ATOM     16  O   UNL     1       7.658   9.363  17.269  0.00  0.00    +0.000 OA
ATOM     17  N   UNL     1       9.128   9.158  19.073  0.00  0.00    +0.000 N 
ATOM     18  H   UNL     1       9.657   8.451  19.576  0.00  0.00    +0.000 HD
BRANCH  17  19
ATOM     19  C   UNL     1       9.481  10.513  19.281  0.00  0.00    +0.000 A 
ATOM     20  C   UNL     1      10.156  11.275  18.322  0.00  0.00    +0.000 A 
ATOM     21  C   UNL     1      10.512  12.603  18.574  0.00  0.00    +0.000 A 
ATOM     22  C   UNL     1      10.191  13.190  19.793  0.00  0.00    +0.000 A 
ATOM     23  C   UNL     1       9.499  12.447  20.746  0.00  0.00    +0.000 A 
ATOM     24 BR   UNL     1       9.077  13.246  22.408  0.00  0.00    +0.000 Br
ATOM     25  C   UNL     1       9.130  11.119  20.494  0.00  0.00    +0.000 A 
ENDBRANCH  17  19
ENDBRANCH  14  15
ENDBRANCH   1  14
TORSDOF 6
ENDMDL
MODEL 2
REMARK VINA RESULT:      -7.6      5.951      7.177
REMARK  Name = 
REMARK  7 active torsions:
REMARK  status: ('A' for Active; 'I' for Inactive)
REMARK    1  A    between atoms: C_1  and  O_2
REMARK    2  A    between atoms: O_2  and  C_3
REMARK    3  A    between atoms: C_6  and  S_7
REMARK    4  A    between atoms: S_7  and  N_10
REMARK    5  A    between atoms: N_10  and  C_11
REMARK    6  A    between atoms: C_11  and  C_12
REMARK    7  A    between atoms: N_14  and  C_15
REMARK                            x       y       z     vdW  Elec       q    Type
REMARK                         _______ _______ _______ _____ _____    ______ ____
ROOT
ATOM      1  N   UNL     1       5.252   3.336  18.788  0.00  0.00    +0.000 NA
ATOM      2  H   UNL     1       5.769   2.564  18.359  0.00  0.00    +0.000 HD
ENDROOT
BRANCH   1   3
ATOM      3  S   UNL     1       3.616   3.262  18.321  0.00  0.00    +0.000 S 
ATOM      4  O   UNL     1       2.971   2.209  19.076  0.00  0.00    +0.000 OA
ATOM      5  O   UNL     1       3.603   3.287  16.880  0.00  0.00    +0.000 OA
BRANCH   3   9
ATOM      6  C   UNL     1       2.109   7.312  19.835  0.00  0.00    +0.000 A 
ATOM      7  C   UNL     1       2.045   6.180  20.651  0.00  0.00    +0.000 A 
ATOM      8  C   UNL     1       2.490   4.941  20.186  0.00  0.00    +0.000 A 
ATOM      9  C   UNL     1       2.978   4.829  18.881  0.00  0.00    +0.000 A 
ATOM     10  C   UNL     1       3.046   5.955  18.055  0.00  0.00    +0.000 A 
ATOM     11  C   UNL     1       2.603   7.195  18.534  0.00  0.00    +0.000 A 
BRANCH   6  13
ATOM     12  C   UNL     1       1.004   9.385  19.516  0.00  0.00    +0.000 C 
ATOM     13  O   UNL     1       1.630   8.461  20.402  0.00  0.00    +0.000 OA
ENDBRANCH   6  13
ENDBRANCH   3   9
ENDBRANCH   1   3
BRANCH   1  14
ATOM     14  C   UNL     1       5.903   4.640  18.529  0.00  0.00    +0.000 C 
BRANCH  14  15
ATOM     15  C   UNL     1       6.721   4.582  17.248  0.00  0.00    +0.000 C 
ATOM     16  O   UNL     1       7.939   4.425  17.307  0.00  0.00    +0.000 OA
ATOM     17  N   UNL     1       5.966   4.729  16.092  0.00  0.00    +0.000 N 
ATOM     18  H   UNL     1       5.010   5.050  16.219  0.00  0.00    +0.000 HD
BRANCH  17  19
ATOM     19  C   UNL     1       6.453   4.622  14.767  0.00  0.00    +0.000 A 
ATOM     20  C   UNL     1       7.485   5.426  14.273  0.00  0.00    +0.000 A 
ATOM     21  C   UNL     1       7.922   5.310  12.950  0.00  0.00    +0.000 A 
ATOM     22  C   UNL     1       7.330   4.381  12.102  0.00  0.00    +0.000 A 
ATOM     23  C   UNL     1       6.317   3.560  12.590  0.00  0.00    +0.000 A 
ATOM     24 BR   UNL     1       5.506   2.306  11.428  0.00  0.00    +0.000 Br
ATOM     25  C   UNL     1       5.884   3.665  13.918  0.00  0.00    +0.000 A 
ENDBRANCH  17  19
ENDBRANCH  14  15
ENDBRANCH   1  14
TORSDOF 6
ENDMDL
MODEL 3
REMARK VINA RESULT:      -7.5      0.700      1.053
REMARK  Name = 
REMARK  7 active torsions:
REMARK  status: ('A' for Active; 'I' for Inactive)
REMARK    1  A    between atoms: C_1  and  O_2
REMARK    2  A    between atoms: O_2  and  C_3
REMARK    3  A    between atoms: C_6  and  S_7
REMARK    4  A    between atoms: S_7  and  N_10
REMARK    5  A    between atoms: N_10  and  C_11
REMARK    6  A    between atoms: C_11  and  C_12
REMARK    7  A    between atoms: N_14  and  C_15
REMARK                            x       y       z     vdW  Elec       q    Type
REMARK                         _______ _______ _______ _____ _____    ______ ____
ROOT
ATOM      1  N   UNL     1       7.368   6.601  17.453  0.00  0.00    +0.000 NA
ATOM      2  H   UNL     1       6.414   6.968  17.405  0.00  0.00    +0.000 HD
ENDROOT
BRANCH   1   3
ATOM      3  S   UNL     1       7.329   4.899  17.502  0.00  0.00    +0.000 S 
ATOM      4  O   UNL     1       8.108   4.456  18.639  0.00  0.00    +0.000 OA
ATOM      5  O   UNL     1       7.608   4.447  16.162  0.00  0.00    +0.000 OA
BRANCH   3   9
ATOM      6  C   UNL     1       2.881   4.162  18.299  0.00  0.00    +0.000 A 
ATOM      7  C   UNL     1       3.680   4.786  19.259  0.00  0.00    +0.000 A 
ATOM      8  C   UNL     1       5.041   4.998  19.025  0.00  0.00    +0.000 A 
ATOM      9  C   UNL     1       5.611   4.556  17.827  0.00  0.00    +0.000 A 
ATOM     10  C   UNL     1       4.821   3.929  16.859  0.00  0.00    +0.000 A 
ATOM     11  C   UNL     1       3.456   3.727  17.102  0.00  0.00    +0.000 A 
BRANCH   6  13
ATOM     12  C   UNL     1       1.109   2.657  18.762  0.00  0.00    +0.000 C 
ATOM     13  O   UNL     1       1.570   4.000  18.654  0.00  0.00    +0.000 OA
ENDBRANCH   6  13
ENDBRANCH   3   9
ENDBRANCH   1   3
BRANCH   1  14
ATOM     14  C   UNL     1       8.138   7.226  18.553  0.00  0.00    +0.000 C 
BRANCH  14  15
ATOM     15  C   UNL     1       8.287   8.721  18.316  0.00  0.00    +0.000 C 
ATOM     16  O   UNL     1       7.588   9.279  17.474  0.00  0.00    +0.000 OA
ATOM     17  N   UNL     1       9.255   9.322  19.111  0.00  0.00    +0.000 N 
ATOM     18  H   UNL     1       9.880   8.693  19.608  0.00  0.00    +0.000 HD
BRANCH  17  19
ATOM     19  C   UNL     1       9.537  10.707  19.165  0.00  0.00    +0.000 A 
ATOM     20  C   UNL     1      10.043  11.420  18.073  0.00  0.00    +0.000 A 
ATOM     21  C   UNL     1      10.335  12.783  18.171  0.00  0.00    +0.000 A 
ATOM     22  C   UNL     1      10.118  13.455  19.369  0.00  0.00    +0.000 A 
ATOM     23  C   UNL     1       9.594  12.760  20.456  0.00  0.00    +0.000 A 
ATOM     24 BR   UNL     1       9.314  13.677  22.087  0.00  0.00    +0.000 Br
ATOM     25  C   UNL     1       9.289  11.397  20.359  0.00  0.00    +0.000 A 
ENDBRANCH  17  19
ENDBRANCH  14  15
ENDBRANCH   1  14
TORSDOF 6
ENDMDL
MODEL 4
REMARK VINA RESULT:      -7.4      1.592      1.872
REMARK  Name = 
REMARK  7 active torsions:
REMARK  status: ('A' for Active; 'I' for Inactive)
REMARK    1  A    between atoms: C_1  and  O_2
REMARK    2  A    between atoms: O_2  and  C_3
REMARK    3  A    between atoms: C_6  and  S_7
REMARK    4  A    between atoms: S_7  and  N_10
REMARK    5  A    between atoms: N_10  and  C_11
REMARK    6  A    between atoms: C_11  and  C_12
REMARK    7  A    between atoms: N_14  and  C_15
REMARK                            x       y       z     vdW  Elec       q    Type
REMARK                         _______ _______ _______ _____ _____    ______ ____
ROOT
ATOM      1  N   UNL     1       6.713   6.823  17.907  0.00  0.00    +0.000 NA
ATOM      2  H   UNL     1       7.182   6.574  18.782  0.00  0.00    +0.000 HD
ENDROOT
BRANCH   1   3
ATOM      3  S   UNL     1       6.588   5.448  16.910  0.00  0.00    +0.000 S 
ATOM      4  O   UNL     1       7.454   4.417  17.440  0.00  0.00    +0.000 OA
ATOM      5  O   UNL     1       6.701   5.919  15.552  0.00  0.00    +0.000 OA
BRANCH   3   9
ATOM      6  C   UNL     1       2.286   4.071  17.660  0.00  0.00    +0.000 A 
ATOM      7  C   UNL     1       3.207   3.219  17.045  0.00  0.00    +0.000 A 
ATOM      8  C   UNL     1       4.515   3.644  16.801  0.00  0.00    +0.000 A 
ATOM      9  C   UNL     1       4.896   4.942  17.152  0.00  0.00    +0.000 A 
ATOM     10  C   UNL     1       3.982   5.802  17.768  0.00  0.00    +0.000 A 
ATOM     11  C   UNL     1       2.674   5.365  18.014  0.00  0.00    +0.000 A 
BRANCH   6  13
ATOM     12  C   UNL     1       0.924   2.482  18.773  0.00  0.00    +0.000 C 
ATOM     13  O   UNL     1       1.035   3.543  17.830  0.00  0.00    +0.000 OA
ENDBRANCH   6  13
ENDBRANCH   3   9
ENDBRANCH   1   3
BRANCH   1  14
ATOM     14  C   UNL     1       7.352   7.991  17.259  0.00  0.00    +0.000 C 
BRANCH  14  15
ATOM     15  C   UNL     1       8.313   8.674  18.220  0.00  0.00    +0.000 C 
ATOM     16  O   UNL     1       8.786   8.043  19.163  0.00  0.00    +0.000 OA
ATOM     17  N   UNL     1       8.556  10.007  17.918  0.00  0.00    +0.000 N 
ATOM     18  H   UNL     1       7.938  10.432  17.232  0.00  0.00    +0.000 HD
BRANCH  17  19
ATOM     19  C   UNL     1       9.476  10.852  18.585  0.00  0.00    +0.000 A 
ATOM     20  C   UNL     1       9.575  10.910  19.979  0.00  0.00    +0.000 A 
ATOM     21  C   UNL     1      10.477  11.776  20.604  0.00  0.00    +0.000 A 
ATOM     22  C   UNL     1      11.298  12.596  19.837  0.00  0.00    +0.000 A 
ATOM     23  C   UNL     1      11.222  12.530  18.448  0.00  0.00    +0.000 A 
ATOM     24 BR   UNL     1      12.332  13.657  17.410  0.00  0.00    +0.000 Br
ATOM     25  C   UNL     1      10.328  11.655  17.817  0.00  0.00    +0.000 A 
ENDBRANCH  17  19
ENDBRANCH  14  15
ENDBRANCH   1  14
TORSDOF 6
ENDMDL
MODEL 5
REMARK VINA RESULT:      -7.4      1.030      1.248
REMARK  Name = 
REMARK  7 active torsions:
REMARK  status: ('A' for Active; 'I' for Inactive)
REMARK    1  A    between atoms: C_1  and  O_2
REMARK    2  A    between atoms: O_2  and  C_3
REMARK    3  A    between atoms: C_6  and  S_7
REMARK    4  A    between atoms: S_7  and  N_10
REMARK    5  A    between atoms: N_10  and  C_11
REMARK    6  A    between atoms: C_11  and  C_12
REMARK    7  A    between atoms: N_14  and  C_15
REMARK                            x       y       z     vdW  Elec       q    Type
REMARK                         _______ _______ _______ _____ _____    ______ ____
ROOT
ATOM      1  N   UNL     1       7.549   6.572  16.701  0.00  0.00    +0.000 NA
ATOM      2  H   UNL     1       6.868   7.121  16.171  0.00  0.00    +0.000 HD
ENDROOT
BRANCH   1   3
ATOM      3  S   UNL     1       7.135   4.922  16.635  0.00  0.00    +0.000 S 
ATOM      4  O   UNL     1       8.124   4.171  17.379  0.00  0.00    +0.000 OA
ATOM      5  O   UNL     1       6.835   4.632  15.256  0.00  0.00    +0.000 OA
BRANCH   3   9
ATOM      6  C   UNL     1       3.130   4.675  18.841  0.00  0.00    +0.000 A 
ATOM      7  C   UNL     1       3.251   5.431  17.672  0.00  0.00    +0.000 A 
ATOM      8  C   UNL     1       4.477   5.520  17.006  0.00  0.00    +0.000 A 
ATOM      9  C   UNL     1       5.596   4.868  17.532  0.00  0.00    +0.000 A 
ATOM     10  C   UNL     1       5.485   4.110  18.701  0.00  0.00    +0.000 A 
ATOM     11  C   UNL     1       4.251   4.021  19.358  0.00  0.00    +0.000 A 
BRANCH   6  13
ATOM     12  C   UNL     1       1.822   5.005  20.790  0.00  0.00    +0.000 C 
ATOM     13  O   UNL     1       1.883   4.679  19.405  0.00  0.00    +0.000 OA
ENDBRANCH   6  13
ENDBRANCH   3   9
ENDBRANCH   1   3
BRANCH   1  14
ATOM     14  C   UNL     1       7.730   7.102  18.072  0.00  0.00    +0.000 C 
BRANCH  14  15
ATOM     15  C   UNL     1       8.037   8.591  18.031  0.00  0.00    +0.000 C 
ATOM     16  O   UNL     1       7.449   9.315  17.231  0.00  0.00    +0.000 OA
ATOM     17  N   UNL     1       9.007   8.989  18.942  0.00  0.00    +0.000 N 
ATOM     18  H   UNL     1       9.537   8.245  19.387  0.00  0.00    +0.000 HD
BRANCH  17  19
ATOM     19  C   UNL     1       9.417  10.322  19.183  0.00  0.00    +0.000 A 
ATOM     20  C   UNL     1      10.107  11.084  18.234  0.00  0.00    +0.000 A 
ATOM     21  C   UNL     1      10.520  12.389  18.517  0.00  0.00    +0.000 A 
ATOM     22  C   UNL     1      10.243  12.952  19.758  0.00  0.00    +0.000 A 
ATOM     23  C   UNL     1       9.538  12.210  20.701  0.00  0.00    +0.000 A 
ATOM     24 BR   UNL     1       9.175  12.976  22.393  0.00  0.00    +0.000 Br
ATOM     25  C   UNL     1       9.111  10.906  20.419  0.00  0.00    +0.000 A 
ENDBRANCH  17  19
ENDBRANCH  14  15
ENDBRANCH   1  14
TORSDOF 6
ENDMDL
MODEL 6
REMARK VINA RESULT:      -7.3      4.371      6.979
REMARK  Name = 
REMARK  7 active torsions:
REMARK  status: ('A' for Active; 'I' for Inactive)
REMARK    1  A    between atoms: C_1  and  O_2
REMARK    2  A    between atoms: O_2  and  C_3
REMARK    3  A    between atoms: C_6  and  S_7
REMARK    4  A    between atoms: S_7  and  N_10
REMARK    5  A    between atoms: N_10  and  C_11
REMARK    6  A    between atoms: C_11  and  C_12
REMARK    7  A    between atoms: N_14  and  C_15
REMARK                            x       y       z     vdW  Elec       q    Type
REMARK                         _______ _______ _______ _____ _____    ______ ____
ROOT
ATOM      1  N   UNL     1       3.622   2.797  20.459  0.00  0.00    +0.000 NA
ATOM      2  H   UNL     1       4.305   3.544  20.609  0.00  0.00    +0.000 HD
ENDROOT
BRANCH   1   3
ATOM      3  S   UNL     1       3.460   2.490  18.792  0.00  0.00    +0.000 S 
ATOM      4  O   UNL     1       2.103   2.804  18.399  0.00  0.00    +0.000 OA
ATOM      5  O   UNL     1       4.042   1.192  18.559  0.00  0.00    +0.000 OA
BRANCH   3   9
ATOM      6  C   UNL     1       6.372   5.476  16.903  0.00  0.00    +0.000 A 
ATOM      7  C   UNL     1       6.475   5.143  18.255  0.00  0.00    +0.000 A 
ATOM      8  C   UNL     1       5.578   4.244  18.838  0.00  0.00    +0.000 A 
ATOM      9  C   UNL     1       4.551   3.695  18.063  0.00  0.00    +0.000 A 
ATOM     10  C   UNL     1       4.438   4.023  16.709  0.00  0.00    +0.000 A 
ATOM     11  C   UNL     1       5.347   4.920  16.133  0.00  0.00    +0.000 A 
BRANCH   6  13
ATOM     12  C   UNL     1       7.560   7.485  17.313  0.00  0.00    +0.000 C 
ATOM     13  O   UNL     1       7.300   6.377  16.457  0.00  0.00    +0.000 OA
ENDBRANCH   6  13
ENDBRANCH   3   9
ENDBRANCH   1   3
BRANCH   1  14
ATOM     14  C   UNL     1       2.346   3.078  21.156  0.00  0.00    +0.000 C 
BRANCH  14  15
ATOM     15  C   UNL     1       1.688   4.322  20.580  0.00  0.00    +0.000 C 
ATOM     16  O   UNL     1       0.477   4.332  20.371  0.00  0.00    +0.000 OA
ATOM     17  N   UNL     1       2.574   5.362  20.332  0.00  0.00    +0.000 N 
ATOM     18  H   UNL     1       3.562   5.128  20.369  0.00  0.00    +0.000 HD
BRANCH  17  19
ATOM     19  C   UNL     1       2.222   6.660  19.888  0.00  0.00    +0.000 A 
ATOM     20  C   UNL     1       2.520   7.126  18.603  0.00  0.00    +0.000 A 
ATOM     21  C   UNL     1       2.181   8.423  18.209  0.00  0.00    +0.000 A 
ATOM     22  C   UNL     1       1.533   9.273  19.097  0.00  0.00    +0.000 A 
ATOM     23  C   UNL     1       1.212   8.811  20.371  0.00  0.00    +0.000 A 
ATOM     24 BR   UNL     1       0.341   9.977  21.581  0.00  0.00    +0.000 Br
ATOM     25  C   UNL     1       1.539   7.508  20.768  0.00  0.00    +0.000 A 
ENDBRANCH  17  19
ENDBRANCH  14  15
ENDBRANCH   1  14
TORSDOF 6
ENDMDL
MODEL 7
REMARK VINA RESULT:      -7.2      5.843      7.310
REMARK  Name = 
REMARK  7 active torsions:
REMARK  status: ('A' for Active; 'I' for Inactive)
REMARK    1  A    between atoms: C_1  and  O_2
REMARK    2  A    between atoms: O_2  and  C_3
REMARK    3  A    between atoms: C_6  and  S_7
REMARK    4  A    between atoms: S_7  and  N_10
REMARK    5  A    between atoms: N_10  and  C_11
REMARK    6  A    between atoms: C_11  and  C_12
REMARK    7  A    between atoms: N_14  and  C_15
REMARK                            x       y       z     vdW  Elec       q    Type
REMARK                         _______ _______ _______ _____ _____    ______ ____
ROOT
ATOM      1  N   UNL     1       2.843   2.088  19.191  0.00  0.00    +0.000 NA
ATOM      2  H   UNL     1       2.958   2.275  18.192  0.00  0.00    +0.000 HD
ENDROOT
BRANCH   1   3
ATOM      3  S   UNL     1       1.453   2.882  19.771  0.00  0.00    +0.000 S 
ATOM      4  O   UNL     1       1.392   2.709  21.206  0.00  0.00    +0.000 OA
ATOM      5  O   UNL     1       0.369   2.486  18.907  0.00  0.00    +0.000 OA
BRANCH   3   9
ATOM      6  C   UNL     1       2.209   7.300  18.838  0.00  0.00    +0.000 A 
ATOM      7  C   UNL     1       2.180   6.353  17.812  0.00  0.00    +0.000 A 
ATOM      8  C   UNL     1       1.965   5.002  18.096  0.00  0.00    +0.000 A 
ATOM      9  C   UNL     1       1.805   4.593  19.423  0.00  0.00    +0.000 A 
ATOM     10  C   UNL     1       1.834   5.533  20.458  0.00  0.00    +0.000 A 
ATOM     11  C   UNL     1       2.044   6.886  20.163  0.00  0.00    +0.000 A 
BRANCH   6  13
ATOM     12  C   UNL     1       1.482   9.556  18.838  0.00  0.00    +0.000 C 
ATOM     13  O   UNL     1       2.442   8.586  18.432  0.00  0.00    +0.000 OA
ENDBRANCH   6  13
ENDBRANCH   3   9
ENDBRANCH   1   3
BRANCH   1  14
ATOM     14  C   UNL     1       4.080   2.392  19.948  0.00  0.00    +0.000 C 
BRANCH  14  15
ATOM     15  C   UNL     1       4.987   3.306  19.140  0.00  0.00    +0.000 C 
ATOM     16  O   UNL     1       5.767   4.059  19.718  0.00  0.00    +0.000 OA
ATOM     17  N   UNL     1       4.820   3.192  17.766  0.00  0.00    +0.000 N 
ATOM     18  H   UNL     1       4.001   2.677  17.455  0.00  0.00    +0.000 HD
BRANCH  17  19
ATOM     19  C   UNL     1       5.594   3.851  16.781  0.00  0.00    +0.000 A 
ATOM     20  C   UNL     1       6.450   4.917  17.080  0.00  0.00    +0.000 A 
ATOM     21  C   UNL     1       7.178   5.561  16.076  0.00  0.00    +0.000 A 
ATOM     22  C   UNL     1       7.063   5.143  14.755  0.00  0.00    +0.000 A 
ATOM     23  C   UNL     1       6.230   4.069  14.451  0.00  0.00    +0.000 A 
ATOM     24 BR   UNL     1       6.067   3.512  12.650  0.00  0.00    +0.000 Br
ATOM     25  C   UNL     1       5.507   3.412  15.454  0.00  0.00    +0.000 A 
ENDBRANCH  17  19
ENDBRANCH  14  15
ENDBRANCH   1  14
TORSDOF 6
ENDMDL
MODEL 8
REMARK VINA RESULT:      -7.2      1.612      2.148
REMARK  Name = 
REMARK  7 active torsions:
REMARK  status: ('A' for Active; 'I' for Inactive)
REMARK    1  A    between atoms: C_1  and  O_2
REMARK    2  A    between atoms: O_2  and  C_3
REMARK    3  A    between atoms: C_6  and  S_7
REMARK    4  A    between atoms: S_7  and  N_10
REMARK    5  A    between atoms: N_10  and  C_11
REMARK    6  A    between atoms: C_11  and  C_12
REMARK    7  A    between atoms: N_14  and  C_15
REMARK                            x       y       z     vdW  Elec       q    Type
REMARK                         _______ _______ _______ _____ _____    ______ ____
ROOT
ATOM      1  N   UNL     1       6.300   6.841  17.569  0.00  0.00    +0.000 NA
ATOM      2  H   UNL     1       6.569   6.667  18.541  0.00  0.00    +0.000 HD
ENDROOT
BRANCH   1   3
ATOM      3  S   UNL     1       6.266   5.372  16.709  0.00  0.00    +0.000 S 
ATOM      4  O   UNL     1       7.303   4.510  17.233  0.00  0.00    +0.000 OA
ATOM      5  O   UNL     1       6.195   5.720  15.312  0.00  0.00    +0.000 OA
BRANCH   3   9
ATOM      6  C   UNL     1       2.137   3.691  17.754  0.00  0.00    +0.000 A 
ATOM      7  C   UNL     1       2.494   4.986  18.137  0.00  0.00    +0.000 A 
ATOM      8  C   UNL     1       3.759   5.495  17.833  0.00  0.00    +0.000 A 
ATOM      9  C   UNL     1       4.684   4.689  17.162  0.00  0.00    +0.000 A 
ATOM     10  C   UNL     1       4.337   3.391  16.774  0.00  0.00    +0.000 A 
ATOM     11  C   UNL     1       3.064   2.892  17.079  0.00  0.00    +0.000 A 
BRANCH   6  13
ATOM     12  C   UNL     1       0.741   2.784  19.441  0.00  0.00    +0.000 C 
ATOM     13  O   UNL     1       0.877   3.305  18.123  0.00  0.00    +0.000 OA
ENDBRANCH   6  13
ENDBRANCH   3   9
ENDBRANCH   1   3
BRANCH   1  14
ATOM     14  C   UNL     1       7.141   7.891  16.951  0.00  0.00    +0.000 C 
BRANCH  14  15
ATOM     15  C   UNL     1       8.111   8.467  17.971  0.00  0.00    +0.000 C 
ATOM     16  O   UNL     1       8.604   7.735  18.826  0.00  0.00    +0.000 OA
ATOM     17  N   UNL     1       8.338   9.829  17.824  0.00  0.00    +0.000 N 
ATOM     18  H   UNL     1       7.705  10.324  17.201  0.00  0.00    +0.000 HD
BRANCH  17  19
ATOM     19  C   UNL     1       9.260  10.599  18.572  0.00  0.00    +0.000 A 
ATOM     20  C   UNL     1       9.282  10.604  19.970  0.00  0.00    +0.000 A 
ATOM     21  C   UNL     1      10.191  11.399  20.675  0.00  0.00    +0.000 A 
ATOM     22  C   UNL     1      11.096  12.199  19.987  0.00  0.00    +0.000 A 
ATOM     23  C   UNL     1      11.096  12.184  18.594  0.00  0.00    +0.000 A 
ATOM     24 BR   UNL     1      12.321  13.284  17.662  0.00  0.00    +0.000 Br
ATOM     25  C   UNL     1      10.196  11.381  17.883  0.00  0.00    +0.000 A 
ENDBRANCH  17  19
ENDBRANCH  14  15
ENDBRANCH   1  14
TORSDOF 6
ENDMDL
MODEL 9
REMARK VINA RESULT:      -7.1      1.153      1.220
REMARK  Name = 
REMARK  7 active torsions:
REMARK  status: ('A' for Active; 'I' for Inactive)
REMARK    1  A    between atoms: C_1  and  O_2
REMARK    2  A    between atoms: O_2  and  C_3
REMARK    3  A    between atoms: C_6  and  S_7
REMARK    4  A    between atoms: S_7  and  N_10
REMARK    5  A    between atoms: N_10  and  C_11
REMARK    6  A    between atoms: C_11  and  C_12
REMARK    7  A    between atoms: N_14  and  C_15
REMARK                            x       y       z     vdW  Elec       q    Type
REMARK                         _______ _______ _______ _____ _____    ______ ____
ROOT
ATOM      1  N   UNL     1       6.571   7.221  17.614  0.00  0.00    +0.000 NA
ATOM      2  H   UNL     1       5.928   7.141  18.405  0.00  0.00    +0.000 HD
ENDROOT
BRANCH   1   3
ATOM      3  S   UNL     1       6.350   5.905  16.557  0.00  0.00    +0.000 S 
ATOM      4  O   UNL     1       7.594   5.170  16.474  0.00  0.00    +0.000 OA
ATOM      5  O   UNL     1       5.693   6.429  15.386  0.00  0.00    +0.000 OA
BRANCH   3   9
ATOM      6  C   UNL     1       3.388   3.206  18.772  0.00  0.00    +0.000 A 
ATOM      7  C   UNL     1       3.462   3.184  17.377  0.00  0.00    +0.000 A 
ATOM      8  C   UNL     1       4.355   4.018  16.699  0.00  0.00    +0.000 A 
ATOM      9  C   UNL     1       5.160   4.901  17.423  0.00  0.00    +0.000 A 
ATOM     10  C   UNL     1       5.093   4.932  18.819  0.00  0.00    +0.000 A 
ATOM     11  C   UNL     1       4.199   4.087  19.491  0.00  0.00    +0.000 A 
BRANCH   6  13
ATOM     12  C   UNL     1       1.100   2.646  19.037  0.00  0.00    +0.000 C 
ATOM     13  O   UNL     1       2.466   2.353  19.315  0.00  0.00    +0.000 OA
ENDBRANCH   6  13
ENDBRANCH   3   9
ENDBRANCH   1   3
BRANCH   1  14
ATOM     14  C   UNL     1       7.969   7.414  18.065  0.00  0.00    +0.000 C 
BRANCH  14  15
ATOM     15  C   UNL     1       8.279   8.895  18.216  0.00  0.00    +0.000 C 
ATOM     16  O   UNL     1       7.735   9.713  17.478  0.00  0.00    +0.000 OA
ATOM     17  N   UNL     1       9.200   9.176  19.218  0.00  0.00    +0.000 N 
ATOM     18  H   UNL     1       9.705   8.381  19.598  0.00  0.00    +0.000 HD
BRANCH  17  19
ATOM     19  C   UNL     1       9.598  10.468  19.635  0.00  0.00    +0.000 A 
ATOM     20  C   UNL     1      10.499  11.254  18.909  0.00  0.00    +0.000 A 
ATOM     21  C   UNL     1      10.890  12.515  19.367  0.00  0.00    +0.000 A 
ATOM     22  C   UNL     1      10.378  13.011  20.561  0.00  0.00    +0.000 A 
ATOM     23  C   UNL     1       9.464  12.246  21.280  0.00  0.00    +0.000 A 
ATOM     24 BR   UNL     1       8.780  12.920  22.911  0.00  0.00    +0.000 Br
ATOM     25  C   UNL     1       9.060  10.986  20.820  0.00  0.00    +0.000 A 
ENDBRANCH  17  19
ENDBRANCH  14  15
ENDBRANCH   1  14
TORSDOF 6
ENDMDL
