MODEL 1
REMARK VINA RESULT:      -8.2      0.000      0.000
REMARK  Name = 
REMARK  4 active torsions:
REMARK  status: ('A' for Active; 'I' for Inactive)
REMARK    1  A    between atoms: C_1  and  C_2
REMARK    2  A    between atoms: C_8  and  N_9
REMARK    3  A    between atoms: C_10  and  C_12
REMARK    4  A    between atoms: C_15  and  C_16
REMARK                            x       y       z     vdW  Elec       q    Type
REMARK                         _______ _______ _______ _____ _____    ______ ____
ROOT
ATOM      1  N   UNL     1       2.417   7.525  18.642  0.00  0.00    +0.000 N 
ATOM      2  C   UNL     1       1.877   8.747  18.353  0.00  0.00    +0.000 C 
ATOM      3  O   UNL     1       1.988   9.278  17.250  0.00  0.00    +0.000 OA
ATOM      4  H   UNL     1       2.252   7.114  19.561  0.00  0.00    +0.000 HD
ENDROOT
BRANCH   1  12
ATOM      5  C   UNL     1       0.714   2.369  18.735  0.00  0.00    +0.000 C 
ATOM      6  C   UNL     1       1.961   3.179  18.533  0.00  0.00    +0.000 A 
ATOM      7  C   UNL     1       3.229   2.631  18.803  0.00  0.00    +0.000 A 
ATOM      8  C   UNL     1       4.388   3.398  18.654  0.00  0.00    +0.000 A 
ATOM      9  C   UNL     1       4.265   4.717  18.249  0.00  0.00    +0.000 A 
ATOM     10  C   UNL     1       3.015   5.273  17.988  0.00  0.00    +0.000 A 
ATOM     11  C   UNL     1       1.859   4.510  18.110  0.00  0.00    +0.000 A 
ATOM     12  C   UNL     1       3.110   6.729  17.653  0.00  0.00    +0.000 C 
ATOM     13  C   UNL     1       4.632   6.988  17.636  0.00  0.00    +0.000 C 
ATOM     14  C   UNL     1       5.363   5.712  18.077  0.00  0.00    +0.000 C 
ENDBRANCH   1  12
BRANCH   2  15
ATOM     15  C   UNL     1       1.138   9.410  19.468  0.00  0.00    +0.000 A 
ATOM     16  C   UNL     1       0.643  10.643  19.251  0.00  0.00    +0.000 A 
ATOM     17  C   UNL     1      -0.120  11.345  20.256  0.00  0.00    +0.000 A 
ATOM     18  C   UNL     1      -0.365  10.776  21.449  0.00  0.00    +0.000 A 
ATOM     19  N   UNL     1       0.153   9.514  21.697  0.00  0.00    +0.000 N 
ATOM     20  C   UNL     1       0.900   8.784  20.801  0.00  0.00    +0.000 A 
ATOM     21  O   UNL     1       1.333   7.675  21.099  0.00  0.00    +0.000 OA
ATOM     22  H   UNL     1      -0.016   9.073  22.598  0.00  0.00    +0.000 HD
BRANCH  18  23
ATOM     23  C   UNL     1      -1.191  11.450  22.520  0.00  0.00    +0.000 C 
ATOM     24  F   UNL     1      -2.387  11.877  22.036  0.00  0.00    +0.000 F 
ATOM     25  F   UNL     1      -1.456  10.617  23.556  0.00  0.00    +0.000 F 
ATOM     26  F   UNL     1      -0.562  12.537  23.032  0.00  0.00    +0.000 F 
ENDBRANCH  18  23
ENDBRANCH   2  15
TORSDOF 3
ENDMDL
MODEL 2
REMARK VINA RESULT:      -8.0      2.119      3.764
REMARK  Name = 
REMARK  4 active torsions:
REMARK  status: ('A' for Active; 'I' for Inactive)
REMARK    1  A    between atoms: C_1  and  C_2
REMARK    2  A    between atoms: C_8  and  N_9
REMARK    3  A    between atoms: C_10  and  C_12
REMARK    4  A    between atoms: C_15  and  C_16
REMARK                            x       y       z     vdW  Elec       q    Type
REMARK                         _______ _______ _______ _____ _____    ______ ____
ROOT
ATOM      1  N   UNL     1       2.200   6.821  18.792  0.00  0.00    +0.000 N 
ATOM      2  C   UNL     1       1.802   7.614  19.831  0.00  0.00    +0.000 C 
ATOM      3  O   UNL     1       1.841   7.245  21.003  0.00  0.00    +0.000 OA
ATOM      4  H   UNL     1       2.189   7.200  17.846  0.00  0.00    +0.000 HD
ENDROOT
BRANCH   1  12
ATOM      5  C   UNL     1       7.419   6.667  17.296  0.00  0.00    +0.000 C 
ATOM      6  C   UNL     1       6.180   5.820  17.287  0.00  0.00    +0.000 A 
ATOM      7  C   UNL     1       6.008   4.805  16.327  0.00  0.00    +0.000 A 
ATOM      8  C   UNL     1       4.837   4.043  16.293  0.00  0.00    +0.000 A 
ATOM      9  C   UNL     1       3.839   4.315  17.214  0.00  0.00    +0.000 A 
ATOM     10  C   UNL     1       3.995   5.324  18.162  0.00  0.00    +0.000 A 
ATOM     11  C   UNL     1       5.166   6.070  18.219  0.00  0.00    +0.000 A 
ATOM     12  C   UNL     1       2.762   5.503  18.993  0.00  0.00    +0.000 C 
ATOM     13  C   UNL     1       1.833   4.375  18.495  0.00  0.00    +0.000 C 
ATOM     14  C   UNL     1       2.504   3.657  17.316  0.00  0.00    +0.000 C 
ENDBRANCH   1  12
BRANCH   2  15
ATOM     15  C   UNL     1       1.304   8.971  19.458  0.00  0.00    +0.000 A 
ATOM     16  C   UNL     1       0.523   9.622  20.340  0.00  0.00    +0.000 A 
ATOM     17  C   UNL     1       0.029  10.954  20.082  0.00  0.00    +0.000 A 
ATOM     18  C   UNL     1       0.346  11.593  18.943  0.00  0.00    +0.000 A 
ATOM     19  N   UNL     1       1.135  10.931  18.014  0.00  0.00    +0.000 N 
ATOM     20  C   UNL     1       1.634   9.659  18.175  0.00  0.00    +0.000 A 
ATOM     21  O   UNL     1       2.319   9.135  17.301  0.00  0.00    +0.000 OA
ATOM     22  H   UNL     1       1.377  11.397  17.143  0.00  0.00    +0.000 HD
BRANCH  18  23
ATOM     23  C   UNL     1      -0.110  13.001  18.643  0.00  0.00    +0.000 C 
ATOM     24  F   UNL     1       0.941  13.823  18.381  0.00  0.00    +0.000 F 
ATOM     25  F   UNL     1      -0.930  13.050  17.564  0.00  0.00    +0.000 F 
ATOM     26  F   UNL     1      -0.787  13.545  19.685  0.00  0.00    +0.000 F 
ENDBRANCH  18  23
ENDBRANCH   2  15
TORSDOF 3
ENDMDL
MODEL 3
REMARK VINA RESULT:      -7.8      1.053      1.326
REMARK  Name = 
REMARK  4 active torsions:
REMARK  status: ('A' for Active; 'I' for Inactive)
REMARK    1  A    between atoms: C_1  and  C_2
REMARK    2  A    between atoms: C_8  and  N_9
REMARK    3  A    between atoms: C_10  and  C_12
REMARK    4  A    between atoms: C_15  and  C_16
REMARK                            x       y       z     vdW  Elec       q    Type
REMARK                         _______ _______ _______ _____ _____    ______ ____
ROOT
ATOM      1  N   UNL     1       2.285   7.412  18.690  0.00  0.00    +0.000 N 
ATOM      2  C   UNL     1       1.858   8.670  18.371  0.00  0.00    +0.000 C 
ATOM      3  O   UNL     1       2.151   9.223  17.313  0.00  0.00    +0.000 OA
ATOM      4  H   UNL     1       1.971   6.987  19.563  0.00  0.00    +0.000 HD
ENDROOT
BRANCH   1  12
ATOM      5  C   UNL     1       0.646   2.235  18.775  0.00  0.00    +0.000 C 
ATOM      6  C   UNL     1       1.895   3.058  18.654  0.00  0.00    +0.000 A 
ATOM      7  C   UNL     1       3.144   2.535  19.038  0.00  0.00    +0.000 A 
ATOM      8  C   UNL     1       4.301   3.315  18.963  0.00  0.00    +0.000 A 
ATOM      9  C   UNL     1       4.194   4.622  18.517  0.00  0.00    +0.000 A 
ATOM     10  C   UNL     1       2.962   5.153  18.143  0.00  0.00    +0.000 A 
ATOM     11  C   UNL     1       1.810   4.377  18.190  0.00  0.00    +0.000 A 
ATOM     12  C   UNL     1       3.066   6.603  17.781  0.00  0.00    +0.000 C 
ATOM     13  C   UNL     1       4.581   6.883  17.879  0.00  0.00    +0.000 C 
ATOM     14  C   UNL     1       5.290   5.629  18.409  0.00  0.00    +0.000 C 
ENDBRANCH   1  12
BRANCH   2  15
ATOM     15  C   UNL     1       1.008   9.346  19.395  0.00  0.00    +0.000 A 
ATOM     16  C   UNL     1       1.359   9.222  20.688  0.00  0.00    +0.000 A 
ATOM     17  C   UNL     1       0.620   9.875  21.743  0.00  0.00    +0.000 A 
ATOM     18  C   UNL     1      -0.447  10.640  21.459  0.00  0.00    +0.000 A 
ATOM     19  N   UNL     1      -0.835  10.764  20.133  0.00  0.00    +0.000 N 
ATOM     20  C   UNL     1      -0.196  10.166  19.071  0.00  0.00    +0.000 A 
ATOM     21  O   UNL     1      -0.606  10.316  17.924  0.00  0.00    +0.000 OA
ATOM     22  H   UNL     1      -1.646  11.332  19.901  0.00  0.00    +0.000 HD
BRANCH  18  23
ATOM     23  C   UNL     1      -1.230  11.377  22.520  0.00  0.00    +0.000 C 
ATOM     24  F   UNL     1      -2.407  11.853  22.035  0.00  0.00    +0.000 F 
ATOM     25  F   UNL     1      -1.529  10.581  23.576  0.00  0.00    +0.000 F 
ATOM     26  F   UNL     1      -0.543  12.442  23.005  0.00  0.00    +0.000 F 
ENDBRANCH  18  23
ENDBRANCH   2  15
TORSDOF 3
ENDMDL
MODEL 4
REMARK VINA RESULT:      -7.7      1.839      3.497
REMARK  Name = 
REMARK  4 active torsions:
REMARK  status: ('A' for Active; 'I' for Inactive)
REMARK    1  A    between atoms: C_1  and  C_2
REMARK    2  A    between atoms: C_8  and  N_9
REMARK    3  A    between atoms: C_10  and  C_12
REMARK    4  A    between atoms: C_15  and  C_16
REMARK                            x       y       z     vdW  Elec       q    Type
REMARK                         _______ _______ _______ _____ _____    ______ ____
ROOT
ATOM      1  N   UNL     1       2.746   6.130  19.222  0.00  0.00    +0.000 N 
ATOM      2  C   UNL     1       1.862   6.460  20.210  0.00  0.00    +0.000 C 
ATOM      3  O   UNL     1       1.379   5.628  20.976  0.00  0.00    +0.000 OA
ATOM      4  H   UNL     1       3.149   6.870  18.648  0.00  0.00    +0.000 HD
ENDROOT
BRANCH   1  12
ATOM      5  C   UNL     1       8.176   6.005  19.183  0.00  0.00    +0.000 C 
ATOM      6  C   UNL     1       6.992   5.355  18.529  0.00  0.00    +0.000 A 
ATOM      7  C   UNL     1       7.098   4.791  17.243  0.00  0.00    +0.000 A 
ATOM      8  C   UNL     1       5.986   4.221  16.618  0.00  0.00    +0.000 A 
ATOM      9  C   UNL     1       4.769   4.234  17.282  0.00  0.00    +0.000 A 
ATOM     10  C   UNL     1       4.652   4.797  18.550  0.00  0.00    +0.000 A 
ATOM     11  C   UNL     1       5.758   5.344  19.190  0.00  0.00    +0.000 A 
ATOM     12  C   UNL     1       3.236   4.781  19.038  0.00  0.00    +0.000 C 
ATOM     13  C   UNL     1       2.487   4.020  17.923  0.00  0.00    +0.000 C 
ATOM     14  C   UNL     1       3.462   3.726  16.775  0.00  0.00    +0.000 C 
ENDBRANCH   1  12
BRANCH   2  15
ATOM     15  C   UNL     1       1.506   7.907  20.306  0.00  0.00    +0.000 A 
ATOM     16  C   UNL     1       1.162   8.394  21.513  0.00  0.00    +0.000 A 
ATOM     17  C   UNL     1       0.842   9.788  21.708  0.00  0.00    +0.000 A 
ATOM     18  C   UNL     1       0.888  10.651  20.679  0.00  0.00    +0.000 A 
ATOM     19  N   UNL     1       1.222  10.164  19.424  0.00  0.00    +0.000 N 
ATOM     20  C   UNL     1       1.527   8.850  19.150  0.00  0.00    +0.000 A 
ATOM     21  O   UNL     1       1.805   8.493  18.009  0.00  0.00    +0.000 OA
ATOM     22  H   UNL     1       1.252  10.802  18.633  0.00  0.00    +0.000 HD
BRANCH  18  23
ATOM     23  C   UNL     1       0.602  12.127  20.837  0.00  0.00    +0.000 C 
ATOM     24  F   UNL     1      -0.259  12.575  19.886  0.00  0.00    +0.000 F 
ATOM     25  F   UNL     1       0.047  12.410  22.041  0.00  0.00    +0.000 F 
ATOM     26  F   UNL     1       1.731  12.872  20.731  0.00  0.00    +0.000 F 
ENDBRANCH  18  23
ENDBRANCH   2  15
TORSDOF 3
ENDMDL
MODEL 5
REMARK VINA RESULT:      -7.7      2.225      3.597
REMARK  Name = 
REMARK  4 active torsions:
REMARK  status: ('A' for Active; 'I' for Inactive)
REMARK    1  A    between atoms: C_1  and  C_2
REMARK    2  A    between atoms: C_8  and  N_9
REMARK    3  A    between atoms: C_10  and  C_12
REMARK    4  A    between atoms: C_15  and  C_16
REMARK                            x       y       z     vdW  Elec       q    Type
REMARK                         _______ _______ _______ _____ _____    ______ ____
ROOT
ATOM      1  N   UNL     1       2.064   7.205  19.459  0.00  0.00    +0.000 N 
ATOM      2  C   UNL     1       1.550   8.072  20.381  0.00  0.00    +0.000 C 
ATOM      3  O   UNL     1       1.453   7.792  21.575  0.00  0.00    +0.000 OA
ATOM      4  H   UNL     1       2.162   7.510  18.491  0.00  0.00    +0.000 HD
ENDROOT
BRANCH   1  12
ATOM      5  C   UNL     1       6.310   5.887  16.339  0.00  0.00    +0.000 C 
ATOM      6  C   UNL     1       5.121   5.264  17.011  0.00  0.00    +0.000 A 
ATOM      7  C   UNL     1       4.549   4.078  16.511  0.00  0.00    +0.000 A 
ATOM      8  C   UNL     1       3.418   3.519  17.112  0.00  0.00    +0.000 A 
ATOM      9  C   UNL     1       2.859   4.164  18.204  0.00  0.00    +0.000 A 
ATOM     10  C   UNL     1       3.411   5.342  18.701  0.00  0.00    +0.000 A 
ATOM     11  C   UNL     1       4.550   5.891  18.125  0.00  0.00    +0.000 A 
ATOM     12  C   UNL     1       2.596   5.910  19.822  0.00  0.00    +0.000 C 
ATOM     13  C   UNL     1       1.495   4.848  20.032  0.00  0.00    +0.000 C 
ATOM     14  C   UNL     1       1.634   3.763  18.954  0.00  0.00    +0.000 C 
ENDBRANCH   1  12
BRANCH   2  15
ATOM     15  C   UNL     1       1.101   9.393  19.851  0.00  0.00    +0.000 A 
ATOM     16  C   UNL     1       0.417  10.206  20.678  0.00  0.00    +0.000 A 
ATOM     17  C   UNL     1      -0.021  11.518  20.266  0.00  0.00    +0.000 A 
ATOM     18  C   UNL     1       0.251  11.973  19.031  0.00  0.00    +0.000 A 
ATOM     19  N   UNL     1       0.939  11.143  18.158  0.00  0.00    +0.000 N 
ATOM     20  C   UNL     1       1.379   9.876  18.467  0.00  0.00    +0.000 A 
ATOM     21  O   UNL     1       1.974   9.196  17.636  0.00  0.00    +0.000 OA
ATOM     22  H   UNL     1       1.145  11.469  17.217  0.00  0.00    +0.000 HD
BRANCH  18  23
ATOM     23  C   UNL     1      -0.149  13.353  18.563  0.00  0.00    +0.000 C 
ATOM     24  F   UNL     1      -0.825  13.306  17.385  0.00  0.00    +0.000 F 
ATOM     25  F   UNL     1      -0.952  13.980  19.457  0.00  0.00    +0.000 F 
ATOM     26  F   UNL     1       0.931  14.151  18.367  0.00  0.00    +0.000 F 
ENDBRANCH  18  23
ENDBRANCH   2  15
TORSDOF 3
ENDMDL
MODEL 6
REMARK VINA RESULT:      -7.4      3.775      7.943
REMARK  Name = 
REMARK  4 active torsions:
REMARK  status: ('A' for Active; 'I' for Inactive)
REMARK    1  A    between atoms: C_1  and  C_2
REMARK    2  A    between atoms: C_8  and  N_9
REMARK    3  A    between atoms: C_10  and  C_12
REMARK    4  A    between atoms: C_15  and  C_16
REMARK                            x       y       z     vdW  Elec       q    Type
REMARK                         _______ _______ _______ _____ _____    ______ ____
ROOT
ATOM      1  N   UNL     1      -0.541  10.430  18.487  0.00  0.00    +0.000 N 
ATOM      2  C   UNL     1       0.818  10.425  18.635  0.00  0.00    +0.000 C 
ATOM      3  O   UNL     1       1.502  11.441  18.529  0.00  0.00    +0.000 OA
ATOM      4  H   UNL     1      -1.059   9.564  18.632  0.00  0.00    +0.000 HD
ENDROOT
BRANCH   1  12
ATOM      5  C   UNL     1      -1.300  13.173  23.112  0.00  0.00    +0.000 C 
ATOM      6  C   UNL     1      -2.002  12.840  21.829  0.00  0.00    +0.000 A 
ATOM      7  C   UNL     1      -3.408  12.820  21.759  0.00  0.00    +0.000 A 
ATOM      8  C   UNL     1      -4.062  12.471  20.574  0.00  0.00    +0.000 A 
ATOM      9  C   UNL     1      -3.299  12.127  19.470  0.00  0.00    +0.000 A 
ATOM     10  C   UNL     1      -1.908  12.134  19.530  0.00  0.00    +0.000 A 
ATOM     11  C   UNL     1      -1.249  12.504  20.697  0.00  0.00    +0.000 A 
ATOM     12  C   UNL     1      -1.292  11.645  18.256  0.00  0.00    +0.000 C 
ATOM     13  C   UNL     1      -2.512  11.428  17.335  0.00  0.00    +0.000 C 
ATOM     14  C   UNL     1      -3.796  11.680  18.136  0.00  0.00    +0.000 C 
ENDBRANCH   1  12
BRANCH   2  15
ATOM     15  C   UNL     1       1.433   9.098  18.932  0.00  0.00    +0.000 A 
ATOM     16  C   UNL     1       2.079   8.465  17.935  0.00  0.00    +0.000 A 
ATOM     17  C   UNL     1       2.740   7.197  18.140  0.00  0.00    +0.000 A 
ATOM     18  C   UNL     1       2.734   6.611  19.349  0.00  0.00    +0.000 A 
ATOM     19  N   UNL     1       2.057   7.239  20.384  0.00  0.00    +0.000 N 
ATOM     20  C   UNL     1       1.392   8.439  20.270  0.00  0.00    +0.000 A 
ATOM     21  O   UNL     1       0.807   8.928  21.232  0.00  0.00    +0.000 OA
ATOM     22  H   UNL     1       2.036   6.804  21.303  0.00  0.00    +0.000 HD
BRANCH  18  23
ATOM     23  C   UNL     1       3.444   5.306  19.627  0.00  0.00    +0.000 C 
ATOM     24  F   UNL     1       4.776   5.492  19.820  0.00  0.00    +0.000 F 
ATOM     25  F   UNL     1       2.963   4.693  20.737  0.00  0.00    +0.000 F 
ATOM     26  F   UNL     1       3.312   4.432  18.598  0.00  0.00    +0.000 F 
ENDBRANCH  18  23
ENDBRANCH   2  15
TORSDOF 3
ENDMDL
MODEL 7
REMARK VINA RESULT:      -7.4      2.210      3.600
REMARK  Name = 
REMARK  4 active torsions:
REMARK  status: ('A' for Active; 'I' for Inactive)
REMARK    1  A    between atoms: C_1  and  C_2
REMARK    2  A    between atoms: C_8  and  N_9
REMARK    3  A    between atoms: C_10  and  C_12
REMARK    4  A    between atoms: C_15  and  C_16
REMARK                            x       y       z     vdW  Elec       q    Type
REMARK                         _______ _______ _______ _____ _____    ______ ____
ROOT
ATOM      1  N   UNL     1       2.715   6.238  18.762  0.00  0.00    +0.000 N 
ATOM      2  C   UNL     1       2.047   6.777  19.825  0.00  0.00    +0.000 C 
ATOM      3  O   UNL     1       1.762   6.129  20.830  0.00  0.00    +0.000 OA
ATOM      4  H   UNL     1       2.965   6.838  17.976  0.00  0.00    +0.000 HD
ENDROOT
BRANCH   1  12
ATOM      5  C   UNL     1       8.132   6.080  19.125  0.00  0.00    +0.000 C 
ATOM      6  C   UNL     1       6.989   5.369  18.462  0.00  0.00    +0.000 A 
ATOM      7  C   UNL     1       7.177   4.668  17.256  0.00  0.00    +0.000 A 
ATOM      8  C   UNL     1       6.104   4.039  16.617  0.00  0.00    +0.000 A 
ATOM      9  C   UNL     1       4.845   4.131  17.188  0.00  0.00    +0.000 A 
ATOM     10  C   UNL     1       4.646   4.829  18.376  0.00  0.00    +0.000 A 
ATOM     11  C   UNL     1       5.711   5.437  19.030  0.00  0.00    +0.000 A 
ATOM     12  C   UNL     1       3.199   4.875  18.760  0.00  0.00    +0.000 C 
ATOM     13  C   UNL     1       2.520   4.001  17.684  0.00  0.00    +0.000 C 
ATOM     14  C   UNL     1       3.570   3.578  16.646  0.00  0.00    +0.000 C 
ENDBRANCH   1  12
BRANCH   2  15
ATOM     15  C   UNL     1       1.672   8.216  19.694  0.00  0.00    +0.000 A 
ATOM     16  C   UNL     1       1.756   8.782  18.475  0.00  0.00    +0.000 A 
ATOM     17  C   UNL     1       1.376  10.156  18.246  0.00  0.00    +0.000 A 
ATOM     18  C   UNL     1       0.915  10.915  19.254  0.00  0.00    +0.000 A 
ATOM     19  N   UNL     1       0.840  10.356  20.520  0.00  0.00    +0.000 N 
ATOM     20  C   UNL     1       1.194   9.062  20.827  0.00  0.00    +0.000 A 
ATOM     21  O   UNL     1       1.108   8.641  21.977  0.00  0.00    +0.000 OA
ATOM     22  H   UNL     1       0.501  10.920  21.296  0.00  0.00    +0.000 HD
BRANCH  18  23
ATOM     23  C   UNL     1       0.466  12.345  19.059  0.00  0.00    +0.000 C 
ATOM     24  F   UNL     1      -0.492  12.443  18.100  0.00  0.00    +0.000 F 
ATOM     25  F   UNL     1      -0.054  12.873  20.195  0.00  0.00    +0.000 F 
ATOM     26  F   UNL     1       1.490  13.148  18.678  0.00  0.00    +0.000 F 
ENDBRANCH  18  23
ENDBRANCH   2  15
TORSDOF 3
ENDMDL
MODEL 8
REMARK VINA RESULT:      -7.4      4.713      7.974
REMARK  Name = 
REMARK  4 active torsions:
REMARK  status: ('A' for Active; 'I' for Inactive)
REMARK    1  A    between atoms: C_1  and  C_2
REMARK    2  A    between atoms: C_8  and  N_9
REMARK    3  A    between atoms: C_10  and  C_12
REMARK    4  A    between atoms: C_15  and  C_16
REMARK                            x       y       z     vdW  Elec       q    Type
REMARK                         _______ _______ _______ _____ _____    ______ ____
ROOT
ATOM      1  N   UNL     1       1.474   8.691  19.700  0.00  0.00    +0.000 N 
ATOM      2  C   UNL     1       1.865   7.412  19.976  0.00  0.00    +0.000 C 
ATOM      3  O   UNL     1       1.384   6.753  20.897  0.00  0.00    +0.000 OA
ATOM      4  H   UNL     1       1.875   9.170  18.894  0.00  0.00    +0.000 HD
ENDROOT
BRANCH   1  12
ATOM      5  C   UNL     1      -2.545  10.199  16.372  0.00  0.00    +0.000 C 
ATOM      6  C   UNL     1      -1.809  10.666  17.594  0.00  0.00    +0.000 A 
ATOM      7  C   UNL     1      -1.727  12.036  17.908  0.00  0.00    +0.000 A 
ATOM      8  C   UNL     1      -1.008  12.474  19.023  0.00  0.00    +0.000 A 
ATOM      9  C   UNL     1      -0.361  11.533  19.809  0.00  0.00    +0.000 A 
ATOM     10  C   UNL     1      -0.428  10.176  19.502  0.00  0.00    +0.000 A 
ATOM     11  C   UNL     1      -1.161   9.729  18.409  0.00  0.00    +0.000 A 
ATOM     12  C   UNL     1       0.414   9.353  20.428  0.00  0.00    +0.000 C 
ATOM     13  C   UNL     1       0.942  10.391  21.441  0.00  0.00    +0.000 C 
ATOM     14  C   UNL     1       0.492  11.792  21.004  0.00  0.00    +0.000 C 
ENDBRANCH   1  12
BRANCH   2  15
ATOM     15  C   UNL     1       2.928   6.852  19.090  0.00  0.00    +0.000 A 
ATOM     16  C   UNL     1       3.586   5.755  19.508  0.00  0.00    +0.000 A 
ATOM     17  C   UNL     1       4.601   5.121  18.700  0.00  0.00    +0.000 A 
ATOM     18  C   UNL     1       4.915   5.611  17.489  0.00  0.00    +0.000 A 
ATOM     19  N   UNL     1       4.261   6.752  17.049  0.00  0.00    +0.000 N 
ATOM     20  C   UNL     1       3.294   7.424  17.761  0.00  0.00    +0.000 A 
ATOM     21  O   UNL     1       2.767   8.435  17.308  0.00  0.00    +0.000 OA
ATOM     22  H   UNL     1       4.494   7.141  16.139  0.00  0.00    +0.000 HD
BRANCH  18  23
ATOM     23  C   UNL     1       5.939   4.962  16.587  0.00  0.00    +0.000 C 
ATOM     24  F   UNL     1       6.120   5.673  15.442  0.00  0.00    +0.000 F 
ATOM     25  F   UNL     1       7.151   4.859  17.186  0.00  0.00    +0.000 F 
ATOM     26  F   UNL     1       5.567   3.710  16.220  0.00  0.00    +0.000 F 
ENDBRANCH  18  23
ENDBRANCH   2  15
TORSDOF 3
ENDMDL
MODEL 9
REMARK VINA RESULT:      -7.3      1.656      3.523
REMARK  Name = 
REMARK  4 active torsions:
REMARK  status: ('A' for Active; 'I' for Inactive)
REMARK    1  A    between atoms: C_1  and  C_2
REMARK    2  A    between atoms: C_8  and  N_9
REMARK    3  A    between atoms: C_10  and  C_12
REMARK    4  A    between atoms: C_15  and  C_16
REMARK                            x       y       z     vdW  Elec       q    Type
REMARK                         _______ _______ _______ _____ _____    ______ ____
ROOT
ATOM      1  N   UNL     1       2.757   6.518  19.321  0.00  0.00    +0.000 N 
ATOM      2  C   UNL     1       1.886   6.733  20.351  0.00  0.00    +0.000 C 
ATOM      3  O   UNL     1       1.522   5.839  21.112  0.00  0.00    +0.000 OA
ATOM      4  H   UNL     1       3.058   7.308  18.751  0.00  0.00    +0.000 HD
ENDROOT
BRANCH   1  12
ATOM      5  C   UNL     1       7.800   7.093  17.387  0.00  0.00    +0.000 C 
ATOM      6  C   UNL     1       6.591   6.215  17.243  0.00  0.00    +0.000 A 
ATOM      7  C   UNL     1       6.352   5.506  16.050  0.00  0.00    +0.000 A 
ATOM      8  C   UNL     1       5.206   4.720  15.902  0.00  0.00    +0.000 A 
ATOM      9  C   UNL     1       4.299   4.662  16.947  0.00  0.00    +0.000 A 
ATOM     10  C   UNL     1       4.521   5.366  18.128  0.00  0.00    +0.000 A 
ATOM     11  C   UNL     1       5.670   6.131  18.294  0.00  0.00    +0.000 A 
ATOM     12  C   UNL     1       3.374   5.232  19.082  0.00  0.00    +0.000 C 
ATOM     13  C   UNL     1       2.433   4.240  18.364  0.00  0.00    +0.000 C 
ATOM     14  C   UNL     1       3.002   3.927  16.973  0.00  0.00    +0.000 C 
ENDBRANCH   1  12
BRANCH   2  15
ATOM     15  C   UNL     1       1.388   8.133  20.498  0.00  0.00    +0.000 A 
ATOM     16  C   UNL     1       1.008   8.542  21.723  0.00  0.00    +0.000 A 
ATOM     17  C   UNL     1       0.551   9.890  21.968  0.00  0.00    +0.000 A 
ATOM     18  C   UNL     1       0.501  10.787  20.969  0.00  0.00    +0.000 A 
ATOM     19  N   UNL     1       0.871  10.379  19.696  0.00  0.00    +0.000 N 
ATOM     20  C   UNL     1       1.303   9.112  19.375  0.00  0.00    +0.000 A 
ATOM     21  O   UNL     1       1.605   8.823  18.221  0.00  0.00    +0.000 OA
ATOM     22  H   UNL     1       0.830  11.043  18.927  0.00  0.00    +0.000 HD
BRANCH  18  23
ATOM     23  C   UNL     1       0.071  12.220  21.179  0.00  0.00    +0.000 C 
ATOM     24  F   UNL     1      -0.646  12.365  22.325  0.00  0.00    +0.000 F 
ATOM     25  F   UNL     1       1.130  13.061  21.265  0.00  0.00    +0.000 F 
ATOM     26  F   UNL     1      -0.712  12.665  20.165  0.00  0.00    +0.000 F 
ENDBRANCH  18  23
ENDBRANCH   2  15
TORSDOF 3
ENDMDL
