MODEL 1
REMARK VINA RESULT:      -8.0      0.000      0.000
REMARK  Name = 
REMARK  7 active torsions:
REMARK  status: ('A' for Active; 'I' for Inactive)
REMARK    1  A    between atoms: C_1  and  C_2
REMARK    2  A    between atoms: C_5  and  C_6
REMARK    3  A    between atoms: C_6  and  N_7
REMARK    4  A    between atoms: N_12  and  C_13
REMARK    5  A    between atoms: C_13  and  C_14
REMARK    6  A    between atoms: C_18  and  C_19
REMARK    7  A    between atoms: C_19  and  O_21
REMARK                            x       y       z     vdW  Elec       q    Type
REMARK                         _______ _______ _______ _____ _____    ______ ____
ROOT
ATOM      1  N   UNL     1       3.754   5.344  19.743  0.00  0.00    +0.000 NA
ATOM      2  C   UNL     1       3.893   3.908  19.454  0.00  0.00    +0.000 C 
ATOM      3  C   UNL     1       4.928   3.741  18.350  0.00  0.00    +0.000 C 
ATOM      4  C   UNL     1       4.328   3.740  16.956  0.00  0.00    +0.000 C 
ATOM      5  O   UNL     1       3.235   3.295  16.642  0.00  0.00    +0.000 OA
ATOM      6  N   UNL     1       5.279   4.282  16.104  0.00  0.00    +0.000 N 
ATOM      7  C   UNL     1       6.191   5.118  16.848  0.00  0.00    +0.000 C 
ATOM      8  C   UNL     1       5.803   4.983  18.350  0.00  0.00    +0.000 C 
ATOM      9  C   UNL     1       4.879   6.034  19.001  0.00  0.00    +0.000 C 
ENDROOT
BRANCH   8  10
ATOM     10  C   UNL     1       7.148   5.069  19.060  0.00  0.00    +0.000 C 
ATOM     11  O   UNL     1       7.271   5.602  20.152  0.00  0.00    +0.000 OA
BRANCH  10  12
ATOM     12  O   UNL     1       8.187   4.494  18.429  0.00  0.00    +0.000 OA
ATOM     13  H   UNL     1       7.997   3.774  17.809  0.00  0.00    +0.000 HD
ENDBRANCH  10  12
ENDBRANCH   8  10
BRANCH   1  14
ATOM     14  C   UNL     1       2.461   5.927  19.293  0.00  0.00    +0.000 C 
BRANCH  14  19
ATOM     15  C   UNL     1       0.362  11.345  18.847  0.00  0.00    +0.000 C 
ATOM     16  C   UNL     1       1.164  10.082  18.949  0.00  0.00    +0.000 A 
ATOM     17  C   UNL     1       1.865   9.517  17.870  0.00  0.00    +0.000 A 
ATOM     18  C   UNL     1       2.397   8.198  17.936  0.00  0.00    +0.000 A 
ATOM     19  C   UNL     1       2.225   7.423  19.091  0.00  0.00    +0.000 A 
ATOM     20  C   UNL     1       1.608   8.051  20.190  0.00  0.00    +0.000 A 
ATOM     21  F   UNL     1       1.423   7.350  21.321  0.00  0.00    +0.000 F 
ATOM     22  C   UNL     1       1.093   9.344  20.129  0.00  0.00    +0.000 A 
ATOM     23  F   UNL     1       0.455   9.848  21.193  0.00  0.00    +0.000 F 
ENDBRANCH  14  19
ENDBRANCH   1  14
BRANCH   6  24
ATOM     24  C   UNL     1       5.112   4.330  14.653  0.00  0.00    +0.000 C 
BRANCH  24  25
ATOM     25  C   UNL     1       6.225   3.700  13.854  0.00  0.00    +0.000 C 
ATOM     26  C   UNL     1       6.210   3.525  12.352  0.00  0.00    +0.000 C 
ATOM     27  C   UNL     1       7.076   4.585  12.967  0.00  0.00    +0.000 C 
ENDBRANCH  24  25
ENDBRANCH   6  24
TORSDOF 6
ENDMDL
MODEL 2
REMARK VINA RESULT:      -7.9      1.846      2.621
REMARK  Name = 
REMARK  7 active torsions:
REMARK  status: ('A' for Active; 'I' for Inactive)
REMARK    1  A    between atoms: C_1  and  C_2
REMARK    2  A    between atoms: C_5  and  C_6
REMARK    3  A    between atoms: C_6  and  N_7
REMARK    4  A    between atoms: N_12  and  C_13
REMARK    5  A    between atoms: C_13  and  C_14
REMARK    6  A    between atoms: C_18  and  C_19
REMARK    7  A    between atoms: C_19  and  O_21
REMARK                            x       y       z     vdW  Elec       q    Type
REMARK                         _______ _______ _______ _____ _____    ______ ____
ROOT
ATOM      1  N   UNL     1       2.037   5.281  19.577  0.00  0.00    +0.000 NA
ATOM      2  C   UNL     1       1.885   5.241  18.113  0.00  0.00    +0.000 C 
ATOM      3  C   UNL     1       3.008   4.389  17.540  0.00  0.00    +0.000 C 
ATOM      4  C   UNL     1       4.244   5.188  17.170  0.00  0.00    +0.000 C 
ATOM      5  O   UNL     1       4.261   6.332  16.742  0.00  0.00    +0.000 OA
ATOM      6  N   UNL     1       5.337   4.355  17.353  0.00  0.00    +0.000 N 
ATOM      7  C   UNL     1       5.012   3.311  18.296  0.00  0.00    +0.000 C 
ATOM      8  C   UNL     1       3.504   3.477  18.649  0.00  0.00    +0.000 C 
ATOM      9  C   UNL     1       3.095   4.253  19.918  0.00  0.00    +0.000 C 
ENDROOT
BRANCH   8  10
ATOM     10  C   UNL     1       3.037   2.039  18.834  0.00  0.00    +0.000 C 
ATOM     11  O   UNL     1       1.916   1.770  19.242  0.00  0.00    +0.000 OA
BRANCH  10  12
ATOM     12  O   UNL     1       3.916   1.082  18.491  0.00  0.00    +0.000 OA
ATOM     13  H   UNL     1       4.694   1.347  17.978  0.00  0.00    +0.000 HD
ENDBRANCH  10  12
ENDBRANCH   8  10
BRANCH   1  14
ATOM     14  C   UNL     1       2.473   6.604  20.101  0.00  0.00    +0.000 C 
BRANCH  14  19
ATOM     15  C   UNL     1      -0.720  11.219  18.533  0.00  0.00    +0.000 C 
ATOM     16  C   UNL     1       0.330  10.214  18.903  0.00  0.00    +0.000 A 
ATOM     17  C   UNL     1       1.204   9.625  17.974  0.00  0.00    +0.000 A 
ATOM     18  C   UNL     1       2.005   8.499  18.314  0.00  0.00    +0.000 A 
ATOM     19  C   UNL     1       1.931   7.941  19.598  0.00  0.00    +0.000 A 
ATOM     20  C   UNL     1       1.123   8.611  20.536  0.00  0.00    +0.000 A 
ATOM     21  F   UNL     1       1.022   8.117  21.780  0.00  0.00    +0.000 F 
ATOM     22  C   UNL     1       0.344   9.718  20.205  0.00  0.00    +0.000 A 
ATOM     23  F   UNL     1      -0.456  10.260  21.133  0.00  0.00    +0.000 F 
ENDBRANCH  14  19
ENDBRANCH   1  14
BRANCH   6  24
ATOM     24  C   UNL     1       6.698   4.733  16.977  0.00  0.00    +0.000 C 
BRANCH  24  25
ATOM     25  C   UNL     1       7.152   4.250  15.623  0.00  0.00    +0.000 C 
ATOM     26  C   UNL     1       6.221   3.861  14.495  0.00  0.00    +0.000 C 
ATOM     27  C   UNL     1       6.967   5.161  14.426  0.00  0.00    +0.000 C 
ENDBRANCH  24  25
ENDBRANCH   6  24
TORSDOF 6
ENDMDL
MODEL 3
REMARK VINA RESULT:      -7.7      2.207      3.268
REMARK  Name = 
REMARK  7 active torsions:
REMARK  status: ('A' for Active; 'I' for Inactive)
REMARK    1  A    between atoms: C_1  and  C_2
REMARK    2  A    between atoms: C_5  and  C_6
REMARK    3  A    between atoms: C_6  and  N_7
REMARK    4  A    between atoms: N_12  and  C_13
REMARK    5  A    between atoms: C_13  and  C_14
REMARK    6  A    between atoms: C_18  and  C_19
REMARK    7  A    between atoms: C_19  and  O_21
REMARK                            x       y       z     vdW  Elec       q    Type
REMARK                         _______ _______ _______ _____ _____    ______ ____
ROOT
ATOM      1  N   UNL     1       2.137   5.141  19.419  0.00  0.00    +0.000 NA
ATOM      2  C   UNL     1       2.030   5.132  17.951  0.00  0.00    +0.000 C 
ATOM      3  C   UNL     1       3.157   4.273  17.395  0.00  0.00    +0.000 C 
ATOM      4  C   UNL     1       4.416   5.061  17.080  0.00  0.00    +0.000 C 
ATOM      5  O   UNL     1       4.464   6.212  16.675  0.00  0.00    +0.000 OA
ATOM      6  N   UNL     1       5.491   4.207  17.279  0.00  0.00    +0.000 N 
ATOM      7  C   UNL     1       5.121   3.150  18.191  0.00  0.00    +0.000 C 
ATOM      8  C   UNL     1       3.605   3.333  18.501  0.00  0.00    +0.000 C 
ATOM      9  C   UNL     1       3.168   4.090  19.772  0.00  0.00    +0.000 C 
ENDROOT
BRANCH   8  10
ATOM     10  C   UNL     1       3.110   1.899  18.643  0.00  0.00    +0.000 C 
ATOM     11  O   UNL     1       1.951   1.639  18.929  0.00  0.00    +0.000 OA
BRANCH  10  12
ATOM     12  O   UNL     1       4.016   0.935  18.403  0.00  0.00    +0.000 OA
ATOM     13  H   UNL     1       4.702   1.113  17.742  0.00  0.00    +0.000 HD
ENDBRANCH  10  12
ENDBRANCH   8  10
BRANCH   1  14
ATOM     14  C   UNL     1       2.577   6.446  19.983  0.00  0.00    +0.000 C 
BRANCH  14  19
ATOM     15  C   UNL     1      -0.567  11.134  18.535  0.00  0.00    +0.000 C 
ATOM     16  C   UNL     1       0.472  10.107  18.875  0.00  0.00    +0.000 A 
ATOM     17  C   UNL     1       1.328   9.525  17.926  0.00  0.00    +0.000 A 
ATOM     18  C   UNL     1       2.117   8.381  18.237  0.00  0.00    +0.000 A 
ATOM     19  C   UNL     1       2.048   7.800  19.510  0.00  0.00    +0.000 A 
ATOM     20  C   UNL     1       1.259   8.464  20.469  0.00  0.00    +0.000 A 
ATOM     21  F   UNL     1       1.164   7.947  21.705  0.00  0.00    +0.000 F 
ATOM     22  C   UNL     1       0.492   9.587  20.168  0.00  0.00    +0.000 A 
ATOM     23  F   UNL     1      -0.289  10.123  21.114  0.00  0.00    +0.000 F 
ENDBRANCH  14  19
ENDBRANCH   1  14
BRANCH   6  24
ATOM     24  C   UNL     1       6.868   4.571  16.954  0.00  0.00    +0.000 C 
BRANCH  24  25
ATOM     25  C   UNL     1       7.694   5.071  18.112  0.00  0.00    +0.000 C 
ATOM     26  C   UNL     1       7.870   6.530  18.473  0.00  0.00    +0.000 C 
ATOM     27  C   UNL     1       6.982   5.659  19.313  0.00  0.00    +0.000 C 
ENDBRANCH  24  25
ENDBRANCH   6  24
TORSDOF 6
ENDMDL
MODEL 4
REMARK VINA RESULT:      -7.7      1.395      1.741
REMARK  Name = 
REMARK  7 active torsions:
REMARK  status: ('A' for Active; 'I' for Inactive)
REMARK    1  A    between atoms: C_1  and  C_2
REMARK    2  A    between atoms: C_5  and  C_6
REMARK    3  A    between atoms: C_6  and  N_7
REMARK    4  A    between atoms: N_12  and  C_13
REMARK    5  A    between atoms: C_13  and  C_14
REMARK    6  A    between atoms: C_18  and  C_19
REMARK    7  A    between atoms: C_19  and  O_21
REMARK                            x       y       z     vdW  Elec       q    Type
REMARK                         _______ _______ _______ _____ _____    ______ ____
ROOT
ATOM      1  N   UNL     1       4.188   5.436  19.652  0.00  0.00    +0.000 NA
ATOM      2  C   UNL     1       4.673   4.092  19.298  0.00  0.00    +0.000 C 
ATOM      3  C   UNL     1       5.719   4.235  18.203  0.00  0.00    +0.000 C 
ATOM      4  C   UNL     1       5.140   4.157  16.802  0.00  0.00    +0.000 C 
ATOM      5  O   UNL     1       4.189   3.476  16.452  0.00  0.00    +0.000 OA
ATOM      6  N   UNL     1       5.933   4.954  15.989  0.00  0.00    +0.000 N 
ATOM      7  C   UNL     1       6.613   5.949  16.784  0.00  0.00    +0.000 C 
ATOM      8  C   UNL     1       6.266   5.651  18.272  0.00  0.00    +0.000 C 
ATOM      9  C   UNL     1       5.113   6.413  18.959  0.00  0.00    +0.000 C 
ENDROOT
BRANCH   8  10
ATOM     10  C   UNL     1       7.549   6.026  19.004  0.00  0.00    +0.000 C 
ATOM     11  O   UNL     1       8.311   6.880  18.577  0.00  0.00    +0.000 OA
BRANCH  10  12
ATOM     12  O   UNL     1       7.776   5.386  20.164  0.00  0.00    +0.000 OA
ATOM     13  H   UNL     1       7.173   5.559  20.902  0.00  0.00    +0.000 HD
ENDBRANCH  10  12
ENDBRANCH   8  10
BRANCH   1  14
ATOM     14  C   UNL     1       2.793   5.709  19.212  0.00  0.00    +0.000 C 
BRANCH  14  19
ATOM     15  C   UNL     1       0.840  11.075  20.374  0.00  0.00    +0.000 C 
ATOM     16  C   UNL     1       1.061   9.617  20.102  0.00  0.00    +0.000 A 
ATOM     17  C   UNL     1       0.994   8.623  21.093  0.00  0.00    +0.000 A 
ATOM     18  C   UNL     1       1.456   7.298  20.853  0.00  0.00    +0.000 A 
ATOM     19  C   UNL     1       2.002   6.956  19.608  0.00  0.00    +0.000 A 
ATOM     20  C   UNL     1       1.964   7.942  18.604  0.00  0.00    +0.000 A 
ATOM     21  F   UNL     1       2.473   7.660  17.394  0.00  0.00    +0.000 F 
ATOM     22  C   UNL     1       1.506   9.237  18.837  0.00  0.00    +0.000 A 
ATOM     23  F   UNL     1       1.566  10.143  17.853  0.00  0.00    +0.000 F 
ENDBRANCH  14  19
ENDBRANCH   1  14
BRANCH   6  24
ATOM     24  C   UNL     1       5.762   5.031  14.540  0.00  0.00    +0.000 C 
BRANCH  24  25
ATOM     25  C   UNL     1       6.324   3.868  13.761  0.00  0.00    +0.000 C 
ATOM     26  C   UNL     1       5.757   3.355  12.456  0.00  0.00    +0.000 C 
ATOM     27  C   UNL     1       7.034   4.145  12.451  0.00  0.00    +0.000 C 
ENDBRANCH  24  25
ENDBRANCH   6  24
TORSDOF 6
ENDMDL
MODEL 5
REMARK VINA RESULT:      -7.5      2.099      3.211
REMARK  Name = 
REMARK  7 active torsions:
REMARK  status: ('A' for Active; 'I' for Inactive)
REMARK    1  A    between atoms: C_1  and  C_2
REMARK    2  A    between atoms: C_5  and  C_6
REMARK    3  A    between atoms: C_6  and  N_7
REMARK    4  A    between atoms: N_12  and  C_13
REMARK    5  A    between atoms: C_13  and  C_14
REMARK    6  A    between atoms: C_18  and  C_19
REMARK    7  A    between atoms: C_19  and  O_21
REMARK                            x       y       z     vdW  Elec       q    Type
REMARK                         _______ _______ _______ _____ _____    ______ ____
ROOT
ATOM      1  N   UNL     1       1.851   5.776  19.646  0.00  0.00    +0.000 NA
ATOM      2  C   UNL     1       1.777   5.609  18.185  0.00  0.00    +0.000 C 
ATOM      3  C   UNL     1       2.868   4.636  17.761  0.00  0.00    +0.000 C 
ATOM      4  C   UNL     1       4.176   5.317  17.399  0.00  0.00    +0.000 C 
ATOM      5  O   UNL     1       4.297   6.411  16.871  0.00  0.00    +0.000 OA
ATOM      6  N   UNL     1       5.197   4.435  17.722  0.00  0.00    +0.000 N 
ATOM      7  C   UNL     1       4.748   3.508  18.734  0.00  0.00    +0.000 C 
ATOM      8  C   UNL     1       3.238   3.803  18.977  0.00  0.00    +0.000 C 
ATOM      9  C   UNL     1       2.814   4.719  20.143  0.00  0.00    +0.000 C 
ENDROOT
BRANCH   8  10
ATOM     10  C   UNL     1       2.662   2.421  19.261  0.00  0.00    +0.000 C 
ATOM     11  O   UNL     1       1.903   2.216  20.197  0.00  0.00    +0.000 OA
BRANCH  10  12
ATOM     12  O   UNL     1       3.010   1.447  18.403  0.00  0.00    +0.000 OA
ATOM     13  H   UNL     1       3.905   1.083  18.471  0.00  0.00    +0.000 HD
ENDBRANCH  10  12
ENDBRANCH   8  10
BRANCH   1  14
ATOM     14  C   UNL     1       2.348   7.112  20.075  0.00  0.00    +0.000 C 
BRANCH  14  19
ATOM     15  C   UNL     1      -0.173  12.186  21.435  0.00  0.00    +0.000 C 
ATOM     16  C   UNL     1       0.210  10.767  21.138  0.00  0.00    +0.000 A 
ATOM     17  C   UNL     1       0.363   9.780  22.125  0.00  0.00    +0.000 A 
ATOM     18  C   UNL     1       0.970   8.525  21.838  0.00  0.00    +0.000 A 
ATOM     19  C   UNL     1       1.441   8.248  20.547  0.00  0.00    +0.000 A 
ATOM     20  C   UNL     1       1.184   9.214  19.556  0.00  0.00    +0.000 A 
ATOM     21  F   UNL     1       1.614   8.992  18.303  0.00  0.00    +0.000 F 
ATOM     22  C   UNL     1       0.584  10.440  19.836  0.00  0.00    +0.000 A 
ATOM     23  F   UNL     1       0.437  11.339  18.855  0.00  0.00    +0.000 F 
ENDBRANCH  14  19
ENDBRANCH   1  14
BRANCH   6  24
ATOM     24  C   UNL     1       6.599   4.689  17.399  0.00  0.00    +0.000 C 
BRANCH  24  25
ATOM     25  C   UNL     1       7.054   4.179  16.054  0.00  0.00    +0.000 C 
ATOM     26  C   UNL     1       6.129   3.864  14.899  0.00  0.00    +0.000 C 
ATOM     27  C   UNL     1       6.971   5.107  14.859  0.00  0.00    +0.000 C 
ENDBRANCH  24  25
ENDBRANCH   6  24
TORSDOF 6
ENDMDL
MODEL 6
REMARK VINA RESULT:      -7.3      2.478      3.318
REMARK  Name = 
REMARK  7 active torsions:
REMARK  status: ('A' for Active; 'I' for Inactive)
REMARK    1  A    between atoms: C_1  and  C_2
REMARK    2  A    between atoms: C_5  and  C_6
REMARK    3  A    between atoms: C_6  and  N_7
REMARK    4  A    between atoms: N_12  and  C_13
REMARK    5  A    between atoms: C_13  and  C_14
REMARK    6  A    between atoms: C_18  and  C_19
REMARK    7  A    between atoms: C_19  and  O_21
REMARK                            x       y       z     vdW  Elec       q    Type
REMARK                         _______ _______ _______ _____ _____    ______ ____
ROOT
ATOM      1  N   UNL     1       2.319   5.663  19.002  0.00  0.00    +0.000 NA
ATOM      2  C   UNL     1       2.324   4.821  17.794  0.00  0.00    +0.000 C 
ATOM      3  C   UNL     1       3.641   4.060  17.748  0.00  0.00    +0.000 C 
ATOM      4  C   UNL     1       4.730   4.787  16.981  0.00  0.00    +0.000 C 
ATOM      5  O   UNL     1       4.570   5.501  16.003  0.00  0.00    +0.000 OA
ATOM      6  N   UNL     1       5.941   4.437  17.561  0.00  0.00    +0.000 N 
ATOM      7  C   UNL     1       5.730   4.012  18.925  0.00  0.00    +0.000 C 
ATOM      8  C   UNL     1       4.191   4.009  19.163  0.00  0.00    +0.000 C 
ATOM      9  C   UNL     1       3.515   5.230  19.822  0.00  0.00    +0.000 C 
ENDROOT
BRANCH   8  10
ATOM     10  C   UNL     1       3.993   2.827  20.104  0.00  0.00    +0.000 C 
ATOM     11  O   UNL     1       4.884   2.020  20.327  0.00  0.00    +0.000 OA
BRANCH  10  12
ATOM     12  O   UNL     1       2.792   2.741  20.701  0.00  0.00    +0.000 OA
ATOM     13  H   UNL     1       2.019   2.578  20.140  0.00  0.00    +0.000 HD
ENDBRANCH  10  12
ENDBRANCH   8  10
BRANCH   1  14
ATOM     14  C   UNL     1       2.437   7.119  18.721  0.00  0.00    +0.000 C 
BRANCH  14  19
ATOM     15  C   UNL     1       0.423  11.996  21.195  0.00  0.00    +0.000 C 
ATOM     16  C   UNL     1       0.675  10.634  20.619  0.00  0.00    +0.000 A 
ATOM     17  C   UNL     1       0.855   9.481  21.401  0.00  0.00    +0.000 A 
ATOM     18  C   UNL     1       1.342   8.267  20.839  0.00  0.00    +0.000 A 
ATOM     19  C   UNL     1       1.663   8.199  19.477  0.00  0.00    +0.000 A 
ATOM     20  C   UNL     1       1.377   9.337  18.699  0.00  0.00    +0.000 A 
ATOM     21  F   UNL     1       1.664   9.319  17.387  0.00  0.00    +0.000 F 
ATOM     22  C   UNL     1       0.895  10.523  19.248  0.00  0.00    +0.000 A 
ATOM     23  F   UNL     1       0.714  11.588  18.456  0.00  0.00    +0.000 F 
ENDBRANCH  14  19
ENDBRANCH   1  14
BRANCH   6  24
ATOM     24  C   UNL     1       7.233   4.842  17.013  0.00  0.00    +0.000 C 
BRANCH  24  25
ATOM     25  C   UNL     1       7.507   6.325  17.034  0.00  0.00    +0.000 C 
ATOM     26  C   UNL     1       6.644   7.346  17.742  0.00  0.00    +0.000 C 
ATOM     27  C   UNL     1       7.972   6.961  18.328  0.00  0.00    +0.000 C 
ENDBRANCH  24  25
ENDBRANCH   6  24
TORSDOF 6
ENDMDL
MODEL 7
REMARK VINA RESULT:      -7.3      1.235      1.587
REMARK  Name = 
REMARK  7 active torsions:
REMARK  status: ('A' for Active; 'I' for Inactive)
REMARK    1  A    between atoms: C_1  and  C_2
REMARK    2  A    between atoms: C_5  and  C_6
REMARK    3  A    between atoms: C_6  and  N_7
REMARK    4  A    between atoms: N_12  and  C_13
REMARK    5  A    between atoms: C_13  and  C_14
REMARK    6  A    between atoms: C_18  and  C_19
REMARK    7  A    between atoms: C_19  and  O_21
REMARK                            x       y       z     vdW  Elec       q    Type
REMARK                         _______ _______ _______ _____ _____    ______ ____
ROOT
ATOM      1  N   UNL     1       3.835   5.898  19.377  0.00  0.00    +0.000 NA
ATOM      2  C   UNL     1       3.760   4.434  19.245  0.00  0.00    +0.000 C 
ATOM      3  C   UNL     1       4.787   3.994  18.212  0.00  0.00    +0.000 C 
ATOM      4  C   UNL     1       4.233   3.931  16.800  0.00  0.00    +0.000 C 
ATOM      5  O   UNL     1       3.094   3.623  16.485  0.00  0.00    +0.000 OA
ATOM      6  N   UNL     1       5.280   4.228  15.939  0.00  0.00    +0.000 N 
ATOM      7  C   UNL     1       6.289   4.994  16.632  0.00  0.00    +0.000 C 
ATOM      8  C   UNL     1       5.842   5.083  18.121  0.00  0.00    +0.000 C 
ATOM      9  C   UNL     1       5.074   6.326  18.618  0.00  0.00    +0.000 C 
ENDROOT
BRANCH   8  10
ATOM     10  C   UNL     1       7.164   5.043  18.877  0.00  0.00    +0.000 C 
ATOM     11  O   UNL     1       7.281   5.507  20.002  0.00  0.00    +0.000 OA
BRANCH  10  12
ATOM     12  O   UNL     1       8.187   4.439  18.248  0.00  0.00    +0.000 OA
ATOM     13  H   UNL     1       7.976   3.816  17.538  0.00  0.00    +0.000 HD
ENDBRANCH  10  12
ENDBRANCH   8  10
BRANCH   1  14
ATOM     14  C   UNL     1       2.661   6.616  18.812  0.00  0.00    +0.000 C 
BRANCH  14  19
ATOM     15  C   UNL     1       0.510  11.429  21.295  0.00  0.00    +0.000 C 
ATOM     16  C   UNL     1       0.801  10.074  20.720  0.00  0.00    +0.000 A 
ATOM     17  C   UNL     1       1.030   8.931  21.504  0.00  0.00    +0.000 A 
ATOM     18  C   UNL     1       1.552   7.733  20.939  0.00  0.00    +0.000 A 
ATOM     19  C   UNL     1       1.859   7.671  19.573  0.00  0.00    +0.000 A 
ATOM     20  C   UNL     1       1.525   8.796  18.796  0.00  0.00    +0.000 A 
ATOM     21  F   UNL     1       1.797   8.783  17.481  0.00  0.00    +0.000 F 
ATOM     22  C   UNL     1       1.009   9.967  19.347  0.00  0.00    +0.000 A 
ATOM     23  F   UNL     1       0.783  11.022  18.554  0.00  0.00    +0.000 F 
ENDBRANCH  14  19
ENDBRANCH   1  14
BRANCH   6  24
ATOM     24  C   UNL     1       5.163   4.141  14.485  0.00  0.00    +0.000 C 
BRANCH  24  25
ATOM     25  C   UNL     1       6.415   3.715  13.761  0.00  0.00    +0.000 C 
ATOM     26  C   UNL     1       6.513   3.506  12.266  0.00  0.00    +0.000 C 
ATOM     27  C   UNL     1       7.131   4.725  12.888  0.00  0.00    +0.000 C 
ENDBRANCH  24  25
ENDBRANCH   6  24
TORSDOF 6
ENDMDL
MODEL 8
REMARK VINA RESULT:      -7.3      3.870      7.469
REMARK  Name = 
REMARK  7 active torsions:
REMARK  status: ('A' for Active; 'I' for Inactive)
REMARK    1  A    between atoms: C_1  and  C_2
REMARK    2  A    between atoms: C_5  and  C_6
REMARK    3  A    between atoms: C_6  and  N_7
REMARK    4  A    between atoms: N_12  and  C_13
REMARK    5  A    between atoms: C_13  and  C_14
REMARK    6  A    between atoms: C_18  and  C_19
REMARK    7  A    between atoms: C_19  and  O_21
REMARK                            x       y       z     vdW  Elec       q    Type
REMARK                         _______ _______ _______ _____ _____    ______ ____
ROOT
ATOM      1  N   UNL     1       5.971   5.974  15.930  0.00  0.00    +0.000 NA
ATOM      2  C   UNL     1       5.056   6.818  16.714  0.00  0.00    +0.000 C 
ATOM      3  C   UNL     1       4.992   6.266  18.131  0.00  0.00    +0.000 C 
ATOM      4  C   UNL     1       3.881   5.252  18.334  0.00  0.00    +0.000 C 
ATOM      5  O   UNL     1       2.789   5.260  17.788  0.00  0.00    +0.000 OA
ATOM      6  N   UNL     1       4.318   4.357  19.299  0.00  0.00    +0.000 N 
ATOM      7  C   UNL     1       5.761   4.349  19.349  0.00  0.00    +0.000 C 
ATOM      8  C   UNL     1       6.252   5.449  18.362  0.00  0.00    +0.000 C 
ATOM      9  C   UNL     1       6.660   5.064  16.925  0.00  0.00    +0.000 C 
ENDROOT
BRANCH   8  10
ATOM     10  C   UNL     1       7.498   5.994  19.050  0.00  0.00    +0.000 C 
ATOM     11  O   UNL     1       8.167   6.892  18.561  0.00  0.00    +0.000 OA
BRANCH  10  12
ATOM     12  O   UNL     1       7.799   5.453  20.243  0.00  0.00    +0.000 OA
ATOM     13  H   UNL     1       8.294   4.620  20.250  0.00  0.00    +0.000 HD
ENDBRANCH  10  12
ENDBRANCH   8  10
BRANCH   1  14
ATOM     14  C   UNL     1       5.290   5.132  14.910  0.00  0.00    +0.000 C 
BRANCH  14  19
ATOM     15  C   UNL     1       7.631   1.911  10.655  0.00  0.00    +0.000 C 
ATOM     16  C   UNL     1       7.057   2.961  11.559  0.00  0.00    +0.000 A 
ATOM     17  C   UNL     1       7.827   3.957  12.181  0.00  0.00    +0.000 A 
ATOM     18  C   UNL     1       7.296   4.770  13.222  0.00  0.00    +0.000 A 
ATOM     19  C   UNL     1       5.978   4.584  13.659  0.00  0.00    +0.000 A 
ATOM     20  C   UNL     1       5.199   3.649  12.951  0.00  0.00    +0.000 A 
ATOM     21  F   UNL     1       3.928   3.439  13.330  0.00  0.00    +0.000 F 
ATOM     22  C   UNL     1       5.717   2.859  11.927  0.00  0.00    +0.000 A 
ATOM     23  F   UNL     1       4.935   1.940  11.347  0.00  0.00    +0.000 F 
ENDBRANCH  14  19
ENDBRANCH   1  14
BRANCH   6  24
ATOM     24  C   UNL     1       3.467   3.307  19.855  0.00  0.00    +0.000 C 
BRANCH  24  25
ATOM     25  C   UNL     1       2.427   3.773  20.841  0.00  0.00    +0.000 C 
ATOM     26  C   UNL     1       0.959   3.952  20.519  0.00  0.00    +0.000 C 
ATOM     27  C   UNL     1       1.401   2.777  21.342  0.00  0.00    +0.000 C 
ENDBRANCH  24  25
ENDBRANCH   6  24
TORSDOF 6
ENDMDL
MODEL 9
REMARK VINA RESULT:      -7.2      0.894      1.010
REMARK  Name = 
REMARK  7 active torsions:
REMARK  status: ('A' for Active; 'I' for Inactive)
REMARK    1  A    between atoms: C_1  and  C_2
REMARK    2  A    between atoms: C_5  and  C_6
REMARK    3  A    between atoms: C_6  and  N_7
REMARK    4  A    between atoms: N_12  and  C_13
REMARK    5  A    between atoms: C_13  and  C_14
REMARK    6  A    between atoms: C_18  and  C_19
REMARK    7  A    between atoms: C_19  and  O_21
REMARK                            x       y       z     vdW  Elec       q    Type
REMARK                         _______ _______ _______ _____ _____    ______ ____
ROOT
ATOM      1  N   UNL     1       3.982   6.237  19.415  0.00  0.00    +0.000 NA
ATOM      2  C   UNL     1       4.113   4.800  19.704  0.00  0.00    +0.000 C 
ATOM      3  C   UNL     1       5.225   4.237  18.831  0.00  0.00    +0.000 C 
ATOM      4  C   UNL     1       4.733   3.702  17.499  0.00  0.00    +0.000 C 
ATOM      5  O   UNL     1       3.659   3.159  17.292  0.00  0.00    +0.000 OA
ATOM      6  N   UNL     1       5.757   3.889  16.582  0.00  0.00    +0.000 N 
ATOM      7  C   UNL     1       6.627   4.954  17.022  0.00  0.00    +0.000 C 
ATOM      8  C   UNL     1       6.123   5.395  18.428  0.00  0.00    +0.000 C 
ATOM      9  C   UNL     1       5.175   6.605  18.558  0.00  0.00    +0.000 C 
ENDROOT
BRANCH   8  10
ATOM     10  C   UNL     1       7.412   5.757  19.155  0.00  0.00    +0.000 C 
ATOM     11  O   UNL     1       7.766   5.179  20.173  0.00  0.00    +0.000 OA
BRANCH  10  12
ATOM     12  O   UNL     1       8.155   6.727  18.594  0.00  0.00    +0.000 OA
ATOM     13  H   UNL     1       8.282   6.700  17.634  0.00  0.00    +0.000 HD
ENDBRANCH  10  12
ENDBRANCH   8  10
BRANCH   1  14
ATOM     14  C   UNL     1       2.739   6.593  18.678  0.00  0.00    +0.000 C 
BRANCH  14  19
ATOM     15  C   UNL     1      -0.936  11.040  19.500  0.00  0.00    +0.000 C 
ATOM     16  C   UNL     1       0.216  10.105  19.276  0.00  0.00    +0.000 A 
ATOM     17  C   UNL     1       0.881   9.971  18.047  0.00  0.00    +0.000 A 
ATOM     18  C   UNL     1       1.789   8.903  17.802  0.00  0.00    +0.000 A 
ATOM     19  C   UNL     1       2.036   7.945  18.795  0.00  0.00    +0.000 A 
ATOM     20  C   UNL     1       1.434   8.160  20.050  0.00  0.00    +0.000 A 
ATOM     21  F   UNL     1       1.643   7.271  21.034  0.00  0.00    +0.000 F 
ATOM     22  C   UNL     1       0.550   9.210  20.291  0.00  0.00    +0.000 A 
ATOM     23  F   UNL     1      -0.040   9.310  21.489  0.00  0.00    +0.000 F 
ENDBRANCH  14  19
ENDBRANCH   1  14
BRANCH   6  24
ATOM     24  C   UNL     1       5.702   3.381  15.212  0.00  0.00    +0.000 C 
BRANCH  24  25
ATOM     25  C   UNL     1       5.943   4.407  14.134  0.00  0.00    +0.000 C 
ATOM     26  C   UNL     1       7.307   4.790  13.603  0.00  0.00    +0.000 C 
ATOM     27  C   UNL     1       6.400   3.934  12.769  0.00  0.00    +0.000 C 
ENDBRANCH  24  25
ENDBRANCH   6  24
TORSDOF 6
ENDMDL
