MODEL 1
REMARK VINA RESULT:      -8.2      0.000      0.000
REMARK  Name = 
REMARK  6 active torsions:
REMARK  status: ('A' for Active; 'I' for Inactive)
REMARK    1  A    between atoms: C_1  and  C_2
REMARK    2  A    between atoms: C_2  and  C_4
REMARK    3  A    between atoms: C_5  and  C_6
REMARK    4  A    between atoms: C_7  and  O_8
REMARK    5  A    between atoms: O_8  and  C_9
REMARK    6  A    between atoms: C_12  and  C_13
REMARK                            x       y       z     vdW  Elec       q    Type
REMARK                         _______ _______ _______ _____ _____    ______ ____
ROOT
ATOM      1  C   UNL     1       5.825   4.524  15.417  0.00  0.00    +0.000 A 
ATOM      2  C   UNL     1       5.001   4.670  16.480  0.00  0.00    +0.000 A 
ATOM      3  N   UNL     1       5.183   5.618  17.468  0.00  0.00    +0.000 NA
ATOM      4  C   UNL     1       6.234   6.354  17.429  0.00  0.00    +0.000 A 
ATOM      5  N   UNL     1       7.172   6.263  16.461  0.00  0.00    +0.000 N 
ATOM      6  C   UNL     1       7.053   5.385  15.429  0.00  0.00    +0.000 A 
ATOM      7  O   UNL     1       7.935   5.300  14.579  0.00  0.00    +0.000 OA
ATOM      8  H   UNL     1       8.003   6.836  16.477  0.00  0.00    +0.000 HD
ENDROOT
BRANCH   1  10
ATOM      9  C   UNL     1       5.238   4.077  13.018  0.00  0.00    +0.000 C 
ATOM     10  C   UNL     1       5.613   3.685  14.242  0.00  0.00    +0.000 C 
BRANCH   9  12
ATOM     11  C   UNL     1       3.915   3.139  11.058  0.00  0.00    +0.000 C 
ATOM     12  C   UNL     1       5.152   3.081  11.911  0.00  0.00    +0.000 C 
ATOM     13  O   UNL     1       6.042   2.261  11.706  0.00  0.00    +0.000 OA
ENDBRANCH   9  12
ENDBRANCH   1  10
BRANCH   2  14
ATOM     14  O   UNL     1       3.878   3.826  16.598  0.00  0.00    +0.000 OA
BRANCH  14  15
ATOM     15  C   UNL     1       3.320   3.682  17.852  0.00  0.00    +0.000 A 
ATOM     16  C   UNL     1       3.997   2.895  18.782  0.00  0.00    +0.000 A 
ATOM     17  C   UNL     1       3.403   2.614  20.018  0.00  0.00    +0.000 A 
ATOM     18  C   UNL     1       2.134   3.123  20.327  0.00  0.00    +0.000 A 
ATOM     19  C   UNL     1       1.413   2.726  21.581  0.00  0.00    +0.000 C 
ATOM     20  C   UNL     1       1.512   3.995  19.429  0.00  0.00    +0.000 A 
ATOM     21  C   UNL     1       2.115   4.296  18.210  0.00  0.00    +0.000 A 
ENDBRANCH  14  15
ENDBRANCH   2  14
TORSDOF 4
ENDMDL
MODEL 2
REMARK VINA RESULT:      -8.1      2.480      4.424
REMARK  Name = 
REMARK  6 active torsions:
REMARK  status: ('A' for Active; 'I' for Inactive)
REMARK    1  A    between atoms: C_1  and  C_2
REMARK    2  A    between atoms: C_2  and  C_4
REMARK    3  A    between atoms: C_5  and  C_6
REMARK    4  A    between atoms: C_7  and  O_8
REMARK    5  A    between atoms: O_8  and  C_9
REMARK    6  A    between atoms: C_12  and  C_13
REMARK                            x       y       z     vdW  Elec       q    Type
REMARK                         _______ _______ _______ _____ _____    ______ ____
ROOT
ATOM      1  C   UNL     1       5.023   5.799  17.016  0.00  0.00    +0.000 A 
ATOM      2  C   UNL     1       4.842   4.586  16.445  0.00  0.00    +0.000 A 
ATOM      3  N   UNL     1       5.851   3.868  15.832  0.00  0.00    +0.000 NA
ATOM      4  C   UNL     1       7.010   4.407  15.721  0.00  0.00    +0.000 A 
ATOM      5  N   UNL     1       7.306   5.639  16.185  0.00  0.00    +0.000 N 
ATOM      6  C   UNL     1       6.385   6.400  16.835  0.00  0.00    +0.000 A 
ATOM      7  O   UNL     1       6.671   7.531  17.220  0.00  0.00    +0.000 OA
ATOM      8  H   UNL     1       8.221   6.047  16.052  0.00  0.00    +0.000 HD
ENDROOT
BRANCH   1  10
ATOM      9  C   UNL     1       3.254   7.526  17.451  0.00  0.00    +0.000 C 
ATOM     10  C   UNL     1       4.073   6.540  17.838  0.00  0.00    +0.000 C 
BRANCH   9  12
ATOM     11  C   UNL     1       1.464   9.272  17.923  0.00  0.00    +0.000 C 
ATOM     12  C   UNL     1       2.284   8.113  18.420  0.00  0.00    +0.000 C 
ATOM     13  O   UNL     1       2.160   7.674  19.559  0.00  0.00    +0.000 OA
ENDBRANCH   9  12
ENDBRANCH   1  10
BRANCH   2  14
ATOM     14  O   UNL     1       3.562   3.997  16.480  0.00  0.00    +0.000 OA
BRANCH  14  15
ATOM     15  C   UNL     1       3.093   3.564  17.704  0.00  0.00    +0.000 A 
ATOM     16  C   UNL     1       1.775   3.866  18.042  0.00  0.00    +0.000 A 
ATOM     17  C   UNL     1       1.300   3.564  19.324  0.00  0.00    +0.000 A 
ATOM     18  C   UNL     1       2.141   2.957  20.267  0.00  0.00    +0.000 A 
ATOM     19  C   UNL     1       1.707   2.751  21.688  0.00  0.00    +0.000 C 
ATOM     20  C   UNL     1       3.427   2.567  19.882  0.00  0.00    +0.000 A 
ATOM     21  C   UNL     1       3.890   2.843  18.598  0.00  0.00    +0.000 A 
ENDBRANCH  14  15
ENDBRANCH   2  14
TORSDOF 4
ENDMDL
MODEL 3
REMARK VINA RESULT:      -8.1      0.473      1.171
REMARK  Name = 
REMARK  6 active torsions:
REMARK  status: ('A' for Active; 'I' for Inactive)
REMARK    1  A    between atoms: C_1  and  C_2
REMARK    2  A    between atoms: C_2  and  C_4
REMARK    3  A    between atoms: C_5  and  C_6
REMARK    4  A    between atoms: C_7  and  O_8
REMARK    5  A    between atoms: O_8  and  C_9
REMARK    6  A    between atoms: C_12  and  C_13
REMARK                            x       y       z     vdW  Elec       q    Type
REMARK                         _______ _______ _______ _____ _____    ______ ____
ROOT
ATOM      1  C   UNL     1       5.748   4.667  15.183  0.00  0.00    +0.000 A 
ATOM      2  C   UNL     1       5.026   4.627  16.326  0.00  0.00    +0.000 A 
ATOM      3  N   UNL     1       5.354   5.336  17.466  0.00  0.00    +0.000 NA
ATOM      4  C   UNL     1       6.447   6.009  17.479  0.00  0.00    +0.000 A 
ATOM      5  N   UNL     1       7.293   6.077  16.429  0.00  0.00    +0.000 N 
ATOM      6  C   UNL     1       7.029   5.443  15.255  0.00  0.00    +0.000 A 
ATOM      7  O   UNL     1       7.831   5.496  14.325  0.00  0.00    +0.000 OA
ATOM      8  H   UNL     1       8.160   6.591  16.484  0.00  0.00    +0.000 HD
ENDROOT
BRANCH   1  10
ATOM      9  C   UNL     1       6.083   3.239  13.146  0.00  0.00    +0.000 C 
ATOM     10  C   UNL     1       5.383   4.107  13.886  0.00  0.00    +0.000 C 
BRANCH   9  12
ATOM     11  C   UNL     1       4.253   3.377  11.383  0.00  0.00    +0.000 C 
ATOM     12  C   UNL     1       5.508   2.709  11.877  0.00  0.00    +0.000 C 
ATOM     13  O   UNL     1       6.028   1.780  11.266  0.00  0.00    +0.000 OA
ENDBRANCH   9  12
ENDBRANCH   1  10
BRANCH   2  14
ATOM     14  O   UNL     1       3.861   3.835  16.374  0.00  0.00    +0.000 OA
BRANCH  14  15
ATOM     15  C   UNL     1       3.317   3.580  17.617  0.00  0.00    +0.000 A 
ATOM     16  C   UNL     1       2.214   4.334  18.013  0.00  0.00    +0.000 A 
ATOM     17  C   UNL     1       1.713   4.201  19.314  0.00  0.00    +0.000 A 
ATOM     18  C   UNL     1       2.312   3.313  20.217  0.00  0.00    +0.000 A 
ATOM     19  C   UNL     1       1.889   3.252  21.655  0.00  0.00    +0.000 C 
ATOM     20  C   UNL     1       3.350   2.488  19.775  0.00  0.00    +0.000 A 
ATOM     21  C   UNL     1       3.831   2.601  18.473  0.00  0.00    +0.000 A 
ENDBRANCH  14  15
ENDBRANCH   2  14
TORSDOF 4
ENDMDL
MODEL 4
REMARK VINA RESULT:      -7.8      2.518      4.321
REMARK  Name = 
REMARK  6 active torsions:
REMARK  status: ('A' for Active; 'I' for Inactive)
REMARK    1  A    between atoms: C_1  and  C_2
REMARK    2  A    between atoms: C_2  and  C_4
REMARK    3  A    between atoms: C_5  and  C_6
REMARK    4  A    between atoms: C_7  and  O_8
REMARK    5  A    between atoms: O_8  and  C_9
REMARK    6  A    between atoms: C_12  and  C_13
REMARK                            x       y       z     vdW  Elec       q    Type
REMARK                         _______ _______ _______ _____ _____    ______ ____
ROOT
ATOM      1  C   UNL     1       5.080   5.927  17.009  0.00  0.00    +0.000 A 
ATOM      2  C   UNL     1       4.858   4.674  16.551  0.00  0.00    +0.000 A 
ATOM      3  N   UNL     1       5.838   3.877  15.989  0.00  0.00    +0.000 NA
ATOM      4  C   UNL     1       7.008   4.373  15.813  0.00  0.00    +0.000 A 
ATOM      5  N   UNL     1       7.344   5.633  16.162  0.00  0.00    +0.000 N 
ATOM      6  C   UNL     1       6.454   6.473  16.756  0.00  0.00    +0.000 A 
ATOM      7  O   UNL     1       6.775   7.625  17.035  0.00  0.00    +0.000 OA
ATOM      8  H   UNL     1       8.266   6.002  15.981  0.00  0.00    +0.000 HD
ENDROOT
BRANCH   1  10
ATOM      9  C   UNL     1       3.208   7.572  17.303  0.00  0.00    +0.000 C 
ATOM     10  C   UNL     1       4.163   6.762  17.777  0.00  0.00    +0.000 C 
BRANCH   9  12
ATOM     11  C   UNL     1       2.099   7.646  19.593  0.00  0.00    +0.000 C 
ATOM     12  C   UNL     1       2.305   8.290  18.249  0.00  0.00    +0.000 C 
ATOM     13  O   UNL     1       1.761   9.348  17.950  0.00  0.00    +0.000 OA
ENDBRANCH   9  12
ENDBRANCH   1  10
BRANCH   2  14
ATOM     14  O   UNL     1       3.564   4.124  16.656  0.00  0.00    +0.000 OA
BRANCH  14  15
ATOM     15  C   UNL     1       3.081   3.874  17.925  0.00  0.00    +0.000 A 
ATOM     16  C   UNL     1       3.933   3.257  18.838  0.00  0.00    +0.000 A 
ATOM     17  C   UNL     1       3.444   2.866  20.090  0.00  0.00    +0.000 A 
ATOM     18  C   UNL     1       2.104   3.094  20.431  0.00  0.00    +0.000 A 
ATOM     19  C   UNL     1       1.516   2.561  21.704  0.00  0.00    +0.000 C 
ATOM     20  C   UNL     1       1.288   3.806  19.547  0.00  0.00    +0.000 A 
ATOM     21  C   UNL     1       1.782   4.219  18.312  0.00  0.00    +0.000 A 
ENDBRANCH  14  15
ENDBRANCH   2  14
TORSDOF 4
ENDMDL
MODEL 5
REMARK VINA RESULT:      -7.8      3.623      5.703
REMARK  Name = 
REMARK  6 active torsions:
REMARK  status: ('A' for Active; 'I' for Inactive)
REMARK    1  A    between atoms: C_1  and  C_2
REMARK    2  A    between atoms: C_2  and  C_4
REMARK    3  A    between atoms: C_5  and  C_6
REMARK    4  A    between atoms: C_7  and  O_8
REMARK    5  A    between atoms: O_8  and  C_9
REMARK    6  A    between atoms: C_12  and  C_13
REMARK                            x       y       z     vdW  Elec       q    Type
REMARK                         _______ _______ _______ _____ _____    ______ ____
ROOT
ATOM      1  C   UNL     1       2.856   4.217  18.446  0.00  0.00    +0.000 A 
ATOM      2  C   UNL     1       2.483   4.964  19.510  0.00  0.00    +0.000 A 
ATOM      3  N   UNL     1       1.533   4.567  20.432  0.00  0.00    +0.000 NA
ATOM      4  C   UNL     1       0.905   3.466  20.233  0.00  0.00    +0.000 A 
ATOM      5  N   UNL     1       1.132   2.659  19.174  0.00  0.00    +0.000 N 
ATOM      6  C   UNL     1       2.076   2.953  18.240  0.00  0.00    +0.000 A 
ATOM      7  O   UNL     1       2.242   2.218  17.269  0.00  0.00    +0.000 OA
ATOM      8  H   UNL     1       0.598   1.815  19.031  0.00  0.00    +0.000 HD
ENDROOT
BRANCH   1  10
ATOM      9  C   UNL     1       5.271   4.253  17.763  0.00  0.00    +0.000 C 
ATOM     10  C   UNL     1       3.969   4.467  17.537  0.00  0.00    +0.000 C 
BRANCH   9  12
ATOM     11  C   UNL     1       5.744   4.406  15.267  0.00  0.00    +0.000 C 
ATOM     12  C   UNL     1       6.264   4.492  16.676  0.00  0.00    +0.000 C 
ATOM     13  O   UNL     1       7.440   4.747  16.916  0.00  0.00    +0.000 OA
ENDBRANCH   9  12
ENDBRANCH   1  10
BRANCH   2  14
ATOM     14  O   UNL     1       3.095   6.217  19.717  0.00  0.00    +0.000 OA
BRANCH  14  15
ATOM     15  C   UNL     1       2.335   7.344  19.477  0.00  0.00    +0.000 A 
ATOM     16  C   UNL     1       2.307   7.848  18.178  0.00  0.00    +0.000 A 
ATOM     17  C   UNL     1       1.658   9.061  17.917  0.00  0.00    +0.000 A 
ATOM     18  C   UNL     1       1.036   9.769  18.954  0.00  0.00    +0.000 A 
ATOM     19  C   UNL     1       0.458  11.136  18.735  0.00  0.00    +0.000 C 
ATOM     20  C   UNL     1       0.983   9.202  20.231  0.00  0.00    +0.000 A 
ATOM     21  C   UNL     1       1.604   7.982  20.484  0.00  0.00    +0.000 A 
ENDBRANCH  14  15
ENDBRANCH   2  14
TORSDOF 4
ENDMDL
MODEL 6
REMARK VINA RESULT:      -7.7      3.783      5.795
REMARK  Name = 
REMARK  6 active torsions:
REMARK  status: ('A' for Active; 'I' for Inactive)
REMARK    1  A    between atoms: C_1  and  C_2
REMARK    2  A    between atoms: C_2  and  C_4
REMARK    3  A    between atoms: C_5  and  C_6
REMARK    4  A    between atoms: C_7  and  O_8
REMARK    5  A    between atoms: O_8  and  C_9
REMARK    6  A    between atoms: C_12  and  C_13
REMARK                            x       y       z     vdW  Elec       q    Type
REMARK                         _______ _______ _______ _____ _____    ______ ____
ROOT
ATOM      1  C   UNL     1       3.621   3.680  18.963  0.00  0.00    +0.000 A 
ATOM      2  C   UNL     1       2.683   4.359  19.662  0.00  0.00    +0.000 A 
ATOM      3  N   UNL     1       1.385   3.917  19.833  0.00  0.00    +0.000 NA
ATOM      4  C   UNL     1       1.015   2.846  19.232  0.00  0.00    +0.000 A 
ATOM      5  N   UNL     1       1.833   2.111  18.448  0.00  0.00    +0.000 N 
ATOM      6  C   UNL     1       3.136   2.450  18.256  0.00  0.00    +0.000 A 
ATOM      7  O   UNL     1       3.851   1.782  17.513  0.00  0.00    +0.000 OA
ATOM      8  H   UNL     1       1.501   1.289  17.963  0.00  0.00    +0.000 HD
ENDROOT
BRANCH   1  10
ATOM      9  C   UNL     1       5.716   4.513  17.860  0.00  0.00    +0.000 C 
ATOM     10  C   UNL     1       5.049   3.971  18.886  0.00  0.00    +0.000 C 
BRANCH   9  12
ATOM     11  C   UNL     1       7.561   5.708  19.143  0.00  0.00    +0.000 C 
ATOM     12  C   UNL     1       7.170   4.817  17.995  0.00  0.00    +0.000 C 
ATOM     13  O   UNL     1       8.003   4.366  17.215  0.00  0.00    +0.000 OA
ENDBRANCH   9  12
ENDBRANCH   1  10
BRANCH   2  14
ATOM     14  O   UNL     1       3.032   5.580  20.272  0.00  0.00    +0.000 OA
BRANCH  14  15
ATOM     15  C   UNL     1       2.434   6.727  19.787  0.00  0.00    +0.000 A 
ATOM     16  C   UNL     1       2.650   7.060  18.451  0.00  0.00    +0.000 A 
ATOM     17  C   UNL     1       2.174   8.279  17.954  0.00  0.00    +0.000 A 
ATOM     18  C   UNL     1       1.480   9.164  18.791  0.00  0.00    +0.000 A 
ATOM     19  C   UNL     1       1.083  10.534  18.327  0.00  0.00    +0.000 C 
ATOM     20  C   UNL     1       1.181   8.772  20.099  0.00  0.00    +0.000 A 
ATOM     21  C   UNL     1       1.631   7.547  20.585  0.00  0.00    +0.000 A 
ENDBRANCH  14  15
ENDBRANCH   2  14
TORSDOF 4
ENDMDL
MODEL 7
REMARK VINA RESULT:      -7.6      4.146      5.888
REMARK  Name = 
REMARK  6 active torsions:
REMARK  status: ('A' for Active; 'I' for Inactive)
REMARK    1  A    between atoms: C_1  and  C_2
REMARK    2  A    between atoms: C_2  and  C_4
REMARK    3  A    between atoms: C_5  and  C_6
REMARK    4  A    between atoms: C_7  and  O_8
REMARK    5  A    between atoms: O_8  and  C_9
REMARK    6  A    between atoms: C_12  and  C_13
REMARK                            x       y       z     vdW  Elec       q    Type
REMARK                         _______ _______ _______ _____ _____    ______ ____
ROOT
ATOM      1  C   UNL     1       4.050   4.146  19.012  0.00  0.00    +0.000 A 
ATOM      2  C   UNL     1       2.984   4.737  18.425  0.00  0.00    +0.000 A 
ATOM      3  N   UNL     1       1.725   4.170  18.373  0.00  0.00    +0.000 NA
ATOM      4  C   UNL     1       1.565   2.983  18.833  0.00  0.00    +0.000 A 
ATOM      5  N   UNL     1       2.561   2.256  19.382  0.00  0.00    +0.000 N 
ATOM      6  C   UNL     1       3.822   2.750  19.509  0.00  0.00    +0.000 A 
ATOM      7  O   UNL     1       4.718   2.057  19.984  0.00  0.00    +0.000 OA
ATOM      8  H   UNL     1       2.408   1.312  19.706  0.00  0.00    +0.000 HD
ENDROOT
BRANCH   1  10
ATOM      9  C   UNL     1       6.259   5.155  18.380  0.00  0.00    +0.000 C 
ATOM     10  C   UNL     1       5.356   4.741  19.277  0.00  0.00    +0.000 C 
BRANCH   9  12
ATOM     11  C   UNL     1       7.889   7.094  18.131  0.00  0.00    +0.000 C 
ATOM     12  C   UNL     1       7.513   5.821  18.839  0.00  0.00    +0.000 C 
ATOM     13  O   UNL     1       8.199   5.358  19.744  0.00  0.00    +0.000 OA
ENDBRANCH   9  12
ENDBRANCH   1  10
BRANCH   2  14
ATOM     14  O   UNL     1       3.141   6.009  17.840  0.00  0.00    +0.000 OA
BRANCH  14  15
ATOM     15  C   UNL     1       2.544   7.080  18.475  0.00  0.00    +0.000 A 
ATOM     16  C   UNL     1       2.321   6.982  19.848  0.00  0.00    +0.000 A 
ATOM     17  C   UNL     1       1.601   7.986  20.507  0.00  0.00    +0.000 A 
ATOM     18  C   UNL     1       1.107   9.088  19.796  0.00  0.00    +0.000 A 
ATOM     19  C   UNL     1       0.214  10.104  20.445  0.00  0.00    +0.000 C 
ATOM     20  C   UNL     1       1.426   9.225  18.443  0.00  0.00    +0.000 A 
ATOM     21  C   UNL     1       2.166   8.240  17.792  0.00  0.00    +0.000 A 
ENDBRANCH  14  15
ENDBRANCH   2  14
TORSDOF 4
ENDMDL
MODEL 8
REMARK VINA RESULT:      -7.6      3.722      5.722
REMARK  Name = 
REMARK  6 active torsions:
REMARK  status: ('A' for Active; 'I' for Inactive)
REMARK    1  A    between atoms: C_1  and  C_2
REMARK    2  A    between atoms: C_2  and  C_4
REMARK    3  A    between atoms: C_5  and  C_6
REMARK    4  A    between atoms: C_7  and  O_8
REMARK    5  A    between atoms: O_8  and  C_9
REMARK    6  A    between atoms: C_12  and  C_13
REMARK                            x       y       z     vdW  Elec       q    Type
REMARK                         _______ _______ _______ _____ _____    ______ ____
ROOT
ATOM      1  C   UNL     1       2.712   4.735  18.307  0.00  0.00    +0.000 A 
ATOM      2  C   UNL     1       2.404   5.367  19.463  0.00  0.00    +0.000 A 
ATOM      3  N   UNL     1       1.559   4.841  20.423  0.00  0.00    +0.000 NA
ATOM      4  C   UNL     1       0.966   3.730  20.178  0.00  0.00    +0.000 A 
ATOM      5  N   UNL     1       1.132   3.032  19.035  0.00  0.00    +0.000 N 
ATOM      6  C   UNL     1       1.974   3.455  18.054  0.00  0.00    +0.000 A 
ATOM      7  O   UNL     1       2.084   2.818  17.009  0.00  0.00    +0.000 OA
ATOM      8  H   UNL     1       0.625   2.176  18.861  0.00  0.00    +0.000 HD
ENDROOT
BRANCH   1  10
ATOM      9  C   UNL     1       5.018   4.772  17.317  0.00  0.00    +0.000 C 
ATOM     10  C   UNL     1       3.726   5.122  17.333  0.00  0.00    +0.000 C 
BRANCH   9  12
ATOM     11  C   UNL     1       5.704   4.465  14.885  0.00  0.00    +0.000 C 
ATOM     12  C   UNL     1       5.892   5.198  16.186  0.00  0.00    +0.000 C 
ATOM     13  O   UNL     1       6.717   6.098  16.307  0.00  0.00    +0.000 OA
ENDBRANCH   9  12
ENDBRANCH   1  10
BRANCH   2  14
ATOM     14  O   UNL     1       2.976   6.626  19.731  0.00  0.00    +0.000 OA
BRANCH  14  15
ATOM     15  C   UNL     1       2.200   7.742  19.486  0.00  0.00    +0.000 A 
ATOM     16  C   UNL     1       1.482   8.283  20.551  0.00  0.00    +0.000 A 
ATOM     17  C   UNL     1       0.582   9.330  20.321  0.00  0.00    +0.000 A 
ATOM     18  C   UNL     1       0.403   9.840  19.028  0.00  0.00    +0.000 A 
ATOM     19  C   UNL     1      -0.654  10.862  18.726  0.00  0.00    +0.000 C 
ATOM     20  C   UNL     1       1.204   9.359  17.989  0.00  0.00    +0.000 A 
ATOM     21  C   UNL     1       2.119   8.336  18.223  0.00  0.00    +0.000 A 
ENDBRANCH  14  15
ENDBRANCH   2  14
TORSDOF 4
ENDMDL
MODEL 9
REMARK VINA RESULT:      -7.6      4.217      6.018
REMARK  Name = 
REMARK  6 active torsions:
REMARK  status: ('A' for Active; 'I' for Inactive)
REMARK    1  A    between atoms: C_1  and  C_2
REMARK    2  A    between atoms: C_2  and  C_4
REMARK    3  A    between atoms: C_5  and  C_6
REMARK    4  A    between atoms: C_7  and  O_8
REMARK    5  A    between atoms: O_8  and  C_9
REMARK    6  A    between atoms: C_12  and  C_13
REMARK                            x       y       z     vdW  Elec       q    Type
REMARK                         _______ _______ _______ _____ _____    ______ ____
ROOT
ATOM      1  C   UNL     1       4.062   4.340  18.941  0.00  0.00    +0.000 A 
ATOM      2  C   UNL     1       2.984   4.936  18.382  0.00  0.00    +0.000 A 
ATOM      3  N   UNL     1       1.744   4.334  18.274  0.00  0.00    +0.000 NA
ATOM      4  C   UNL     1       1.618   3.114  18.649  0.00  0.00    +0.000 A 
ATOM      5  N   UNL     1       2.631   2.382  19.161  0.00  0.00    +0.000 N 
ATOM      6  C   UNL     1       3.873   2.906  19.338  0.00  0.00    +0.000 A 
ATOM      7  O   UNL     1       4.786   2.210  19.776  0.00  0.00    +0.000 OA
ATOM      8  H   UNL     1       2.505   1.414  19.417  0.00  0.00    +0.000 HD
ENDROOT
BRANCH   1  10
ATOM      9  C   UNL     1       6.442   5.000  18.497  0.00  0.00    +0.000 C 
ATOM     10  C   UNL     1       5.345   4.956  19.262  0.00  0.00    +0.000 C 
BRANCH   9  12
ATOM     11  C   UNL     1       7.917   7.062  18.271  0.00  0.00    +0.000 C 
ATOM     12  C   UNL     1       7.643   5.753  18.961  0.00  0.00    +0.000 C 
ATOM     13  O   UNL     1       8.368   5.330  19.857  0.00  0.00    +0.000 OA
ENDBRANCH   9  12
ENDBRANCH   1  10
BRANCH   2  14
ATOM     14  O   UNL     1       3.106   6.250  17.887  0.00  0.00    +0.000 OA
BRANCH  14  15
ATOM     15  C   UNL     1       2.393   7.241  18.531  0.00  0.00    +0.000 A 
ATOM     16  C   UNL     1       1.954   8.326  17.774  0.00  0.00    +0.000 A 
ATOM     17  C   UNL     1       1.344   9.414  18.408  0.00  0.00    +0.000 A 
ATOM     18  C   UNL     1       1.169   9.417  19.799  0.00  0.00    +0.000 A 
ATOM     19  C   UNL     1       0.650  10.625  20.522  0.00  0.00    +0.000 C 
ATOM     20  C   UNL     1       1.519   8.281  20.533  0.00  0.00    +0.000 A 
ATOM     21  C   UNL     1       2.101   7.186  19.897  0.00  0.00    +0.000 A 
ENDBRANCH  14  15
ENDBRANCH   2  14
TORSDOF 4
ENDMDL
