MODEL 1
REMARK VINA RESULT:      -6.6      0.000      0.000
REMARK  Name = 
REMARK  6 active torsions:
REMARK  status: ('A' for Active; 'I' for Inactive)
REMARK    1  A    between atoms: C_1  and  C_2
REMARK    2  A    between atoms: N_4  and  C_5
REMARK    3  A    between atoms: C_6  and  C_7
REMARK    4  A    between atoms: C_8  and  C_9
REMARK    5  A    between atoms: C_9  and  S_10
REMARK    6  A    between atoms: S_10  and  C_13
REMARK                            x       y       z     vdW  Elec       q    Type
REMARK                         _______ _______ _______ _____ _____    ______ ____
ROOT
ATOM      1  S   UNL     1       5.392   4.297  17.557  0.00  0.00    +0.000 S 
ATOM      2  O   UNL     1       5.598   3.604  18.817  0.00  0.00    +0.000 OA
ATOM      3  O   UNL     1       5.747   3.676  16.295  0.00  0.00    +0.000 OA
ENDROOT
BRANCH   1   4
ATOM      4  C   UNL     1       6.363   5.796  17.688  0.00  0.00    +0.000 A 
ATOM      5  C   UNL     1       5.917   6.961  17.051  0.00  0.00    +0.000 A 
ATOM      6  C   UNL     1       6.634   8.150  17.204  0.00  0.00    +0.000 A 
ATOM      7  C   UNL     1       7.776   8.174  18.005  0.00  0.00    +0.000 A 
ATOM      8 BR   UNL     1       8.727   9.794  18.233  0.00  0.00    +0.000 Br
ATOM      9  C   UNL     1       8.213   7.019  18.653  0.00  0.00    +0.000 A 
ATOM     10  C   UNL     1       7.506   5.823  18.496  0.00  0.00    +0.000 A 
ENDBRANCH   1   4
BRANCH   1  11
ATOM     11  C   UNL     1       3.697   4.879  17.450  0.00  0.00    +0.000 C 
BRANCH  11  19
ATOM     12  C   UNL     1       2.544   7.092  19.592  0.00  0.00    +0.000 C 
ATOM     13  C   UNL     1       2.421   5.613  19.625  0.00  0.00    +0.000 A 
ATOM     14  N   UNL     1       1.788   5.038  20.653  0.00  0.00    +0.000 NA
ATOM     15  N   UNL     1       1.823   3.726  20.384  0.00  0.00    +0.000 N 
ATOM     16  C   UNL     1       1.212   2.807  21.316  0.00  0.00    +0.000 C 
ATOM     17  C   UNL     1       2.478   3.428  19.216  0.00  0.00    +0.000 A 
ATOM     18  C   UNL     1       2.635   2.048  18.689  0.00  0.00    +0.000 C 
ATOM     19  C   UNL     1       2.899   4.647  18.696  0.00  0.00    +0.000 A 
ENDBRANCH  11  19
ENDBRANCH   1  11
TORSDOF 3
ENDMDL
MODEL 2
REMARK VINA RESULT:      -6.6      2.648      3.618
REMARK  Name = 
REMARK  6 active torsions:
REMARK  status: ('A' for Active; 'I' for Inactive)
REMARK    1  A    between atoms: C_1  and  C_2
REMARK    2  A    between atoms: N_4  and  C_5
REMARK    3  A    between atoms: C_6  and  C_7
REMARK    4  A    between atoms: C_8  and  C_9
REMARK    5  A    between atoms: C_9  and  S_10
REMARK    6  A    between atoms: S_10  and  C_13
REMARK                            x       y       z     vdW  Elec       q    Type
REMARK                         _______ _______ _______ _____ _____    ______ ____
ROOT
ATOM      1  S   UNL     1       4.323   3.663  18.150  0.00  0.00    +0.000 S 
ATOM      2  O   UNL     1       5.000   4.249  19.292  0.00  0.00    +0.000 OA
ATOM      3  O   UNL     1       4.054   2.238  18.087  0.00  0.00    +0.000 OA
ENDROOT
BRANCH   1   4
ATOM      4  C   UNL     1       5.361   4.055  16.743  0.00  0.00    +0.000 A 
ATOM      5  C   UNL     1       4.826   3.979  15.452  0.00  0.00    +0.000 A 
ATOM      6  C   UNL     1       5.609   4.348  14.356  0.00  0.00    +0.000 A 
ATOM      7  C   UNL     1       6.911   4.807  14.556  0.00  0.00    +0.000 A 
ATOM      8 BR   UNL     1       7.958   5.333  13.071  0.00  0.00    +0.000 Br
ATOM      9  C   UNL     1       7.442   4.898  15.843  0.00  0.00    +0.000 A 
ATOM     10  C   UNL     1       6.666   4.521  16.943  0.00  0.00    +0.000 A 
ENDBRANCH   1   4
BRANCH   1  11
ATOM     11  C   UNL     1       2.794   4.546  17.826  0.00  0.00    +0.000 C 
BRANCH  11  19
ATOM     12  C   UNL     1       1.556   3.643  20.737  0.00  0.00    +0.000 C 
ATOM     13  C   UNL     1       1.796   5.011  20.212  0.00  0.00    +0.000 A 
ATOM     14  N   UNL     1       1.460   6.062  20.965  0.00  0.00    +0.000 NA
ATOM     15  N   UNL     1       1.815   7.130  20.237  0.00  0.00    +0.000 N 
ATOM     16  C   UNL     1       1.584   8.450  20.779  0.00  0.00    +0.000 C 
ATOM     17  C   UNL     1       2.356   6.803  19.021  0.00  0.00    +0.000 A 
ATOM     18  C   UNL     1       2.845   7.806  18.041  0.00  0.00    +0.000 C 
ATOM     19  C   UNL     1       2.346   5.413  18.963  0.00  0.00    +0.000 A 
ENDBRANCH  11  19
ENDBRANCH   1  11
TORSDOF 3
ENDMDL
MODEL 3
REMARK VINA RESULT:      -6.5      2.618      3.779
REMARK  Name = 
REMARK  6 active torsions:
REMARK  status: ('A' for Active; 'I' for Inactive)
REMARK    1  A    between atoms: C_1  and  C_2
REMARK    2  A    between atoms: N_4  and  C_5
REMARK    3  A    between atoms: C_6  and  C_7
REMARK    4  A    between atoms: C_8  and  C_9
REMARK    5  A    between atoms: C_9  and  S_10
REMARK    6  A    between atoms: S_10  and  C_13
REMARK                            x       y       z     vdW  Elec       q    Type
REMARK                         _______ _______ _______ _____ _____    ______ ____
ROOT
ATOM      1  S   UNL     1       4.379   3.930  18.208  0.00  0.00    +0.000 S 
ATOM      2  O   UNL     1       5.061   4.593  19.305  0.00  0.00    +0.000 OA
ATOM      3  O   UNL     1       4.201   2.489  18.198  0.00  0.00    +0.000 OA
ENDROOT
BRANCH   1   4
ATOM      4  C   UNL     1       5.337   4.341  16.751  0.00  0.00    +0.000 A 
ATOM      5  C   UNL     1       6.641   4.827  16.901  0.00  0.00    +0.000 A 
ATOM      6  C   UNL     1       7.417   5.086  15.768  0.00  0.00    +0.000 A 
ATOM      7  C   UNL     1       6.895   4.841  14.498  0.00  0.00    +0.000 A 
ATOM      8 BR   UNL     1       7.960   5.165  12.968  0.00  0.00    +0.000 Br
ATOM      9  C   UNL     1       5.600   4.342  14.347  0.00  0.00    +0.000 A 
ATOM     10  C   UNL     1       4.816   4.090  15.476  0.00  0.00    +0.000 A 
ENDBRANCH   1   4
BRANCH   1  11
ATOM     11  C   UNL     1       2.786   4.704  17.920  0.00  0.00    +0.000 C 
BRANCH  11  19
ATOM     12  C   UNL     1       1.647   3.848  20.885  0.00  0.00    +0.000 C 
ATOM     13  C   UNL     1       1.826   5.207  20.314  0.00  0.00    +0.000 A 
ATOM     14  N   UNL     1       1.471   6.268  21.043  0.00  0.00    +0.000 NA
ATOM     15  N   UNL     1       1.773   7.325  20.276  0.00  0.00    +0.000 N 
ATOM     16  C   UNL     1       1.508   8.652  20.784  0.00  0.00    +0.000 C 
ATOM     17  C   UNL     1       2.297   6.979  19.058  0.00  0.00    +0.000 A 
ATOM     18  C   UNL     1       2.729   7.969  18.037  0.00  0.00    +0.000 C 
ATOM     19  C   UNL     1       2.334   5.589  19.041  0.00  0.00    +0.000 A 
ENDBRANCH  11  19
ENDBRANCH   1  11
TORSDOF 3
ENDMDL
MODEL 4
REMARK VINA RESULT:      -6.5      1.610      2.738
REMARK  Name = 
REMARK  6 active torsions:
REMARK  status: ('A' for Active; 'I' for Inactive)
REMARK    1  A    between atoms: C_1  and  C_2
REMARK    2  A    between atoms: N_4  and  C_5
REMARK    3  A    between atoms: C_6  and  C_7
REMARK    4  A    between atoms: C_8  and  C_9
REMARK    5  A    between atoms: C_9  and  S_10
REMARK    6  A    between atoms: S_10  and  C_13
REMARK                            x       y       z     vdW  Elec       q    Type
REMARK                         _______ _______ _______ _____ _____    ______ ____
ROOT
ATOM      1  S   UNL     1       3.882   2.854  18.170  0.00  0.00    +0.000 S 
ATOM      2  O   UNL     1       4.094   2.341  19.512  0.00  0.00    +0.000 OA
ATOM      3  O   UNL     1       4.060   2.004  17.007  0.00  0.00    +0.000 OA
ENDROOT
BRANCH   1   4
ATOM      4  C   UNL     1       5.043   4.208  18.002  0.00  0.00    +0.000 A 
ATOM      5  C   UNL     1       5.215   4.814  16.751  0.00  0.00    +0.000 A 
ATOM      6  C   UNL     1       6.067   5.914  16.627  0.00  0.00    +0.000 A 
ATOM      7  C   UNL     1       6.725   6.413  17.752  0.00  0.00    +0.000 A 
ATOM      8 BR   UNL     1       7.856   7.920  17.584  0.00  0.00    +0.000 Br
ATOM      9  C   UNL     1       6.543   5.820  19.002  0.00  0.00    +0.000 A 
ATOM     10  C   UNL     1       5.699   4.713  19.130  0.00  0.00    +0.000 A 
ENDBRANCH   1   4
BRANCH   1  11
ATOM     11  C   UNL     1       2.272   3.639  18.062  0.00  0.00    +0.000 C 
BRANCH  11  19
ATOM     12  C   UNL     1       1.307   3.194  21.175  0.00  0.00    +0.000 C 
ATOM     13  C   UNL     1       1.595   4.465  20.462  0.00  0.00    +0.000 A 
ATOM     14  N   UNL     1       1.435   5.622  21.111  0.00  0.00    +0.000 NA
ATOM     15  N   UNL     1       1.790   6.562  20.224  0.00  0.00    +0.000 N 
ATOM     16  C   UNL     1       1.732   7.950  20.620  0.00  0.00    +0.000 C 
ATOM     17  C   UNL     1       2.160   6.048  19.008  0.00  0.00    +0.000 A 
ATOM     18  C   UNL     1       2.613   6.883  17.866  0.00  0.00    +0.000 C 
ATOM     19  C   UNL     1       2.030   4.668  19.123  0.00  0.00    +0.000 A 
ENDBRANCH  11  19
ENDBRANCH   1  11
TORSDOF 3
ENDMDL
MODEL 5
REMARK VINA RESULT:      -6.5      0.168      1.126
REMARK  Name = 
REMARK  6 active torsions:
REMARK  status: ('A' for Active; 'I' for Inactive)
REMARK    1  A    between atoms: C_1  and  C_2
REMARK    2  A    between atoms: N_4  and  C_5
REMARK    3  A    between atoms: C_6  and  C_7
REMARK    4  A    between atoms: C_8  and  C_9
REMARK    5  A    between atoms: C_9  and  S_10
REMARK    6  A    between atoms: S_10  and  C_13
REMARK                            x       y       z     vdW  Elec       q    Type
REMARK                         _______ _______ _______ _____ _____    ______ ____
ROOT
ATOM      1  S   UNL     1       5.274   4.193  17.464  0.00  0.00    +0.000 S 
ATOM      2  O   UNL     1       5.508   3.413  18.666  0.00  0.00    +0.000 OA
ATOM      3  O   UNL     1       5.663   3.693  16.158  0.00  0.00    +0.000 OA
ENDROOT
BRANCH   1   4
ATOM      4  C   UNL     1       6.174   5.721  17.721  0.00  0.00    +0.000 A 
ATOM      5  C   UNL     1       7.341   5.709  18.494  0.00  0.00    +0.000 A 
ATOM      6  C   UNL     1       8.084   6.882  18.643  0.00  0.00    +0.000 A 
ATOM      7  C   UNL     1       7.670   8.052  18.005  0.00  0.00    +0.000 A 
ATOM      8 BR   UNL     1       8.696   9.632  18.185  0.00  0.00    +0.000 Br
ATOM      9  C   UNL     1       6.516   8.063  17.222  0.00  0.00    +0.000 A 
ATOM     10  C   UNL     1       5.763   6.894  17.077  0.00  0.00    +0.000 A 
ENDBRANCH   1   4
BRANCH   1  11
ATOM     11  C   UNL     1       3.555   4.703  17.391  0.00  0.00    +0.000 C 
BRANCH  11  19
ATOM     12  C   UNL     1       2.597   7.026  19.513  0.00  0.00    +0.000 C 
ATOM     13  C   UNL     1       2.428   5.554  19.606  0.00  0.00    +0.000 A 
ATOM     14  N   UNL     1       1.837   5.037  20.687  0.00  0.00    +0.000 NA
ATOM     15  N   UNL     1       1.815   3.715  20.464  0.00  0.00    +0.000 N 
ATOM     16  C   UNL     1       1.228   2.850  21.462  0.00  0.00    +0.000 C 
ATOM     17  C   UNL     1       2.393   3.356  19.274  0.00  0.00    +0.000 A 
ATOM     18  C   UNL     1       2.475   1.954  18.789  0.00  0.00    +0.000 C 
ATOM     19  C   UNL     1       2.822   4.541  18.687  0.00  0.00    +0.000 A 
ENDBRANCH  11  19
ENDBRANCH   1  11
TORSDOF 3
ENDMDL
MODEL 6
REMARK VINA RESULT:      -6.5      3.671      5.531
REMARK  Name = 
REMARK  6 active torsions:
REMARK  status: ('A' for Active; 'I' for Inactive)
REMARK    1  A    between atoms: C_1  and  C_2
REMARK    2  A    between atoms: N_4  and  C_5
REMARK    3  A    between atoms: C_6  and  C_7
REMARK    4  A    between atoms: C_8  and  C_9
REMARK    5  A    between atoms: C_9  and  S_10
REMARK    6  A    between atoms: S_10  and  C_13
REMARK                            x       y       z     vdW  Elec       q    Type
REMARK                         _______ _______ _______ _____ _____    ______ ____
ROOT
ATOM      1  S   UNL     1       2.634   5.816  19.559  0.00  0.00    +0.000 S 
ATOM      2  O   UNL     1       1.696   5.163  20.454  0.00  0.00    +0.000 OA
ATOM      3  O   UNL     1       4.052   5.861  19.862  0.00  0.00    +0.000 OA
ENDROOT
BRANCH   1   4
ATOM      4  C   UNL     1       2.073   7.515  19.457  0.00  0.00    +0.000 A 
ATOM      5  C   UNL     1       2.157   8.193  18.235  0.00  0.00    +0.000 A 
ATOM      6  C   UNL     1       1.660   9.495  18.132  0.00  0.00    +0.000 A 
ATOM      7  C   UNL     1       1.067  10.102  19.240  0.00  0.00    +0.000 A 
ATOM      8 BR   UNL     1       0.369  11.853  19.087  0.00  0.00    +0.000 Br
ATOM      9  C   UNL     1       0.968   9.421  20.453  0.00  0.00    +0.000 A 
ATOM     10  C   UNL     1       1.472   8.122  20.566  0.00  0.00    +0.000 A 
ENDBRANCH   1   4
BRANCH   1  11
ATOM     11  C   UNL     1       2.427   5.184  17.891  0.00  0.00    +0.000 C 
BRANCH  11  19
ATOM     12  C   UNL     1       3.437   2.054  17.861  0.00  0.00    +0.000 C 
ATOM     13  C   UNL     1       4.115   3.256  17.313  0.00  0.00    +0.000 A 
ATOM     14  N   UNL     1       5.314   3.118  16.739  0.00  0.00    +0.000 NA
ATOM     15  N   UNL     1       5.641   4.353  16.333  0.00  0.00    +0.000 N 
ATOM     16  C   UNL     1       6.904   4.552  15.659  0.00  0.00    +0.000 C 
ATOM     17  C   UNL     1       4.695   5.295  16.644  0.00  0.00    +0.000 A 
ATOM     18  C   UNL     1       4.815   6.732  16.284  0.00  0.00    +0.000 C 
ATOM     19  C   UNL     1       3.680   4.611  17.304  0.00  0.00    +0.000 A 
ENDBRANCH  11  19
ENDBRANCH   1  11
TORSDOF 3
ENDMDL
MODEL 7
REMARK VINA RESULT:      -6.4      3.356      5.415
REMARK  Name = 
REMARK  6 active torsions:
REMARK  status: ('A' for Active; 'I' for Inactive)
REMARK    1  A    between atoms: C_1  and  C_2
REMARK    2  A    between atoms: N_4  and  C_5
REMARK    3  A    between atoms: C_6  and  C_7
REMARK    4  A    between atoms: C_8  and  C_9
REMARK    5  A    between atoms: C_9  and  S_10
REMARK    6  A    between atoms: S_10  and  C_13
REMARK                            x       y       z     vdW  Elec       q    Type
REMARK                         _______ _______ _______ _____ _____    ______ ____
ROOT
ATOM      1  S   UNL     1       2.896   3.203  17.555  0.00  0.00    +0.000 S 
ATOM      2  O   UNL     1       2.454   3.588  16.226  0.00  0.00    +0.000 OA
ATOM      3  O   UNL     1       2.323   2.054  18.231  0.00  0.00    +0.000 OA
ENDROOT
BRANCH   1   4
ATOM      4  C   UNL     1       2.561   4.629  18.587  0.00  0.00    +0.000 A 
ATOM      5  C   UNL     1       2.545   5.905  18.010  0.00  0.00    +0.000 A 
ATOM      6  C   UNL     1       2.218   7.014  18.794  0.00  0.00    +0.000 A 
ATOM      7  C   UNL     1       1.890   6.841  20.140  0.00  0.00    +0.000 A 
ATOM      8 BR   UNL     1       1.420   8.342  21.190  0.00  0.00    +0.000 Br
ATOM      9  C   UNL     1       1.891   5.568  20.712  0.00  0.00    +0.000 A 
ATOM     10  C   UNL     1       2.227   4.456  19.935  0.00  0.00    +0.000 A 
ENDBRANCH   1   4
BRANCH   1  11
ATOM     11  C   UNL     1       4.684   3.050  17.585  0.00  0.00    +0.000 C 
BRANCH  11  19
ATOM     12  C   UNL     1       5.291   4.108  14.530  0.00  0.00    +0.000 C 
ATOM     13  C   UNL     1       5.675   4.728  15.823  0.00  0.00    +0.000 A 
ATOM     14  N   UNL     1       6.389   5.858  15.813  0.00  0.00    +0.000 NA
ATOM     15  N   UNL     1       6.551   6.170  17.107  0.00  0.00    +0.000 N 
ATOM     16  C   UNL     1       7.292   7.363  17.448  0.00  0.00    +0.000 C 
ATOM     17  C   UNL     1       5.978   5.263  17.960  0.00  0.00    +0.000 A 
ATOM     18  C   UNL     1       6.003   5.395  19.440  0.00  0.00    +0.000 C 
ATOM     19  C   UNL     1       5.403   4.289  17.150  0.00  0.00    +0.000 A 
ENDBRANCH  11  19
ENDBRANCH   1  11
TORSDOF 3
ENDMDL
MODEL 8
REMARK VINA RESULT:      -6.3      3.658      5.564
REMARK  Name = 
REMARK  6 active torsions:
REMARK  status: ('A' for Active; 'I' for Inactive)
REMARK    1  A    between atoms: C_1  and  C_2
REMARK    2  A    between atoms: N_4  and  C_5
REMARK    3  A    between atoms: C_6  and  C_7
REMARK    4  A    between atoms: C_8  and  C_9
REMARK    5  A    between atoms: C_9  and  S_10
REMARK    6  A    between atoms: S_10  and  C_13
REMARK                            x       y       z     vdW  Elec       q    Type
REMARK                         _______ _______ _______ _____ _____    ______ ____
ROOT
ATOM      1  S   UNL     1       2.649   5.847  19.561  0.00  0.00    +0.000 S 
ATOM      2  O   UNL     1       1.776   5.174  20.506  0.00  0.00    +0.000 OA
ATOM      3  O   UNL     1       4.072   5.974  19.816  0.00  0.00    +0.000 OA
ENDROOT
BRANCH   1   4
ATOM      4  C   UNL     1       1.998   7.511  19.431  0.00  0.00    +0.000 A 
ATOM      5  C   UNL     1       1.443   8.121  20.563  0.00  0.00    +0.000 A 
ATOM      6  C   UNL     1       0.994   9.442  20.485  0.00  0.00    +0.000 A 
ATOM      7  C   UNL     1       1.120  10.150  19.289  0.00  0.00    +0.000 A 
ATOM      8 BR   UNL     1       0.538  11.948  19.199  0.00  0.00    +0.000 Br
ATOM      9  C   UNL     1       1.687   9.548  18.166  0.00  0.00    +0.000 A 
ATOM     10  C   UNL     1       2.129   8.224  18.234  0.00  0.00    +0.000 A 
ENDBRANCH   1   4
BRANCH   1  11
ATOM     11  C   UNL     1       2.423   5.157  17.920  0.00  0.00    +0.000 C 
BRANCH  11  19
ATOM     12  C   UNL     1       3.451   2.033  17.877  0.00  0.00    +0.000 C 
ATOM     13  C   UNL     1       4.119   3.240  17.329  0.00  0.00    +0.000 A 
ATOM     14  N   UNL     1       5.316   3.110  16.749  0.00  0.00    +0.000 NA
ATOM     15  N   UNL     1       5.634   4.347  16.344  0.00  0.00    +0.000 N 
ATOM     16  C   UNL     1       6.892   4.556  15.664  0.00  0.00    +0.000 C 
ATOM     17  C   UNL     1       4.684   5.284  16.662  0.00  0.00    +0.000 A 
ATOM     18  C   UNL     1       4.794   6.722  16.305  0.00  0.00    +0.000 C 
ATOM     19  C   UNL     1       3.676   4.592  17.325  0.00  0.00    +0.000 A 
ENDBRANCH  11  19
ENDBRANCH   1  11
TORSDOF 3
ENDMDL
MODEL 9
REMARK VINA RESULT:      -6.3      2.884      3.371
REMARK  Name = 
REMARK  6 active torsions:
REMARK  status: ('A' for Active; 'I' for Inactive)
REMARK    1  A    between atoms: C_1  and  C_2
REMARK    2  A    between atoms: N_4  and  C_5
REMARK    3  A    between atoms: C_6  and  C_7
REMARK    4  A    between atoms: C_8  and  C_9
REMARK    5  A    between atoms: C_9  and  S_10
REMARK    6  A    between atoms: S_10  and  C_13
REMARK                            x       y       z     vdW  Elec       q    Type
REMARK                         _______ _______ _______ _____ _____    ______ ____
ROOT
ATOM      1  S   UNL     1       4.911   5.599  17.691  0.00  0.00    +0.000 S 
ATOM      2  O   UNL     1       5.014   7.045  17.624  0.00  0.00    +0.000 OA
ATOM      3  O   UNL     1       5.580   4.848  18.737  0.00  0.00    +0.000 OA
ENDROOT
BRANCH   1   4
ATOM      4  C   UNL     1       5.573   5.014  16.132  0.00  0.00    +0.000 A 
ATOM      5  C   UNL     1       4.741   4.306  15.256  0.00  0.00    +0.000 A 
ATOM      6  C   UNL     1       5.231   3.905  14.010  0.00  0.00    +0.000 A 
ATOM      7  C   UNL     1       6.536   4.230  13.640  0.00  0.00    +0.000 A 
ATOM      8 BR   UNL     1       7.185   3.712  11.940  0.00  0.00    +0.000 Br
ATOM      9  C   UNL     1       7.361   4.949  14.505  0.00  0.00    +0.000 A 
ATOM     10  C   UNL     1       6.880   5.344  15.757  0.00  0.00    +0.000 A 
ENDBRANCH   1   4
BRANCH   1  11
ATOM     11  C   UNL     1       3.186   5.105  17.649  0.00  0.00    +0.000 C 
BRANCH  11  19
ATOM     12  C   UNL     1       2.169   7.080  20.075  0.00  0.00    +0.000 C 
ATOM     13  C   UNL     1       2.212   5.597  20.039  0.00  0.00    +0.000 A 
ATOM     14  N   UNL     1       1.822   4.911  21.117  0.00  0.00    +0.000 NA
ATOM     15  N   UNL     1       1.952   3.624  20.768  0.00  0.00    +0.000 N 
ATOM     16  C   UNL     1       1.604   2.603  21.730  0.00  0.00    +0.000 C 
ATOM     17  C   UNL     1       2.435   3.452  19.497  0.00  0.00    +0.000 A 
ATOM     18  C   UNL     1       2.651   2.122  18.870  0.00  0.00    +0.000 C 
ATOM     19  C   UNL     1       2.632   4.732  18.989  0.00  0.00    +0.000 A 
ENDBRANCH  11  19
ENDBRANCH   1  11
TORSDOF 3
ENDMDL
