MODEL 1
REMARK VINA RESULT:      -8.9      0.000      0.000
REMARK  Name = 
REMARK  8 active torsions:
REMARK  status: ('A' for Active; 'I' for Inactive)
REMARK    1  A    between atoms: C_1  and  C_2
REMARK    2  A    between atoms: C_6  and  N_7
REMARK    3  A    between atoms: C_14  and  C_15
REMARK    4  A    between atoms: N_19  and  C_20
REMARK    5  A    between atoms: N_21  and  C_22
REMARK    6  A    between atoms: C_22  and  C_23
REMARK    7  A    between atoms: N_25  and  C_26
REMARK    8  A    between atoms: C_26  and  C_27
REMARK                            x       y       z     vdW  Elec       q    Type
REMARK                         _______ _______ _______ _____ _____    ______ ____
ROOT
ATOM      1  N   UNL     1       4.088   6.394  18.316  0.00  0.00    +0.000 N 
ATOM      2  C   UNL     1       3.598   7.628  17.809  0.00  0.00    +0.000 A 
ATOM      3  O   UNL     1       4.066   8.226  16.854  0.00  0.00    +0.000 OA
ATOM      4  C   UNL     1       2.460   8.122  18.540  0.00  0.00    +0.000 A 
ATOM      5  C   UNL     1       2.000   7.517  19.676  0.00  0.00    +0.000 A 
ATOM      6  C   UNL     1       1.157   8.444  20.323  0.00  0.00    +0.000 A 
ATOM      7  C   UNL     1       0.778   8.725  21.644  0.00  0.00    +0.000 A 
ATOM      8  C   UNL     1      -0.164   9.731  21.880  0.00  0.00    +0.000 A 
ATOM      9  C   UNL     1      -0.349  10.255  23.266  0.00  0.00    +0.000 C 
ATOM     10  C   UNL     1      -0.873  10.274  20.804  0.00  0.00    +0.000 A 
ATOM     11  C   UNL     1      -0.463  10.059  19.483  0.00  0.00    +0.000 A 
ATOM     12  C   UNL     1       0.670   9.258  19.313  0.00  0.00    +0.000 A 
ATOM     13  N   UNL     1       1.678   9.248  18.355  0.00  0.00    +0.000 N 
ATOM     14  C   UNL     1       2.080  10.499  17.738  0.00  0.00    +0.000 C 
ATOM     15  N   UNL     1       2.463   6.284  20.090  0.00  0.00    +0.000 N 
ATOM     16  C   UNL     1       3.578   5.726  19.461  0.00  0.00    +0.000 A 
ATOM     17  O   UNL     1       4.093   4.703  19.934  0.00  0.00    +0.000 OA
ENDROOT
BRANCH   1  23
ATOM     18  C   UNL     1       5.799   4.165  14.177  0.00  0.00    +0.000 C 
ATOM     19  C   UNL     1       6.006   4.626  15.590  0.00  0.00    +0.000 A 
ATOM     20  C   UNL     1       7.215   4.386  16.248  0.00  0.00    +0.000 A 
ATOM     21  C   UNL     1       7.407   4.834  17.554  0.00  0.00    +0.000 A 
ATOM     22  C   UNL     1       6.389   5.527  18.213  0.00  0.00    +0.000 A 
ATOM     23  C   UNL     1       5.151   5.749  17.590  0.00  0.00    +0.000 A 
ATOM     24  C   UNL     1       4.974   5.295  16.274  0.00  0.00    +0.000 A 
ENDBRANCH   1  23
BRANCH  15  25
ATOM     25  C   UNL     1       1.834   5.607  21.237  0.00  0.00    +0.000 C 
BRANCH  25  26
ATOM     26  C   UNL     1       1.613   4.097  21.133  0.00  0.00    +0.000 C 
ATOM     27  O   UNL     1       2.192   3.288  21.867  0.00  0.00    +0.000 OA
ATOM     28  N   UNL     1       0.842   3.705  20.071  0.00  0.00    +0.000 N 
ATOM     29  H   UNL     1       0.215   4.388  19.661  0.00  0.00    +0.000 HD
BRANCH  28  30
ATOM     30  C   UNL     1       0.656   2.305  19.741  0.00  0.00    +0.000 C 
BRANCH  30  31
ATOM     31  C   UNL     1       1.504   1.893  18.535  0.00  0.00    +0.000 C 
ATOM     32  C   UNL     1       2.982   1.675  18.838  0.00  0.00    +0.000 C 
ATOM     33  C   UNL     1       3.627   2.048  17.526  0.00  0.00    +0.000 C 
ATOM     34  C   UNL     1       2.760   3.196  17.061  0.00  0.00    +0.000 C 
ATOM     35  O   UNL     1       1.432   2.921  17.524  0.00  0.00    +0.000 OA
ENDBRANCH  30  31
ENDBRANCH  28  30
ENDBRANCH  25  26
ENDBRANCH  15  25
TORSDOF 5
ENDMDL
MODEL 2
REMARK VINA RESULT:      -8.1      4.898     10.156
REMARK  Name = 
REMARK  8 active torsions:
REMARK  status: ('A' for Active; 'I' for Inactive)
REMARK    1  A    between atoms: C_1  and  C_2
REMARK    2  A    between atoms: C_6  and  N_7
REMARK    3  A    between atoms: C_14  and  C_15
REMARK    4  A    between atoms: N_19  and  C_20
REMARK    5  A    between atoms: N_21  and  C_22
REMARK    6  A    between atoms: C_22  and  C_23
REMARK    7  A    between atoms: N_25  and  C_26
REMARK    8  A    between atoms: C_26  and  C_27
REMARK                            x       y       z     vdW  Elec       q    Type
REMARK                         _______ _______ _______ _____ _____    ______ ____
ROOT
ATOM      1  N   UNL     1      -1.519  12.390  21.535  0.00  0.00    +0.000 N 
ATOM      2  C   UNL     1      -0.773  11.463  22.314  0.00  0.00    +0.000 A 
ATOM      3  O   UNL     1      -0.620  11.530  23.522  0.00  0.00    +0.000 OA
ATOM      4  C   UNL     1      -0.203  10.401  21.526  0.00  0.00    +0.000 A 
ATOM      5  C   UNL     1      -0.275  10.380  20.162  0.00  0.00    +0.000 A 
ATOM      6  C   UNL     1       0.682   9.447  19.713  0.00  0.00    +0.000 A 
ATOM      7  C   UNL     1       1.477   9.276  18.570  0.00  0.00    +0.000 A 
ATOM      8  C   UNL     1       2.294   8.144  18.476  0.00  0.00    +0.000 A 
ATOM      9  C   UNL     1       3.364   8.094  17.435  0.00  0.00    +0.000 C 
ATOM     10  C   UNL     1       2.136   7.104  19.398  0.00  0.00    +0.000 A 
ATOM     11  C   UNL     1       1.403   7.285  20.577  0.00  0.00    +0.000 A 
ATOM     12  C   UNL     1       0.829   8.548  20.756  0.00  0.00    +0.000 A 
ATOM     13  N   UNL     1       0.549   9.299  21.892  0.00  0.00    +0.000 N 
ATOM     14  C   UNL     1       1.413   9.178  23.052  0.00  0.00    +0.000 C 
ATOM     15  N   UNL     1      -1.068  11.263  19.455  0.00  0.00    +0.000 N 
ATOM     16  C   UNL     1      -1.651  12.343  20.121  0.00  0.00    +0.000 A 
ATOM     17  O   UNL     1      -2.224  13.223  19.465  0.00  0.00    +0.000 OA
ENDROOT
BRANCH   1  23
ATOM     18  C   UNL     1      -5.702  14.117  23.666  0.00  0.00    +0.000 C 
ATOM     19  C   UNL     1      -4.272  14.312  23.255  0.00  0.00    +0.000 A 
ATOM     20  C   UNL     1      -3.622  15.527  23.491  0.00  0.00    +0.000 A 
ATOM     21  C   UNL     1      -2.287  15.694  23.124  0.00  0.00    +0.000 A 
ATOM     22  C   UNL     1      -1.592  14.645  22.517  0.00  0.00    +0.000 A 
ATOM     23  C   UNL     1      -2.230  13.428  22.233  0.00  0.00    +0.000 A 
ATOM     24  C   UNL     1      -3.572  13.274  22.612  0.00  0.00    +0.000 A 
ENDBRANCH   1  23
BRANCH  15  25
ATOM     25  C   UNL     1      -1.228  11.107  17.999  0.00  0.00    +0.000 C 
BRANCH  25  26
ATOM     26  C   UNL     1      -2.615  10.728  17.476  0.00  0.00    +0.000 C 
ATOM     27  O   UNL     1      -2.863   9.617  16.994  0.00  0.00    +0.000 OA
ATOM     28  N   UNL     1      -3.514  11.761  17.446  0.00  0.00    +0.000 N 
ATOM     29  H   UNL     1      -3.348  12.554  18.053  0.00  0.00    +0.000 HD
BRANCH  28  30
ATOM     30  C   UNL     1      -4.826  11.610  16.843  0.00  0.00    +0.000 C 
BRANCH  30  31
ATOM     31  C   UNL     1      -5.939  12.025  17.807  0.00  0.00    +0.000 C 
ATOM     32  C   UNL     1      -5.454  12.588  19.139  0.00  0.00    +0.000 C 
ATOM     33  C   UNL     1      -6.569  12.187  20.071  0.00  0.00    +0.000 C 
ATOM     34  C   UNL     1      -6.963  10.831  19.531  0.00  0.00    +0.000 C 
ATOM     35  O   UNL     1      -6.762  10.880  18.113  0.00  0.00    +0.000 OA
ENDBRANCH  30  31
ENDBRANCH  28  30
ENDBRANCH  25  26
ENDBRANCH  15  25
TORSDOF 5
ENDMDL
MODEL 3
REMARK VINA RESULT:      -8.0      4.894     10.143
REMARK  Name = 
REMARK  8 active torsions:
REMARK  status: ('A' for Active; 'I' for Inactive)
REMARK    1  A    between atoms: C_1  and  C_2
REMARK    2  A    between atoms: C_6  and  N_7
REMARK    3  A    between atoms: C_14  and  C_15
REMARK    4  A    between atoms: N_19  and  C_20
REMARK    5  A    between atoms: N_21  and  C_22
REMARK    6  A    between atoms: C_22  and  C_23
REMARK    7  A    between atoms: N_25  and  C_26
REMARK    8  A    between atoms: C_26  and  C_27
REMARK                            x       y       z     vdW  Elec       q    Type
REMARK                         _______ _______ _______ _____ _____    ______ ____
ROOT
ATOM      1  N   UNL     1      -1.626  12.263  21.614  0.00  0.00    +0.000 N 
ATOM      2  C   UNL     1      -0.808  11.379  22.368  0.00  0.00    +0.000 A 
ATOM      3  O   UNL     1      -0.618  11.457  23.571  0.00  0.00    +0.000 OA
ATOM      4  C   UNL     1      -0.211  10.344  21.564  0.00  0.00    +0.000 A 
ATOM      5  C   UNL     1      -0.328  10.315  20.203  0.00  0.00    +0.000 A 
ATOM      6  C   UNL     1       0.661   9.431  19.724  0.00  0.00    +0.000 A 
ATOM      7  C   UNL     1       1.424   9.296  18.555  0.00  0.00    +0.000 A 
ATOM      8  C   UNL     1       2.295   8.208  18.435  0.00  0.00    +0.000 A 
ATOM      9  C   UNL     1       3.330   8.208  17.360  0.00  0.00    +0.000 C 
ATOM     10  C   UNL     1       2.221   7.164  19.364  0.00  0.00    +0.000 A 
ATOM     11  C   UNL     1       1.520   7.312  20.567  0.00  0.00    +0.000 A 
ATOM     12  C   UNL     1       0.888   8.543  20.763  0.00  0.00    +0.000 A 
ATOM     13  N   UNL     1       0.608   9.283  21.907  0.00  0.00    +0.000 N 
ATOM     14  C   UNL     1       1.516   9.211  23.037  0.00  0.00    +0.000 C 
ATOM     15  N   UNL     1      -1.188  11.154  19.522  0.00  0.00    +0.000 N 
ATOM     16  C   UNL     1      -1.803  12.205  20.205  0.00  0.00    +0.000 A 
ATOM     17  O   UNL     1      -2.442  13.052  19.567  0.00  0.00    +0.000 OA
ENDROOT
BRANCH   1  23
ATOM     18  C   UNL     1      -1.915  16.812  23.675  0.00  0.00    +0.000 C 
ATOM     19  C   UNL     1      -2.526  15.474  23.378  0.00  0.00    +0.000 A 
ATOM     20  C   UNL     1      -3.804  15.155  23.847  0.00  0.00    +0.000 A 
ATOM     21  C   UNL     1      -4.372  13.917  23.551  0.00  0.00    +0.000 A 
ATOM     22  C   UNL     1      -3.666  12.987  22.784  0.00  0.00    +0.000 A 
ATOM     23  C   UNL     1      -2.366  13.266  22.334  0.00  0.00    +0.000 A 
ATOM     24  C   UNL     1      -1.809  14.518  22.636  0.00  0.00    +0.000 A 
ENDBRANCH   1  23
BRANCH  15  25
ATOM     25  C   UNL     1      -1.388  10.985  18.072  0.00  0.00    +0.000 C 
BRANCH  25  26
ATOM     26  C   UNL     1      -2.799  10.645  17.587  0.00  0.00    +0.000 C 
ATOM     27  O   UNL     1      -3.153   9.489  17.329  0.00  0.00    +0.000 OA
ATOM     28  N   UNL     1      -3.588  11.732  17.321  0.00  0.00    +0.000 N 
ATOM     29  H   UNL     1      -3.349  12.612  17.763  0.00  0.00    +0.000 HD
BRANCH  28  30
ATOM     30  C   UNL     1      -4.899  11.592  16.716  0.00  0.00    +0.000 C 
BRANCH  30  31
ATOM     31  C   UNL     1      -6.016  11.900  17.715  0.00  0.00    +0.000 C 
ATOM     32  C   UNL     1      -5.559  12.607  18.986  0.00  0.00    +0.000 C 
ATOM     33  C   UNL     1      -6.560  12.107  19.997  0.00  0.00    +0.000 C 
ATOM     34  C   UNL     1      -6.774  10.678  19.553  0.00  0.00    +0.000 C 
ATOM     35  O   UNL     1      -6.647  10.669  18.126  0.00  0.00    +0.000 OA
ENDBRANCH  30  31
ENDBRANCH  28  30
ENDBRANCH  25  26
ENDBRANCH  15  25
TORSDOF 5
ENDMDL
MODEL 4
REMARK VINA RESULT:      -7.7      0.356      1.188
REMARK  Name = 
REMARK  8 active torsions:
REMARK  status: ('A' for Active; 'I' for Inactive)
REMARK    1  A    between atoms: C_1  and  C_2
REMARK    2  A    between atoms: C_6  and  N_7
REMARK    3  A    between atoms: C_14  and  C_15
REMARK    4  A    between atoms: N_19  and  C_20
REMARK    5  A    between atoms: N_21  and  C_22
REMARK    6  A    between atoms: C_22  and  C_23
REMARK    7  A    between atoms: N_25  and  C_26
REMARK    8  A    between atoms: C_26  and  C_27
REMARK                            x       y       z     vdW  Elec       q    Type
REMARK                         _______ _______ _______ _____ _____    ______ ____
ROOT
ATOM      1  N   UNL     1       3.903   6.519  18.307  0.00  0.00    +0.000 N 
ATOM      2  C   UNL     1       3.448   7.770  17.809  0.00  0.00    +0.000 A 
ATOM      3  O   UNL     1       3.941   8.368  16.867  0.00  0.00    +0.000 OA
ATOM      4  C   UNL     1       2.314   8.282  18.533  0.00  0.00    +0.000 A 
ATOM      5  C   UNL     1       1.827   7.674  19.657  0.00  0.00    +0.000 A 
ATOM      6  C   UNL     1       0.998   8.613  20.306  0.00  0.00    +0.000 A 
ATOM      7  C   UNL     1       0.610   8.886  21.625  0.00  0.00    +0.000 A 
ATOM      8  C   UNL     1      -0.311   9.911  21.864  0.00  0.00    +0.000 A 
ATOM      9  C   UNL     1      -0.500  10.423  23.254  0.00  0.00    +0.000 C 
ATOM     10  C   UNL     1      -0.994  10.484  20.786  0.00  0.00    +0.000 A 
ATOM     11  C   UNL     1      -0.574  10.275  19.467  0.00  0.00    +0.000 A 
ATOM     12  C   UNL     1       0.542   9.450  19.301  0.00  0.00    +0.000 A 
ATOM     13  N   UNL     1       1.560   9.428  18.354  0.00  0.00    +0.000 N 
ATOM     14  C   UNL     1       1.999  10.676  17.757  0.00  0.00    +0.000 C 
ATOM     15  N   UNL     1       2.256   6.425  20.061  0.00  0.00    +0.000 N 
ATOM     16  C   UNL     1       3.365   5.849  19.438  0.00  0.00    +0.000 A 
ATOM     17  O   UNL     1       3.850   4.809  19.904  0.00  0.00    +0.000 OA
ENDROOT
BRANCH   1  23
ATOM     18  C   UNL     1       8.438   4.409  18.200  0.00  0.00    +0.000 C 
ATOM     19  C   UNL     1       7.187   4.847  17.497  0.00  0.00    +0.000 A 
ATOM     20  C   UNL     1       7.048   4.675  16.116  0.00  0.00    +0.000 A 
ATOM     21  C   UNL     1       5.876   5.067  15.472  0.00  0.00    +0.000 A 
ATOM     22  C   UNL     1       4.832   5.636  16.205  0.00  0.00    +0.000 A 
ATOM     23  C   UNL     1       4.959   5.857  17.586  0.00  0.00    +0.000 A 
ATOM     24  C   UNL     1       6.143   5.453  18.220  0.00  0.00    +0.000 A 
ENDBRANCH   1  23
BRANCH  15  25
ATOM     25  C   UNL     1       1.597   5.750  21.193  0.00  0.00    +0.000 C 
BRANCH  25  26
ATOM     26  C   UNL     1       1.522   4.223  21.158  0.00  0.00    +0.000 C 
ATOM     27  O   UNL     1       2.165   3.507  21.934  0.00  0.00    +0.000 OA
ATOM     28  N   UNL     1       0.806   3.711  20.108  0.00  0.00    +0.000 N 
ATOM     29  H   UNL     1       0.123   4.312  19.661  0.00  0.00    +0.000 HD
BRANCH  28  30
ATOM     30  C   UNL     1       0.757   2.286  19.842  0.00  0.00    +0.000 C 
BRANCH  30  31
ATOM     31  C   UNL     1       1.559   1.919  18.591  0.00  0.00    +0.000 C 
ATOM     32  C   UNL     1       3.059   1.768  18.815  0.00  0.00    +0.000 C 
ATOM     33  C   UNL     1       3.617   2.175  17.475  0.00  0.00    +0.000 C 
ATOM     34  C   UNL     1       2.675   3.284  17.063  0.00  0.00    +0.000 C 
ATOM     35  O   UNL     1       1.387   2.946  17.592  0.00  0.00    +0.000 OA
ENDBRANCH  30  31
ENDBRANCH  28  30
ENDBRANCH  25  26
ENDBRANCH  15  25
TORSDOF 5
ENDMDL
MODEL 5
REMARK VINA RESULT:      -7.7      4.715      9.888
REMARK  Name = 
REMARK  8 active torsions:
REMARK  status: ('A' for Active; 'I' for Inactive)
REMARK    1  A    between atoms: C_1  and  C_2
REMARK    2  A    between atoms: C_6  and  N_7
REMARK    3  A    between atoms: C_14  and  C_15
REMARK    4  A    between atoms: N_19  and  C_20
REMARK    5  A    between atoms: N_21  and  C_22
REMARK    6  A    between atoms: C_22  and  C_23
REMARK    7  A    between atoms: N_25  and  C_26
REMARK    8  A    between atoms: C_26  and  C_27
REMARK                            x       y       z     vdW  Elec       q    Type
REMARK                         _______ _______ _______ _____ _____    ______ ____
ROOT
ATOM      1  N   UNL     1      -1.340  11.966  21.014  0.00  0.00    +0.000 N 
ATOM      2  C   UNL     1      -0.565  11.161  21.891  0.00  0.00    +0.000 A 
ATOM      3  O   UNL     1      -0.432  11.360  23.088  0.00  0.00    +0.000 OA
ATOM      4  C   UNL     1       0.065  10.051  21.225  0.00  0.00    +0.000 A 
ATOM      5  C   UNL     1       0.014   9.886  19.869  0.00  0.00    +0.000 A 
ATOM      6  C   UNL     1       1.019   8.958  19.529  0.00  0.00    +0.000 A 
ATOM      7  C   UNL     1       1.838   8.707  18.418  0.00  0.00    +0.000 A 
ATOM      8  C   UNL     1       2.707   7.612  18.450  0.00  0.00    +0.000 A 
ATOM      9  C   UNL     1       3.793   7.504  17.431  0.00  0.00    +0.000 C 
ATOM     10  C   UNL     1       2.584   6.666  19.474  0.00  0.00    +0.000 A 
ATOM     11  C   UNL     1       1.826   6.933  20.620  0.00  0.00    +0.000 A 
ATOM     12  C   UNL     1       1.192   8.179  20.661  0.00  0.00    +0.000 A 
ATOM     13  N   UNL     1       0.861   9.029  21.710  0.00  0.00    +0.000 N 
ATOM     14  C   UNL     1       1.713   9.070  22.885  0.00  0.00    +0.000 C 
ATOM     15  N   UNL     1      -0.809  10.653  19.066  0.00  0.00    +0.000 N 
ATOM     16  C   UNL     1      -1.449  11.767  19.611  0.00  0.00    +0.000 A 
ATOM     17  O   UNL     1      -2.053  12.547  18.861  0.00  0.00    +0.000 OA
ENDROOT
BRANCH   1  23
ATOM     18  C   UNL     1      -5.580  13.663  23.056  0.00  0.00    +0.000 C 
ATOM     19  C   UNL     1      -4.181  13.902  22.567  0.00  0.00    +0.000 A 
ATOM     20  C   UNL     1      -3.621  15.182  22.610  0.00  0.00    +0.000 A 
ATOM     21  C   UNL     1      -2.315  15.393  22.171  0.00  0.00    +0.000 A 
ATOM     22  C   UNL     1      -1.559  14.324  21.684  0.00  0.00    +0.000 A 
ATOM     23  C   UNL     1      -2.109  13.036  21.593  0.00  0.00    +0.000 A 
ATOM     24  C   UNL     1      -3.423  12.839  22.043  0.00  0.00    +0.000 A 
ENDBRANCH   1  23
BRANCH  15  25
ATOM     25  C   UNL     1      -0.940  10.339  17.633  0.00  0.00    +0.000 C 
BRANCH  25  26
ATOM     26  C   UNL     1      -2.340  10.402  17.020  0.00  0.00    +0.000 C 
ATOM     27  O   UNL     1      -2.564  10.927  15.924  0.00  0.00    +0.000 OA
ATOM     28  N   UNL     1      -3.343   9.966  17.846  0.00  0.00    +0.000 N 
ATOM     29  H   UNL     1      -3.096   9.344  18.606  0.00  0.00    +0.000 HD
BRANCH  28  30
ATOM     30  C   UNL     1      -4.740  10.095  17.478  0.00  0.00    +0.000 C 
BRANCH  30  31
ATOM     31  C   UNL     1      -5.374  11.341  18.101  0.00  0.00    +0.000 C 
ATOM     32  C   UNL     1      -6.800  11.147  18.605  0.00  0.00    +0.000 C 
ATOM     33  C   UNL     1      -7.384  12.526  18.424  0.00  0.00    +0.000 C 
ATOM     34  C   UNL     1      -6.726  12.983  17.142  0.00  0.00    +0.000 C 
ATOM     35  O   UNL     1      -5.418  12.399  17.121  0.00  0.00    +0.000 OA
ENDBRANCH  30  31
ENDBRANCH  28  30
ENDBRANCH  25  26
ENDBRANCH  15  25
TORSDOF 5
ENDMDL
MODEL 6
REMARK VINA RESULT:      -7.6      7.869     11.029
REMARK  Name = 
REMARK  8 active torsions:
REMARK  status: ('A' for Active; 'I' for Inactive)
REMARK    1  A    between atoms: C_1  and  C_2
REMARK    2  A    between atoms: C_6  and  N_7
REMARK    3  A    between atoms: C_14  and  C_15
REMARK    4  A    between atoms: N_19  and  C_20
REMARK    5  A    between atoms: N_21  and  C_22
REMARK    6  A    between atoms: C_22  and  C_23
REMARK    7  A    between atoms: N_25  and  C_26
REMARK    8  A    between atoms: C_26  and  C_27
REMARK                            x       y       z     vdW  Elec       q    Type
REMARK                         _______ _______ _______ _____ _____    ______ ____
ROOT
ATOM      1  N   UNL     1       3.773  14.697  19.864  0.00  0.00    +0.000 N 
ATOM      2  C   UNL     1       4.055  14.494  21.243  0.00  0.00    +0.000 A 
ATOM      3  O   UNL     1       3.221  14.247  22.098  0.00  0.00    +0.000 OA
ATOM      4  C   UNL     1       5.458  14.600  21.549  0.00  0.00    +0.000 A 
ATOM      5  C   UNL     1       6.384  14.986  20.621  0.00  0.00    +0.000 A 
ATOM      6  C   UNL     1       7.550  15.348  21.327  0.00  0.00    +0.000 A 
ATOM      7  C   UNL     1       8.617  16.237  21.141  0.00  0.00    +0.000 A 
ATOM      8  C   UNL     1       9.651  16.264  22.082  0.00  0.00    +0.000 A 
ATOM      9  C   UNL     1      10.624  17.397  22.075  0.00  0.00    +0.000 C 
ATOM     10  C   UNL     1       9.720  15.261  23.055  0.00  0.00    +0.000 A 
ATOM     11  C   UNL     1       8.635  14.412  23.299  0.00  0.00    +0.000 A 
ATOM     12  C   UNL     1       7.504  14.615  22.503  0.00  0.00    +0.000 A 
ATOM     13  N   UNL     1       6.145  14.441  22.740  0.00  0.00    +0.000 N 
ATOM     14  C   UNL     1       5.628  14.649  24.080  0.00  0.00    +0.000 C 
ATOM     15  N   UNL     1       6.074  15.105  19.280  0.00  0.00    +0.000 N 
ATOM     16  C   UNL     1       4.738  15.039  18.879  0.00  0.00    +0.000 A 
ATOM     17  O   UNL     1       4.443  15.307  17.706  0.00  0.00    +0.000 OA
ENDROOT
BRANCH   1  23
ATOM     18  C   UNL     1      -0.805  16.489  18.940  0.00  0.00    +0.000 C 
ATOM     19  C   UNL     1       0.160  15.341  18.992  0.00  0.00    +0.000 A 
ATOM     20  C   UNL     1      -0.256  14.046  18.670  0.00  0.00    +0.000 A 
ATOM     21  C   UNL     1       0.650  12.987  18.702  0.00  0.00    +0.000 A 
ATOM     22  C   UNL     1       1.982  13.216  19.058  0.00  0.00    +0.000 A 
ATOM     23  C   UNL     1       2.418  14.499  19.424  0.00  0.00    +0.000 A 
ATOM     24  C   UNL     1       1.495  15.555  19.383  0.00  0.00    +0.000 A 
ENDBRANCH   1  23
BRANCH  15  25
ATOM     25  C   UNL     1       7.138  15.379  18.299  0.00  0.00    +0.000 C 
BRANCH  25  26
ATOM     26  C   UNL     1       7.871  14.179  17.696  0.00  0.00    +0.000 C 
ATOM     27  O   UNL     1       7.276  13.184  17.266  0.00  0.00    +0.000 OA
ATOM     28  N   UNL     1       9.235  14.230  17.806  0.00  0.00    +0.000 N 
ATOM     29  H   UNL     1       9.668  15.136  17.937  0.00  0.00    +0.000 HD
BRANCH  28  30
ATOM     30  C   UNL     1      10.071  13.109  17.420  0.00  0.00    +0.000 C 
BRANCH  30  31
ATOM     31  C   UNL     1      10.371  12.194  18.610  0.00  0.00    +0.000 C 
ATOM     32  C   UNL     1       9.586  10.886  18.623  0.00  0.00    +0.000 C 
ATOM     33  C   UNL     1       9.466  10.610  20.100  0.00  0.00    +0.000 C 
ATOM     34  C   UNL     1       9.292  12.000  20.670  0.00  0.00    +0.000 C 
ATOM     35  O   UNL     1      10.054  12.883  19.838  0.00  0.00    +0.000 OA
ENDBRANCH  30  31
ENDBRANCH  28  30
ENDBRANCH  25  26
ENDBRANCH  15  25
TORSDOF 5
ENDMDL
MODEL 7
REMARK VINA RESULT:      -7.6      4.730      9.858
REMARK  Name = 
REMARK  8 active torsions:
REMARK  status: ('A' for Active; 'I' for Inactive)
REMARK    1  A    between atoms: C_1  and  C_2
REMARK    2  A    between atoms: C_6  and  N_7
REMARK    3  A    between atoms: C_14  and  C_15
REMARK    4  A    between atoms: N_19  and  C_20
REMARK    5  A    between atoms: N_21  and  C_22
REMARK    6  A    between atoms: C_22  and  C_23
REMARK    7  A    between atoms: N_25  and  C_26
REMARK    8  A    between atoms: C_26  and  C_27
REMARK                            x       y       z     vdW  Elec       q    Type
REMARK                         _______ _______ _______ _____ _____    ______ ____
ROOT
ATOM      1  N   UNL     1      -1.289  12.062  20.932  0.00  0.00    +0.000 N 
ATOM      2  C   UNL     1      -0.552  11.248  21.835  0.00  0.00    +0.000 A 
ATOM      3  O   UNL     1      -0.435  11.461  23.031  0.00  0.00    +0.000 OA
ATOM      4  C   UNL     1       0.058  10.112  21.195  0.00  0.00    +0.000 A 
ATOM      5  C   UNL     1       0.026   9.929  19.841  0.00  0.00    +0.000 A 
ATOM      6  C   UNL     1       1.011   8.968  19.532  0.00  0.00    +0.000 A 
ATOM      7  C   UNL     1       1.841   8.677  18.440  0.00  0.00    +0.000 A 
ATOM      8  C   UNL     1       2.678   7.559  18.503  0.00  0.00    +0.000 A 
ATOM      9  C   UNL     1       3.779   7.406  17.505  0.00  0.00    +0.000 C 
ATOM     10  C   UNL     1       2.511   6.633  19.537  0.00  0.00    +0.000 A 
ATOM     11  C   UNL     1       1.741   6.938  20.666  0.00  0.00    +0.000 A 
ATOM     12  C   UNL     1       1.142   8.201  20.679  0.00  0.00    +0.000 A 
ATOM     13  N   UNL     1       0.817   9.075  21.709  0.00  0.00    +0.000 N 
ATOM     14  C   UNL     1       1.649   9.109  22.898  0.00  0.00    +0.000 C 
ATOM     15  N   UNL     1      -0.760  10.706  19.013  0.00  0.00    +0.000 N 
ATOM     16  C   UNL     1      -1.379  11.846  19.530  0.00  0.00    +0.000 A 
ATOM     17  O   UNL     1      -1.947  12.631  18.759  0.00  0.00    +0.000 OA
ENDROOT
BRANCH   1  23
ATOM     18  C   UNL     1      -1.585  16.859  22.319  0.00  0.00    +0.000 C 
ATOM     19  C   UNL     1      -2.201  15.496  22.199  0.00  0.00    +0.000 A 
ATOM     20  C   UNL     1      -3.494  15.255  22.673  0.00  0.00    +0.000 A 
ATOM     21  C   UNL     1      -4.067  13.991  22.541  0.00  0.00    +0.000 A 
ATOM     22  C   UNL     1      -3.351  12.958  21.933  0.00  0.00    +0.000 A 
ATOM     23  C   UNL     1      -2.037  13.161  21.482  0.00  0.00    +0.000 A 
ATOM     24  C   UNL     1      -1.476  14.440  21.619  0.00  0.00    +0.000 A 
ENDBRANCH   1  23
BRANCH  15  25
ATOM     25  C   UNL     1      -0.875  10.376  17.582  0.00  0.00    +0.000 C 
BRANCH  25  26
ATOM     26  C   UNL     1      -2.280  10.310  16.982  0.00  0.00    +0.000 C 
ATOM     27  O   UNL     1      -2.517  10.615  15.807  0.00  0.00    +0.000 OA
ATOM     28  N   UNL     1      -3.273  10.031  17.884  0.00  0.00    +0.000 N 
ATOM     29  H   UNL     1      -3.015   9.566  18.746  0.00  0.00    +0.000 HD
BRANCH  28  30
ATOM     30  C   UNL     1      -4.674  10.076  17.511  0.00  0.00    +0.000 C 
BRANCH  30  31
ATOM     31  C   UNL     1      -5.374  11.303  18.101  0.00  0.00    +0.000 C 
ATOM     32  C   UNL     1      -6.829  11.078  18.498  0.00  0.00    +0.000 C 
ATOM     33  C   UNL     1      -7.424  12.449  18.291  0.00  0.00    +0.000 C 
ATOM     34  C   UNL     1      -6.682  12.934  17.066  0.00  0.00    +0.000 C 
ATOM     35  O   UNL     1      -5.366  12.374  17.133  0.00  0.00    +0.000 OA
ENDBRANCH  30  31
ENDBRANCH  28  30
ENDBRANCH  25  26
ENDBRANCH  15  25
TORSDOF 5
ENDMDL
MODEL 8
REMARK VINA RESULT:      -7.5      5.359      9.397
REMARK  Name = 
REMARK  8 active torsions:
REMARK  status: ('A' for Active; 'I' for Inactive)
REMARK    1  A    between atoms: C_1  and  C_2
REMARK    2  A    between atoms: C_6  and  N_7
REMARK    3  A    between atoms: C_14  and  C_15
REMARK    4  A    between atoms: N_19  and  C_20
REMARK    5  A    between atoms: N_21  and  C_22
REMARK    6  A    between atoms: C_22  and  C_23
REMARK    7  A    between atoms: N_25  and  C_26
REMARK    8  A    between atoms: C_26  and  C_27
REMARK                            x       y       z     vdW  Elec       q    Type
REMARK                         _______ _______ _______ _____ _____    ______ ____
ROOT
ATOM      1  N   UNL     1      -0.086  10.895  19.770  0.00  0.00    +0.000 N 
ATOM      2  C   UNL     1      -1.426  10.891  19.297  0.00  0.00    +0.000 A 
ATOM      3  O   UNL     1      -1.883  10.089  18.498  0.00  0.00    +0.000 OA
ATOM      4  C   UNL     1      -2.225  11.946  19.866  0.00  0.00    +0.000 A 
ATOM      5  C   UNL     1      -1.694  12.913  20.672  0.00  0.00    +0.000 A 
ATOM      6  C   UNL     1      -2.634  13.962  20.730  0.00  0.00    +0.000 A 
ATOM      7  C   UNL     1      -2.597  15.353  20.904  0.00  0.00    +0.000 A 
ATOM      8  C   UNL     1      -3.800  16.063  20.960  0.00  0.00    +0.000 A 
ATOM      9  C   UNL     1      -3.785  17.550  20.832  0.00  0.00    +0.000 C 
ATOM     10  C   UNL     1      -5.006  15.362  21.074  0.00  0.00    +0.000 A 
ATOM     11  C   UNL     1      -5.069  13.985  20.835  0.00  0.00    +0.000 A 
ATOM     12  C   UNL     1      -3.862  13.362  20.503  0.00  0.00    +0.000 A 
ATOM     13  N   UNL     1      -3.560  12.268  19.700  0.00  0.00    +0.000 N 
ATOM     14  C   UNL     1      -4.387  11.991  18.540  0.00  0.00    +0.000 C 
ATOM     15  N   UNL     1      -0.404  12.835  21.161  0.00  0.00    +0.000 N 
ATOM     16  C   UNL     1       0.460  11.861  20.657  0.00  0.00    +0.000 A 
ATOM     17  O   UNL     1       1.658  11.892  20.971  0.00  0.00    +0.000 OA
ENDROOT
BRANCH   1  23
ATOM     18  C   UNL     1       2.014   6.438  20.634  0.00  0.00    +0.000 C 
ATOM     19  C   UNL     1       1.837   7.650  19.767  0.00  0.00    +0.000 A 
ATOM     20  C   UNL     1       2.548   7.779  18.570  0.00  0.00    +0.000 A 
ATOM     21  C   UNL     1       2.365   8.899  17.760  0.00  0.00    +0.000 A 
ATOM     22  C   UNL     1       1.468   9.899  18.143  0.00  0.00    +0.000 A 
ATOM     23  C   UNL     1       0.771   9.815  19.358  0.00  0.00    +0.000 A 
ATOM     24  C   UNL     1       0.963   8.679  20.159  0.00  0.00    +0.000 A 
ENDBRANCH   1  23
BRANCH  15  25
ATOM     25  C   UNL     1       0.072  13.824  22.143  0.00  0.00    +0.000 C 
BRANCH  25  26
ATOM     26  C   UNL     1       1.167  14.795  21.695  0.00  0.00    +0.000 C 
ATOM     27  O   UNL     1       2.223  14.941  22.320  0.00  0.00    +0.000 OA
ATOM     28  N   UNL     1       0.822  15.593  20.637  0.00  0.00    +0.000 N 
ATOM     29  H   UNL     1       0.074  15.281  20.029  0.00  0.00    +0.000 HD
BRANCH  28  30
ATOM     30  C   UNL     1       1.685  16.667  20.181  0.00  0.00    +0.000 C 
BRANCH  30  31
ATOM     31  C   UNL     1       0.923  17.672  19.314  0.00  0.00    +0.000 C 
ATOM     32  C   UNL     1      -0.263  17.089  18.553  0.00  0.00    +0.000 C 
ATOM     33  C   UNL     1      -0.304  17.962  17.324  0.00  0.00    +0.000 C 
ATOM     34  C   UNL     1       1.164  18.198  17.053  0.00  0.00    +0.000 C 
ATOM     35  O   UNL     1       1.817  18.231  18.327  0.00  0.00    +0.000 OA
ENDBRANCH  30  31
ENDBRANCH  28  30
ENDBRANCH  25  26
ENDBRANCH  15  25
TORSDOF 5
ENDMDL
MODEL 9
REMARK VINA RESULT:      -7.4      3.789      7.850
REMARK  Name = 
REMARK  8 active torsions:
REMARK  status: ('A' for Active; 'I' for Inactive)
REMARK    1  A    between atoms: C_1  and  C_2
REMARK    2  A    between atoms: C_6  and  N_7
REMARK    3  A    between atoms: C_14  and  C_15
REMARK    4  A    between atoms: N_19  and  C_20
REMARK    5  A    between atoms: N_21  and  C_22
REMARK    6  A    between atoms: C_22  and  C_23
REMARK    7  A    between atoms: N_25  and  C_26
REMARK    8  A    between atoms: C_26  and  C_27
REMARK                            x       y       z     vdW  Elec       q    Type
REMARK                         _______ _______ _______ _____ _____    ______ ____
ROOT
ATOM      1  N   UNL     1       1.794   8.396  19.062  0.00  0.00    +0.000 N 
ATOM      2  C   UNL     1       1.283   8.267  20.382  0.00  0.00    +0.000 A 
ATOM      3  O   UNL     1       1.375   7.266  21.072  0.00  0.00    +0.000 OA
ATOM      4  C   UNL     1       0.634   9.464  20.850  0.00  0.00    +0.000 A 
ATOM      5  C   UNL     1       0.428  10.549  20.045  0.00  0.00    +0.000 A 
ATOM      6  C   UNL     1      -0.539  11.355  20.680  0.00  0.00    +0.000 A 
ATOM      7  C   UNL     1      -1.537  12.255  20.277  0.00  0.00    +0.000 A 
ATOM      8  C   UNL     1      -2.282  12.923  21.253  0.00  0.00    +0.000 A 
ATOM      9  C   UNL     1      -3.536  13.635  20.863  0.00  0.00    +0.000 C 
ATOM     10  C   UNL     1      -1.875  12.863  22.590  0.00  0.00    +0.000 A 
ATOM     11  C   UNL     1      -0.931  11.922  23.018  0.00  0.00    +0.000 A 
ATOM     12  C   UNL     1      -0.414  11.077  22.032  0.00  0.00    +0.000 A 
ATOM     13  N   UNL     1       0.043   9.764  22.065  0.00  0.00    +0.000 N 
ATOM     14  C   UNL     1      -0.558   8.829  22.998  0.00  0.00    +0.000 C 
ATOM     15  N   UNL     1       1.003  10.655  18.794  0.00  0.00    +0.000 N 
ATOM     16  C   UNL     1       1.639   9.543  18.238  0.00  0.00    +0.000 A 
ATOM     17  O   UNL     1       2.010   9.584  17.057  0.00  0.00    +0.000 OA
ENDROOT
BRANCH   1  23
ATOM     18  C   UNL     1       2.141   3.619  17.620  0.00  0.00    +0.000 C 
ATOM     19  C   UNL     1       2.773   4.960  17.851  0.00  0.00    +0.000 A 
ATOM     20  C   UNL     1       4.137   5.155  17.615  0.00  0.00    +0.000 A 
ATOM     21  C   UNL     1       4.714   6.408  17.815  0.00  0.00    +0.000 A 
ATOM     22  C   UNL     1       3.929   7.477  18.253  0.00  0.00    +0.000 A 
ATOM     23  C   UNL     1       2.566   7.301  18.535  0.00  0.00    +0.000 A 
ATOM     24  C   UNL     1       1.999   6.035  18.325  0.00  0.00    +0.000 A 
ENDBRANCH   1  23
BRANCH  15  25
ATOM     25  C   UNL     1       0.873  11.905  18.026  0.00  0.00    +0.000 C 
BRANCH  25  26
ATOM     26  C   UNL     1       1.840  13.043  18.358  0.00  0.00    +0.000 C 
ATOM     27  O   UNL     1       3.064  12.879  18.419  0.00  0.00    +0.000 OA
ATOM     28  N   UNL     1       1.236  14.216  18.727  0.00  0.00    +0.000 N 
ATOM     29  H   UNL     1       0.278  14.369  18.436  0.00  0.00    +0.000 HD
BRANCH  28  30
ATOM     30  C   UNL     1       2.003  15.347  19.214  0.00  0.00    +0.000 C 
BRANCH  30  31
ATOM     31  C   UNL     1       1.238  16.661  19.045  0.00  0.00    +0.000 C 
ATOM     32  C   UNL     1      -0.132  16.522  18.390  0.00  0.00    +0.000 C 
ATOM     33  C   UNL     1      -0.278  17.849  17.689  0.00  0.00    +0.000 C 
ATOM     34  C   UNL     1       1.136  18.122  17.228  0.00  0.00    +0.000 C 
ATOM     35  O   UNL     1       2.006  17.562  18.219  0.00  0.00    +0.000 OA
ENDBRANCH  30  31
ENDBRANCH  28  30
ENDBRANCH  25  26
ENDBRANCH  15  25
TORSDOF 5
ENDMDL
