MODEL 1
REMARK VINA RESULT:      -8.3      0.000      0.000
REMARK  Name = 
REMARK  9 active torsions:
REMARK  status: ('A' for Active; 'I' for Inactive)
REMARK    1  A    between atoms: C_1  and  C_2
REMARK    2  A    between atoms: C_4  and  C_5
REMARK    3  A    between atoms: C_7  and  C_8
REMARK    4  A    between atoms: C_9  and  O_10
REMARK    5  A    between atoms: C_19  and  O_20
REMARK    6  A    between atoms: O_20  and  C_21
REMARK    7  A    between atoms: C_21  and  C_22
REMARK    8  A    between atoms: C_22  and  C_23
REMARK    9  A    between atoms: N_28  and  C_29
REMARK                            x       y       z     vdW  Elec       q    Type
REMARK                         _______ _______ _______ _____ _____    ______ ____
ROOT
ATOM      1  C   UNL     1       0.080  10.970  21.693  0.00  0.00    +0.000 A 
ATOM      2  C   UNL     1       0.494   9.823  22.400  0.00  0.00    +0.000 A 
ATOM      3  N   UNL     1       1.176   8.776  21.900  0.00  0.00    +0.000 NA
ATOM      4  C   UNL     1       1.403   8.741  20.591  0.00  0.00    +0.000 A 
ATOM      5  C   UNL     1       2.042   7.610  20.106  0.00  0.00    +0.000 A 
ATOM      6  C   UNL     1       2.263   7.443  18.746  0.00  0.00    +0.000 A 
ATOM      7 CL   UNL     1       3.076   6.037  18.177  0.00  0.00    +0.000 Cl
ATOM      8  C   UNL     1       1.826   8.408  17.851  0.00  0.00    +0.000 A 
ATOM      9  C   UNL     1       1.216   9.570  18.338  0.00  0.00    +0.000 A 
ATOM     10  C   UNL     1       1.014   9.777  19.728  0.00  0.00    +0.000 A 
ATOM     11  C   UNL     1       0.449  10.956  20.321  0.00  0.00    +0.000 A 
ENDROOT
BRANCH   1  18
ATOM     12  C   UNL     1      -0.467  15.739  23.326  0.00  0.00    +0.000 C 
ATOM     13  C   UNL     1      -1.046  14.383  23.085  0.00  0.00    +0.000 A 
ATOM     14  C   UNL     1      -2.291  14.052  23.622  0.00  0.00    +0.000 A 
ATOM     15  C   UNL     1      -2.760  12.736  23.579  0.00  0.00    +0.000 A 
ATOM     16  C   UNL     1      -4.162  12.408  23.993  0.00  0.00    +0.000 C 
ATOM     17  C   UNL     1      -1.930  11.742  23.042  0.00  0.00    +0.000 A 
ATOM     18  C   UNL     1      -0.717  12.041  22.380  0.00  0.00    +0.000 A 
ATOM     19  C   UNL     1      -0.319  13.394  22.393  0.00  0.00    +0.000 A 
ENDBRANCH   1  18
BRANCH   2  20
ATOM     20  O   UNL     1       0.218   9.619  23.726  0.00  0.00    +0.000 OA
ATOM     21  H   UNL     1      -0.668   9.238  23.789  0.00  0.00    +0.000 HD
ENDBRANCH   2  20
BRANCH  11  22
ATOM     22  O   UNL     1       0.335  12.001  19.417  0.00  0.00    +0.000 OA
BRANCH  22  23
ATOM     23  C   UNL     1      -0.933  12.281  18.819  0.00  0.00    +0.000 C 
BRANCH  23  24
ATOM     24  C   UNL     1      -2.049  11.331  19.238  0.00  0.00    +0.000 C 
BRANCH  24  25
ATOM     25  C   UNL     1      -2.862  10.682  18.092  0.00  0.00    +0.000 C 
ATOM     26  C   UNL     1      -1.933  10.208  16.953  0.00  0.00    +0.000 C 
ATOM     27  C   UNL     1      -2.730   9.659  15.777  0.00  0.00    +0.000 C 
ATOM     28  C   UNL     1      -3.657  10.742  15.259  0.00  0.00    +0.000 C 
ATOM     29  C   UNL     1      -4.570  11.241  16.374  0.00  0.00    +0.000 C 
ATOM     30  N   UNL     1      -3.857  11.664  17.587  0.00  0.00    +0.000 NA
ATOM     31  C   UNL     1      -4.826  12.053  18.621  0.00  0.00    +0.000 C 
ENDBRANCH  24  25
ENDBRANCH  23  24
ENDBRANCH  22  23
ENDBRANCH  11  22
TORSDOF 6
ENDMDL
MODEL 2
REMARK VINA RESULT:      -8.3      0.117      1.571
REMARK  Name = 
REMARK  9 active torsions:
REMARK  status: ('A' for Active; 'I' for Inactive)
REMARK    1  A    between atoms: C_1  and  C_2
REMARK    2  A    between atoms: C_4  and  C_5
REMARK    3  A    between atoms: C_7  and  C_8
REMARK    4  A    between atoms: C_9  and  O_10
REMARK    5  A    between atoms: C_19  and  O_20
REMARK    6  A    between atoms: O_20  and  C_21
REMARK    7  A    between atoms: C_21  and  C_22
REMARK    8  A    between atoms: C_22  and  C_23
REMARK    9  A    between atoms: N_28  and  C_29
REMARK                            x       y       z     vdW  Elec       q    Type
REMARK                         _______ _______ _______ _____ _____    ______ ____
ROOT
ATOM      1  C   UNL     1       0.064  10.916  21.649  0.00  0.00    +0.000 A 
ATOM      2  C   UNL     1       0.532   9.806  22.382  0.00  0.00    +0.000 A 
ATOM      3  N   UNL     1       1.235   8.766  21.898  0.00  0.00    +0.000 NA
ATOM      4  C   UNL     1       1.432   8.695  20.586  0.00  0.00    +0.000 A 
ATOM      5  C   UNL     1       2.095   7.570  20.120  0.00  0.00    +0.000 A 
ATOM      6  C   UNL     1       2.288   7.366  18.762  0.00  0.00    +0.000 A 
ATOM      7 CL   UNL     1       3.133   5.968  18.218  0.00  0.00    +0.000 Cl
ATOM      8  C   UNL     1       1.798   8.286  17.848  0.00  0.00    +0.000 A 
ATOM      9  C   UNL     1       1.162   9.443  18.313  0.00  0.00    +0.000 A 
ATOM     10  C   UNL     1       0.988   9.689  19.700  0.00  0.00    +0.000 A 
ATOM     11  C   UNL     1       0.398  10.869  20.270  0.00  0.00    +0.000 A 
ENDROOT
BRANCH   1  18
ATOM     12  C   UNL     1      -4.149  12.453  24.016  0.00  0.00    +0.000 C 
ATOM     13  C   UNL     1      -2.748  12.721  23.570  0.00  0.00    +0.000 A 
ATOM     14  C   UNL     1      -2.227  14.013  23.650  0.00  0.00    +0.000 A 
ATOM     15  C   UNL     1      -0.999  14.325  23.060  0.00  0.00    +0.000 A 
ATOM     16  C   UNL     1      -0.355  15.658  23.290  0.00  0.00    +0.000 C 
ATOM     17  C   UNL     1      -0.329  13.331  22.332  0.00  0.00    +0.000 A 
ATOM     18  C   UNL     1      -0.751  11.982  22.322  0.00  0.00    +0.000 A 
ATOM     19  C   UNL     1      -1.963  11.705  22.987  0.00  0.00    +0.000 A 
ENDBRANCH   1  18
BRANCH   2  20
ATOM     20  O   UNL     1       0.295   9.636  23.720  0.00  0.00    +0.000 OA
ATOM     21  H   UNL     1       0.674  10.394  24.186  0.00  0.00    +0.000 HD
ENDBRANCH   2  20
BRANCH  11  22
ATOM     22  O   UNL     1       0.228  11.879  19.336  0.00  0.00    +0.000 OA
BRANCH  22  23
ATOM     23  C   UNL     1      -1.089  12.224  18.903  0.00  0.00    +0.000 C 
BRANCH  23  24
ATOM     24  C   UNL     1      -2.149  11.173  19.214  0.00  0.00    +0.000 C 
BRANCH  24  25
ATOM     25  C   UNL     1      -2.915  10.592  18.001  0.00  0.00    +0.000 C 
ATOM     26  C   UNL     1      -1.937  10.124  16.902  0.00  0.00    +0.000 C 
ATOM     27  C   UNL     1      -2.682   9.643  15.663  0.00  0.00    +0.000 C 
ATOM     28  C   UNL     1      -3.540  10.775  15.132  0.00  0.00    +0.000 C 
ATOM     29  C   UNL     1      -4.500  11.268  16.210  0.00  0.00    +0.000 C 
ATOM     30  N   UNL     1      -3.845  11.624  17.476  0.00  0.00    +0.000 NA
ATOM     31  C   UNL     1      -4.859  12.013  18.466  0.00  0.00    +0.000 C 
ENDBRANCH  24  25
ENDBRANCH  23  24
ENDBRANCH  22  23
ENDBRANCH  11  22
TORSDOF 6
ENDMDL
MODEL 3
REMARK VINA RESULT:      -8.2      1.053      2.566
REMARK  Name = 
REMARK  9 active torsions:
REMARK  status: ('A' for Active; 'I' for Inactive)
REMARK    1  A    between atoms: C_1  and  C_2
REMARK    2  A    between atoms: C_4  and  C_5
REMARK    3  A    between atoms: C_7  and  C_8
REMARK    4  A    between atoms: C_9  and  O_10
REMARK    5  A    between atoms: C_19  and  O_20
REMARK    6  A    between atoms: O_20  and  C_21
REMARK    7  A    between atoms: C_21  and  C_22
REMARK    8  A    between atoms: C_22  and  C_23
REMARK    9  A    between atoms: N_28  and  C_29
REMARK                            x       y       z     vdW  Elec       q    Type
REMARK                         _______ _______ _______ _____ _____    ______ ____
ROOT
ATOM      1  C   UNL     1      -0.442  11.194  22.010  0.00  0.00    +0.000 A 
ATOM      2  C   UNL     1       0.053  10.027  22.629  0.00  0.00    +0.000 A 
ATOM      3  N   UNL     1       0.803   9.071  22.052  0.00  0.00    +0.000 NA
ATOM      4  C   UNL     1       1.028   9.152  20.744  0.00  0.00    +0.000 A 
ATOM      5  C   UNL     1       1.741   8.108  20.175  0.00  0.00    +0.000 A 
ATOM      6  C   UNL     1       1.969   8.060  18.807  0.00  0.00    +0.000 A 
ATOM      7 CL   UNL     1       2.875   6.761  18.134  0.00  0.00    +0.000 Cl
ATOM      8  C   UNL     1       1.463   9.057  17.987  0.00  0.00    +0.000 A 
ATOM      9  C   UNL     1       0.775  10.134  18.560  0.00  0.00    +0.000 A 
ATOM     10  C   UNL     1       0.565  10.221  19.962  0.00  0.00    +0.000 A 
ATOM     11  C   UNL     1      -0.079  11.309  20.642  0.00  0.00    +0.000 A 
ENDROOT
BRANCH   1  18
ATOM     12  C   UNL     1      -4.853  12.417  24.191  0.00  0.00    +0.000 C 
ATOM     13  C   UNL     1      -3.412  12.719  23.935  0.00  0.00    +0.000 A 
ATOM     14  C   UNL     1      -2.889  13.965  24.286  0.00  0.00    +0.000 A 
ATOM     15  C   UNL     1      -1.605  14.339  23.880  0.00  0.00    +0.000 A 
ATOM     16  C   UNL     1      -0.974  15.595  24.397  0.00  0.00    +0.000 C 
ATOM     17  C   UNL     1      -0.877  13.467  23.059  0.00  0.00    +0.000 A 
ATOM     18  C   UNL     1      -1.309  12.151  22.775  0.00  0.00    +0.000 A 
ATOM     19  C   UNL     1      -2.584  11.797  23.264  0.00  0.00    +0.000 A 
ENDBRANCH   1  18
BRANCH   2  20
ATOM     20  O   UNL     1      -0.203   9.704  23.935  0.00  0.00    +0.000 OA
ATOM     21  H   UNL     1       0.573   9.947  24.458  0.00  0.00    +0.000 HD
ENDBRANCH   2  20
BRANCH  11  22
ATOM     22  O   UNL     1      -0.268  12.409  19.820  0.00  0.00    +0.000 OA
BRANCH  22  23
ATOM     23  C   UNL     1      -1.593  12.884  19.570  0.00  0.00    +0.000 C 
BRANCH  23  24
ATOM     24  C   UNL     1      -2.515  11.860  18.916  0.00  0.00    +0.000 C 
BRANCH  24  25
ATOM     25  C   UNL     1      -4.027  12.191  18.931  0.00  0.00    +0.000 C 
ATOM     26  C   UNL     1      -4.542  12.361  20.377  0.00  0.00    +0.000 C 
ATOM     27  C   UNL     1      -6.048  12.586  20.408  0.00  0.00    +0.000 C 
ATOM     28  C   UNL     1      -6.739  11.403  19.757  0.00  0.00    +0.000 C 
ATOM     29  C   UNL     1      -6.229  11.204  18.334  0.00  0.00    +0.000 C 
ATOM     30  N   UNL     1      -4.766  11.109  18.231  0.00  0.00    +0.000 NA
ATOM     31  C   UNL     1      -4.375  10.993  16.819  0.00  0.00    +0.000 C 
ENDBRANCH  24  25
ENDBRANCH  23  24
ENDBRANCH  22  23
ENDBRANCH  11  22
TORSDOF 6
ENDMDL
MODEL 4
REMARK VINA RESULT:      -8.1      0.934      1.932
REMARK  Name = 
REMARK  9 active torsions:
REMARK  status: ('A' for Active; 'I' for Inactive)
REMARK    1  A    between atoms: C_1  and  C_2
REMARK    2  A    between atoms: C_4  and  C_5
REMARK    3  A    between atoms: C_7  and  C_8
REMARK    4  A    between atoms: C_9  and  O_10
REMARK    5  A    between atoms: C_19  and  O_20
REMARK    6  A    between atoms: O_20  and  C_21
REMARK    7  A    between atoms: C_21  and  C_22
REMARK    8  A    between atoms: C_22  and  C_23
REMARK    9  A    between atoms: N_28  and  C_29
REMARK                            x       y       z     vdW  Elec       q    Type
REMARK                         _______ _______ _______ _____ _____    ______ ____
ROOT
ATOM      1  C   UNL     1      -0.312  11.160  21.973  0.00  0.00    +0.000 A 
ATOM      2  C   UNL     1       0.122   9.973  22.599  0.00  0.00    +0.000 A 
ATOM      3  N   UNL     1       0.846   8.989  22.035  0.00  0.00    +0.000 NA
ATOM      4  C   UNL     1       1.103   9.064  20.734  0.00  0.00    +0.000 A 
ATOM      5  C   UNL     1       1.787   7.994  20.177  0.00  0.00    +0.000 A 
ATOM      6  C   UNL     1       2.043   7.941  18.814  0.00  0.00    +0.000 A 
ATOM      7 CL   UNL     1       2.912   6.608  18.157  0.00  0.00    +0.000 Cl
ATOM      8  C   UNL     1       1.596   8.959  17.986  0.00  0.00    +0.000 A 
ATOM      9  C   UNL     1       0.940  10.062  18.548  0.00  0.00    +0.000 A 
ATOM     10  C   UNL     1       0.701  10.153  19.945  0.00  0.00    +0.000 A 
ATOM     11  C   UNL     1       0.087  11.265  20.614  0.00  0.00    +0.000 A 
ENDROOT
BRANCH   1  18
ATOM     12  C   UNL     1      -0.927  15.654  24.239  0.00  0.00    +0.000 C 
ATOM     13  C   UNL     1      -1.508  14.374  23.733  0.00  0.00    +0.000 A 
ATOM     14  C   UNL     1      -2.814  14.019  24.073  0.00  0.00    +0.000 A 
ATOM     15  C   UNL     1      -3.307  12.745  23.779  0.00  0.00    +0.000 A 
ATOM     16  C   UNL     1      -4.755  12.417  23.982  0.00  0.00    +0.000 C 
ATOM     17  C   UNL     1      -2.444  11.807  23.193  0.00  0.00    +0.000 A 
ATOM     18  C   UNL     1      -1.156  12.150  22.722  0.00  0.00    +0.000 A 
ATOM     19  C   UNL     1      -0.729  13.468  22.984  0.00  0.00    +0.000 A 
ENDBRANCH   1  18
BRANCH   2  20
ATOM     20  O   UNL     1      -0.176   9.658  23.897  0.00  0.00    +0.000 OA
ATOM     21  H   UNL     1       0.566   9.939  24.449  0.00  0.00    +0.000 HD
ENDBRANCH   2  20
BRANCH  11  22
ATOM     22  O   UNL     1      -0.040  12.374  19.792  0.00  0.00    +0.000 OA
BRANCH  22  23
ATOM     23  C   UNL     1      -1.341  12.872  19.475  0.00  0.00    +0.000 C 
BRANCH  23  24
ATOM     24  C   UNL     1      -2.237  11.874  18.748  0.00  0.00    +0.000 C 
BRANCH  24  25
ATOM     25  C   UNL     1      -3.755  12.175  18.769  0.00  0.00    +0.000 C 
ATOM     26  C   UNL     1      -4.245  12.453  20.206  0.00  0.00    +0.000 C 
ATOM     27  C   UNL     1      -5.755  12.650  20.251  0.00  0.00    +0.000 C 
ATOM     28  C   UNL     1      -6.433  11.404  19.714  0.00  0.00    +0.000 C 
ATOM     29  C   UNL     1      -5.946  11.098  18.301  0.00  0.00    +0.000 C 
ATOM     30  N   UNL     1      -4.484  11.024  18.175  0.00  0.00    +0.000 NA
ATOM     31  C   UNL     1      -4.119  10.801  16.769  0.00  0.00    +0.000 C 
ENDBRANCH  24  25
ENDBRANCH  23  24
ENDBRANCH  22  23
ENDBRANCH  11  22
TORSDOF 6
ENDMDL
MODEL 5
REMARK VINA RESULT:      -7.9      3.499      6.831
REMARK  Name = 
REMARK  9 active torsions:
REMARK  status: ('A' for Active; 'I' for Inactive)
REMARK    1  A    between atoms: C_1  and  C_2
REMARK    2  A    between atoms: C_4  and  C_5
REMARK    3  A    between atoms: C_7  and  C_8
REMARK    4  A    between atoms: C_9  and  O_10
REMARK    5  A    between atoms: C_19  and  O_20
REMARK    6  A    between atoms: O_20  and  C_21
REMARK    7  A    between atoms: C_21  and  C_22
REMARK    8  A    between atoms: C_22  and  C_23
REMARK    9  A    between atoms: N_28  and  C_29
REMARK                            x       y       z     vdW  Elec       q    Type
REMARK                         _______ _______ _______ _____ _____    ______ ____
ROOT
ATOM      1  C   UNL     1       1.930   8.375  19.093  0.00  0.00    +0.000 A 
ATOM      2  C   UNL     1       2.396   8.809  17.835  0.00  0.00    +0.000 A 
ATOM      3  N   UNL     1       3.312   8.195  17.065  0.00  0.00    +0.000 NA
ATOM      4  C   UNL     1       3.937   7.130  17.558  0.00  0.00    +0.000 A 
ATOM      5  C   UNL     1       4.927   6.572  16.764  0.00  0.00    +0.000 A 
ATOM      6  C   UNL     1       5.686   5.502  17.215  0.00  0.00    +0.000 A 
ATOM      7 CL   UNL     1       6.894   4.820  16.197  0.00  0.00    +0.000 Cl
ATOM      8  C   UNL     1       5.471   4.989  18.485  0.00  0.00    +0.000 A 
ATOM      9  C   UNL     1       4.447   5.522  19.277  0.00  0.00    +0.000 A 
ATOM     10  C   UNL     1       3.634   6.592  18.818  0.00  0.00    +0.000 A 
ATOM     11  C   UNL     1       2.529   7.166  19.535  0.00  0.00    +0.000 A 
ENDROOT
BRANCH   1  18
ATOM     12  C   UNL     1      -0.253   9.777  23.450  0.00  0.00    +0.000 C 
ATOM     13  C   UNL     1      -0.067   9.968  21.979  0.00  0.00    +0.000 A 
ATOM     14  C   UNL     1      -0.920  10.818  21.274  0.00  0.00    +0.000 A 
ATOM     15  C   UNL     1      -0.891  10.859  19.877  0.00  0.00    +0.000 A 
ATOM     16  C   UNL     1      -1.676  11.889  19.124  0.00  0.00    +0.000 C 
ATOM     17  C   UNL     1      -0.033   9.985  19.195  0.00  0.00    +0.000 A 
ATOM     18  C   UNL     1       0.932   9.194  19.859  0.00  0.00    +0.000 A 
ATOM     19  C   UNL     1       0.907   9.237  21.269  0.00  0.00    +0.000 A 
ENDBRANCH   1  18
BRANCH   2  20
ATOM     20  O   UNL     1       1.972   9.965  17.237  0.00  0.00    +0.000 OA
ATOM     21  H   UNL     1       1.810  10.617  17.932  0.00  0.00    +0.000 HD
ENDBRANCH   2  20
BRANCH  11  22
ATOM     22  O   UNL     1       2.163   6.408  20.637  0.00  0.00    +0.000 OA
BRANCH  22  23
ATOM     23  C   UNL     1       0.887   5.763  20.656  0.00  0.00    +0.000 C 
BRANCH  23  24
ATOM     24  C   UNL     1       0.938   4.262  20.392  0.00  0.00    +0.000 C 
BRANCH  24  25
ATOM     25  C   UNL     1       2.061   3.770  19.448  0.00  0.00    +0.000 C 
ATOM     26  C   UNL     1       1.568   3.709  17.986  0.00  0.00    +0.000 C 
ATOM     27  C   UNL     1       2.634   3.130  17.064  0.00  0.00    +0.000 C 
ATOM     28  C   UNL     1       2.994   1.735  17.538  0.00  0.00    +0.000 C 
ATOM     29  C   UNL     1       3.464   1.769  18.989  0.00  0.00    +0.000 C 
ATOM     30  N   UNL     1       2.527   2.435  19.905  0.00  0.00    +0.000 NA
ATOM     31  C   UNL     1       3.103   2.481  21.256  0.00  0.00    +0.000 C 
ENDBRANCH  24  25
ENDBRANCH  23  24
ENDBRANCH  22  23
ENDBRANCH  11  22
TORSDOF 6
ENDMDL
MODEL 6
REMARK VINA RESULT:      -7.9      3.497      6.799
REMARK  Name = 
REMARK  9 active torsions:
REMARK  status: ('A' for Active; 'I' for Inactive)
REMARK    1  A    between atoms: C_1  and  C_2
REMARK    2  A    between atoms: C_4  and  C_5
REMARK    3  A    between atoms: C_7  and  C_8
REMARK    4  A    between atoms: C_9  and  O_10
REMARK    5  A    between atoms: C_19  and  O_20
REMARK    6  A    between atoms: O_20  and  C_21
REMARK    7  A    between atoms: C_21  and  C_22
REMARK    8  A    between atoms: C_22  and  C_23
REMARK    9  A    between atoms: N_28  and  C_29
REMARK                            x       y       z     vdW  Elec       q    Type
REMARK                         _______ _______ _______ _____ _____    ______ ____
ROOT
ATOM      1  C   UNL     1       1.958   8.373  19.103  0.00  0.00    +0.000 A 
ATOM      2  C   UNL     1       2.398   8.800  17.833  0.00  0.00    +0.000 A 
ATOM      3  N   UNL     1       3.293   8.179  17.044  0.00  0.00    +0.000 NA
ATOM      4  C   UNL     1       3.921   7.111  17.525  0.00  0.00    +0.000 A 
ATOM      5  C   UNL     1       4.889   6.545  16.710  0.00  0.00    +0.000 A 
ATOM      6  C   UNL     1       5.651   5.471  17.146  0.00  0.00    +0.000 A 
ATOM      7 CL   UNL     1       6.831   4.778  16.102  0.00  0.00    +0.000 Cl
ATOM      8  C   UNL     1       5.462   4.961  18.422  0.00  0.00    +0.000 A 
ATOM      9  C   UNL     1       4.460   5.504  19.236  0.00  0.00    +0.000 A 
ATOM     10  C   UNL     1       3.644   6.578  18.793  0.00  0.00    +0.000 A 
ATOM     11  C   UNL     1       2.560   7.161  19.534  0.00  0.00    +0.000 A 
ENDROOT
BRANCH   1  18
ATOM     12  C   UNL     1      -1.726  11.847  19.353  0.00  0.00    +0.000 C 
ATOM     13  C   UNL     1      -0.883  10.809  20.021  0.00  0.00    +0.000 A 
ATOM     14  C   UNL     1      -0.893  10.693  21.411  0.00  0.00    +0.000 A 
ATOM     15  C   UNL     1       0.028   9.870  22.065  0.00  0.00    +0.000 A 
ATOM     16  C   UNL     1      -0.088   9.606  23.535  0.00  0.00    +0.000 C 
ATOM     17  C   UNL     1       1.004   9.212  21.303  0.00  0.00    +0.000 A 
ATOM     18  C   UNL     1       0.984   9.201  19.889  0.00  0.00    +0.000 A 
ATOM     19  C   UNL     1      -0.007   9.995  19.276  0.00  0.00    +0.000 A 
ENDBRANCH   1  18
BRANCH   2  20
ATOM     20  O   UNL     1       1.968   9.958  17.241  0.00  0.00    +0.000 OA
ATOM     21  H   UNL     1       1.627   9.734  16.365  0.00  0.00    +0.000 HD
ENDBRANCH   2  20
BRANCH  11  22
ATOM     22  O   UNL     1       2.214   6.408  20.646  0.00  0.00    +0.000 OA
BRANCH  22  23
ATOM     23  C   UNL     1       0.933   5.775  20.698  0.00  0.00    +0.000 C 
BRANCH  23  24
ATOM     24  C   UNL     1       0.962   4.275  20.424  0.00  0.00    +0.000 C 
BRANCH  24  25
ATOM     25  C   UNL     1       2.060   3.776  19.455  0.00  0.00    +0.000 C 
ATOM     26  C   UNL     1       1.537   3.726  18.003  0.00  0.00    +0.000 C 
ATOM     27  C   UNL     1       2.577   3.141  17.056  0.00  0.00    +0.000 C 
ATOM     28  C   UNL     1       2.934   1.741  17.517  0.00  0.00    +0.000 C 
ATOM     29  C   UNL     1       3.433   1.765  18.958  0.00  0.00    +0.000 C 
ATOM     30  N   UNL     1       2.523   2.435  19.896  0.00  0.00    +0.000 NA
ATOM     31  C   UNL     1       3.127   2.469  21.235  0.00  0.00    +0.000 C 
ENDBRANCH  24  25
ENDBRANCH  23  24
ENDBRANCH  22  23
ENDBRANCH  11  22
TORSDOF 6
ENDMDL
MODEL 7
REMARK VINA RESULT:      -7.9      3.739      7.084
REMARK  Name = 
REMARK  9 active torsions:
REMARK  status: ('A' for Active; 'I' for Inactive)
REMARK    1  A    between atoms: C_1  and  C_2
REMARK    2  A    between atoms: C_4  and  C_5
REMARK    3  A    between atoms: C_7  and  C_8
REMARK    4  A    between atoms: C_9  and  O_10
REMARK    5  A    between atoms: C_19  and  O_20
REMARK    6  A    between atoms: O_20  and  C_21
REMARK    7  A    between atoms: C_21  and  C_22
REMARK    8  A    between atoms: C_22  and  C_23
REMARK    9  A    between atoms: N_28  and  C_29
REMARK                            x       y       z     vdW  Elec       q    Type
REMARK                         _______ _______ _______ _____ _____    ______ ____
ROOT
ATOM      1  C   UNL     1       2.060   8.154  19.080  0.00  0.00    +0.000 A 
ATOM      2  C   UNL     1       2.447   8.628  17.810  0.00  0.00    +0.000 A 
ATOM      3  N   UNL     1       3.325   8.048  16.972  0.00  0.00    +0.000 NA
ATOM      4  C   UNL     1       3.990   6.979  17.398  0.00  0.00    +0.000 A 
ATOM      5  C   UNL     1       4.939   6.457  16.533  0.00  0.00    +0.000 A 
ATOM      6  C   UNL     1       5.736   5.385  16.910  0.00  0.00    +0.000 A 
ATOM      7 CL   UNL     1       6.892   4.748  15.805  0.00  0.00    +0.000 Cl
ATOM      8  C   UNL     1       5.601   4.834  18.175  0.00  0.00    +0.000 A 
ATOM      9  C   UNL     1       4.617   5.332  19.039  0.00  0.00    +0.000 A 
ATOM     10  C   UNL     1       3.766   6.403  18.658  0.00  0.00    +0.000 A 
ATOM     11  C   UNL     1       2.698   6.941  19.453  0.00  0.00    +0.000 A 
ENDROOT
BRANCH   1  18
ATOM     12  C   UNL     1       0.105   9.395  23.590  0.00  0.00    +0.000 C 
ATOM     13  C   UNL     1       0.209   9.634  22.119  0.00  0.00    +0.000 A 
ATOM     14  C   UNL     1      -0.689  10.497  21.489  0.00  0.00    +0.000 A 
ATOM     15  C   UNL     1      -0.736  10.582  20.094  0.00  0.00    +0.000 A 
ATOM     16  C   UNL     1      -1.570  11.627  19.418  0.00  0.00    +0.000 C 
ATOM     17  C   UNL     1       0.091   9.739  19.339  0.00  0.00    +0.000 A 
ATOM     18  C   UNL     1       1.098   8.938  19.925  0.00  0.00    +0.000 A 
ATOM     19  C   UNL     1       1.149   8.937  21.334  0.00  0.00    +0.000 A 
ENDBRANCH   1  18
BRANCH   2  20
ATOM     20  O   UNL     1       1.976   9.795  17.270  0.00  0.00    +0.000 OA
ATOM     21  H   UNL     1       2.437   9.941  16.432  0.00  0.00    +0.000 HD
ENDBRANCH   2  20
BRANCH  11  22
ATOM     22  O   UNL     1       2.405   6.148  20.552  0.00  0.00    +0.000 OA
BRANCH  22  23
ATOM     23  C   UNL     1       1.390   5.148  20.448  0.00  0.00    +0.000 C 
BRANCH  23  24
ATOM     24  C   UNL     1       1.701   3.857  21.198  0.00  0.00    +0.000 C 
BRANCH  24  25
ATOM     25  C   UNL     1       2.219   2.676  20.343  0.00  0.00    +0.000 C 
ATOM     26  C   UNL     1       3.758   2.573  20.416  0.00  0.00    +0.000 C 
ATOM     27  C   UNL     1       4.287   1.478  19.499  0.00  0.00    +0.000 C 
ATOM     28  C   UNL     1       3.865   1.779  18.074  0.00  0.00    +0.000 C 
ATOM     29  C   UNL     1       2.347   1.906  17.982  0.00  0.00    +0.000 C 
ATOM     30  N   UNL     1       1.769   2.860  18.939  0.00  0.00    +0.000 NA
ATOM     31  C   UNL     1       0.304   2.853  18.821  0.00  0.00    +0.000 C 
ENDBRANCH  24  25
ENDBRANCH  23  24
ENDBRANCH  22  23
ENDBRANCH  11  22
TORSDOF 6
ENDMDL
MODEL 8
REMARK VINA RESULT:      -7.7      3.718      7.032
REMARK  Name = 
REMARK  9 active torsions:
REMARK  status: ('A' for Active; 'I' for Inactive)
REMARK    1  A    between atoms: C_1  and  C_2
REMARK    2  A    between atoms: C_4  and  C_5
REMARK    3  A    between atoms: C_7  and  C_8
REMARK    4  A    between atoms: C_9  and  O_10
REMARK    5  A    between atoms: C_19  and  O_20
REMARK    6  A    between atoms: O_20  and  C_21
REMARK    7  A    between atoms: C_21  and  C_22
REMARK    8  A    between atoms: C_22  and  C_23
REMARK    9  A    between atoms: N_28  and  C_29
REMARK                            x       y       z     vdW  Elec       q    Type
REMARK                         _______ _______ _______ _____ _____    ______ ____
ROOT
ATOM      1  C   UNL     1       2.024   8.226  19.081  0.00  0.00    +0.000 A 
ATOM      2  C   UNL     1       2.435   8.685  17.812  0.00  0.00    +0.000 A 
ATOM      3  N   UNL     1       3.309   8.082  16.986  0.00  0.00    +0.000 NA
ATOM      4  C   UNL     1       3.946   7.002  17.425  0.00  0.00    +0.000 A 
ATOM      5  C   UNL     1       4.893   6.454  16.573  0.00  0.00    +0.000 A 
ATOM      6  C   UNL     1       5.663   5.368  16.964  0.00  0.00    +0.000 A 
ATOM      7 CL   UNL     1       6.817   4.700  15.875  0.00  0.00    +0.000 Cl
ATOM      8  C   UNL     1       5.503   4.827  18.231  0.00  0.00    +0.000 A 
ATOM      9  C   UNL     1       4.521   5.350  19.081  0.00  0.00    +0.000 A 
ATOM     10  C   UNL     1       3.698   6.437  18.686  0.00  0.00    +0.000 A 
ATOM     11  C   UNL     1       2.633   7.003  19.467  0.00  0.00    +0.000 A 
ENDROOT
BRANCH   1  18
ATOM     12  C   UNL     1      -1.689  11.653  19.501  0.00  0.00    +0.000 C 
ATOM     13  C   UNL     1      -0.809  10.620  20.127  0.00  0.00    +0.000 A 
ATOM     14  C   UNL     1      -0.765  10.493  21.516  0.00  0.00    +0.000 A 
ATOM     15  C   UNL     1       0.191   9.676  22.127  0.00  0.00    +0.000 A 
ATOM     16  C   UNL     1       0.134   9.398  23.598  0.00  0.00    +0.000 C 
ATOM     17  C   UNL     1       1.144   9.036  21.322  0.00  0.00    +0.000 A 
ATOM     18  C   UNL     1       1.071   9.036  19.911  0.00  0.00    +0.000 A 
ATOM     19  C   UNL     1       0.048   9.822  19.342  0.00  0.00    +0.000 A 
ENDBRANCH   1  18
BRANCH   2  20
ATOM     20  O   UNL     1       1.994   9.859  17.260  0.00  0.00    +0.000 OA
ATOM     21  H   UNL     1       1.032   9.806  17.182  0.00  0.00    +0.000 HD
ENDBRANCH   2  20
BRANCH  11  22
ATOM     22  O   UNL     1       2.311   6.223  20.566  0.00  0.00    +0.000 OA
BRANCH  22  23
ATOM     23  C   UNL     1       1.369   5.157  20.424  0.00  0.00    +0.000 C 
BRANCH  23  24
ATOM     24  C   UNL     1       1.728   3.893  21.197  0.00  0.00    +0.000 C 
BRANCH  24  25
ATOM     25  C   UNL     1       2.226   2.693  20.356  0.00  0.00    +0.000 C 
ATOM     26  C   UNL     1       3.763   2.563  20.432  0.00  0.00    +0.000 C 
ATOM     27  C   UNL     1       4.273   1.449  19.528  0.00  0.00    +0.000 C 
ATOM     28  C   UNL     1       3.857   1.742  18.098  0.00  0.00    +0.000 C 
ATOM     29  C   UNL     1       2.343   1.896  18.004  0.00  0.00    +0.000 C 
ATOM     30  N   UNL     1       1.781   2.870  18.949  0.00  0.00    +0.000 NA
ATOM     31  C   UNL     1       0.316   2.888  18.829  0.00  0.00    +0.000 C 
ENDBRANCH  24  25
ENDBRANCH  23  24
ENDBRANCH  22  23
ENDBRANCH  11  22
TORSDOF 6
ENDMDL
MODEL 9
REMARK VINA RESULT:      -7.5      2.912      4.033
REMARK  Name = 
REMARK  9 active torsions:
REMARK  status: ('A' for Active; 'I' for Inactive)
REMARK    1  A    between atoms: C_1  and  C_2
REMARK    2  A    between atoms: C_4  and  C_5
REMARK    3  A    between atoms: C_7  and  C_8
REMARK    4  A    between atoms: C_9  and  O_10
REMARK    5  A    between atoms: C_19  and  O_20
REMARK    6  A    between atoms: O_20  and  C_21
REMARK    7  A    between atoms: C_21  and  C_22
REMARK    8  A    between atoms: C_22  and  C_23
REMARK    9  A    between atoms: N_28  and  C_29
REMARK                            x       y       z     vdW  Elec       q    Type
REMARK                         _______ _______ _______ _____ _____    ______ ____
ROOT
ATOM      1  C   UNL     1      -0.327  11.257  21.984  0.00  0.00    +0.000 A 
ATOM      2  C   UNL     1      -0.012  10.004  22.549  0.00  0.00    +0.000 A 
ATOM      3  N   UNL     1       0.695   9.018  21.968  0.00  0.00    +0.000 NA
ATOM      4  C   UNL     1       1.055   9.167  20.697  0.00  0.00    +0.000 A 
ATOM      5  C   UNL     1       1.716   8.098  20.113  0.00  0.00    +0.000 A 
ATOM      6  C   UNL     1       2.073   8.124  18.773  0.00  0.00    +0.000 A 
ATOM      7 CL   UNL     1       2.910   6.788  18.083  0.00  0.00    +0.000 Cl
ATOM      8  C   UNL     1       1.750   9.224  17.993  0.00  0.00    +0.000 A 
ATOM      9  C   UNL     1       1.117  10.324  18.586  0.00  0.00    +0.000 A 
ATOM     10  C   UNL     1       0.778  10.332  19.964  0.00  0.00    +0.000 A 
ATOM     11  C   UNL     1       0.179  11.431  20.669  0.00  0.00    +0.000 A 
ENDROOT
BRANCH   1  18
ATOM     12  C   UNL     1      -0.891  15.682  24.395  0.00  0.00    +0.000 C 
ATOM     13  C   UNL     1      -1.491  14.438  23.823  0.00  0.00    +0.000 A 
ATOM     14  C   UNL     1      -2.817  14.110  24.107  0.00  0.00    +0.000 A 
ATOM     15  C   UNL     1      -3.336  12.862  23.750  0.00  0.00    +0.000 A 
ATOM     16  C   UNL     1      -4.798  12.570  23.893  0.00  0.00    +0.000 C 
ATOM     17  C   UNL     1      -2.481  11.922  23.157  0.00  0.00    +0.000 A 
ATOM     18  C   UNL     1      -1.169  12.243  22.741  0.00  0.00    +0.000 A 
ATOM     19  C   UNL     1      -0.714  13.537  23.066  0.00  0.00    +0.000 A 
ENDBRANCH   1  18
BRANCH   2  20
ATOM     20  O   UNL     1      -0.427   9.618  23.796  0.00  0.00    +0.000 OA
ATOM     21  H   UNL     1      -0.006  10.200  24.442  0.00  0.00    +0.000 HD
ENDBRANCH   2  20
BRANCH  11  22
ATOM     22  O   UNL     1       0.181  12.600  19.924  0.00  0.00    +0.000 OA
BRANCH  22  23
ATOM     23  C   UNL     1       1.215  13.565  20.129  0.00  0.00    +0.000 C 
BRANCH  23  24
ATOM     24  C   UNL     1       1.576  14.373  18.887  0.00  0.00    +0.000 C 
BRANCH  24  25
ATOM     25  C   UNL     1       1.095  15.844  18.863  0.00  0.00    +0.000 C 
ATOM     26  C   UNL     1      -0.421  15.926  18.583  0.00  0.00    +0.000 C 
ATOM     27  C   UNL     1      -0.886  17.371  18.457  0.00  0.00    +0.000 C 
ATOM     28  C   UNL     1      -0.124  18.040  17.329  0.00  0.00    +0.000 C 
ATOM     29  C   UNL     1       1.379  17.951  17.574  0.00  0.00    +0.000 C 
ATOM     30  N   UNL     1       1.864  16.588  17.831  0.00  0.00    +0.000 NA
ATOM     31  C   UNL     1       3.303  16.621  18.128  0.00  0.00    +0.000 C 
ENDBRANCH  24  25
ENDBRANCH  23  24
ENDBRANCH  22  23
ENDBRANCH  11  22
TORSDOF 6
ENDMDL
