MODEL 1
REMARK VINA RESULT:      -8.7      0.000      0.000
REMARK  Name = 
REMARK  7 active torsions:
REMARK  status: ('A' for Active; 'I' for Inactive)
REMARK    1  A    between atoms: C_1  and  C_2
REMARK    2  A    between atoms: N_4  and  C_5
REMARK    3  A    between atoms: C_6  and  C_7
REMARK    4  A    between atoms: C_8  and  C_9
REMARK    5  A    between atoms: C_12  and  N_13
REMARK    6  A    between atoms: N_16  and  C_17
REMARK    7  A    between atoms: C_17  and  C_18
REMARK                            x       y       z     vdW  Elec       q    Type
REMARK                         _______ _______ _______ _____ _____    ______ ____
ROOT
ATOM      1  C   UNL     1       1.790   7.401  20.244  0.00  0.00    +0.000 A 
ATOM      2  N   UNL     1       2.709   6.893  19.441  0.00  0.00    +0.000 NA
ATOM      3  C   UNL     1       2.851   5.552  19.806  0.00  0.00    +0.000 A 
ATOM      4  C   UNL     1       3.711   4.510  19.329  0.00  0.00    +0.000 A 
ATOM      5  C   UNL     1       3.475   3.260  19.979  0.00  0.00    +0.000 A 
ATOM      6 BR   UNL     1       4.524   1.686  19.724  0.00  0.00    +0.000 Br
ATOM      7  C   UNL     1       2.484   3.127  20.963  0.00  0.00    +0.000 A 
ATOM      8  N   UNL     1       1.685   4.109  21.430  0.00  0.00    +0.000 NA
ATOM      9  C   UNL     1       1.939   5.268  20.812  0.00  0.00    +0.000 A 
ATOM     10  N   UNL     1       1.319   6.440  21.094  0.00  0.00    +0.000 N 
ATOM     11  H   UNL     1       0.619   6.549  21.805  0.00  0.00    +0.000 HD
ENDROOT
BRANCH   1  19
ATOM     12  C   UNL     1       0.878   9.223  22.796  0.00  0.00    +0.000 C 
ATOM     13  C   UNL     1       0.902   9.595  21.359  0.00  0.00    +0.000 A 
ATOM     14  N   UNL     1       0.525  10.829  20.988  0.00  0.00    +0.000 NA
ATOM     15  N   UNL     1       0.692  10.835  19.654  0.00  0.00    +0.000 N 
ATOM     16  C   UNL     1       0.345  12.028  18.914  0.00  0.00    +0.000 C 
ATOM     17  C   UNL     1       1.193   9.659  19.150  0.00  0.00    +0.000 A 
ATOM     18  C   UNL     1       1.477   9.464  17.703  0.00  0.00    +0.000 C 
ATOM     19  C   UNL     1       1.315   8.819  20.248  0.00  0.00    +0.000 A 
ENDBRANCH   1  19
BRANCH   4  20
ATOM     20  N   UNL     1       4.663   4.727  18.340  0.00  0.00    +0.000 N 
ATOM     21  C   UNL     1       4.384   4.630  16.901  0.00  0.00    +0.000 C 
ATOM     22  C   UNL     1       5.037   5.788  16.102  0.00  0.00    +0.000 C 
ATOM     23  N   UNL     1       6.464   6.063  16.400  0.00  0.00    +0.000 NA
ATOM     24  C   UNL     1       6.578   6.235  17.872  0.00  0.00    +0.000 C 
ATOM     25  C   UNL     1       6.056   5.042  18.703  0.00  0.00    +0.000 C 
BRANCH  23  26
ATOM     26  C   UNL     1       7.312   4.978  15.874  0.00  0.00    +0.000 C 
BRANCH  26  27
ATOM     27  C   UNL     1       7.111   4.679  14.412  0.00  0.00    +0.000 A 
ATOM     28  C   UNL     1       6.230   3.688  13.973  0.00  0.00    +0.000 A 
ATOM     29  C   UNL     1       6.113   3.423  12.611  0.00  0.00    +0.000 A 
ATOM     30  C   UNL     1       6.882   4.163  11.728  0.00  0.00    +0.000 A 
ATOM     31  N   UNL     1       7.739   5.134  12.111  0.00  0.00    +0.000 NA
ATOM     32  C   UNL     1       7.832   5.368  13.438  0.00  0.00    +0.000 A 
ENDBRANCH  26  27
ENDBRANCH  23  26
ENDBRANCH   4  20
TORSDOF 4
ENDMDL
MODEL 2
REMARK VINA RESULT:      -8.7      0.465      1.538
REMARK  Name = 
REMARK  7 active torsions:
REMARK  status: ('A' for Active; 'I' for Inactive)
REMARK    1  A    between atoms: C_1  and  C_2
REMARK    2  A    between atoms: N_4  and  C_5
REMARK    3  A    between atoms: C_6  and  C_7
REMARK    4  A    between atoms: C_8  and  C_9
REMARK    5  A    between atoms: C_12  and  N_13
REMARK    6  A    between atoms: N_16  and  C_17
REMARK    7  A    between atoms: C_17  and  C_18
REMARK                            x       y       z     vdW  Elec       q    Type
REMARK                         _______ _______ _______ _____ _____    ______ ____
ROOT
ATOM      1  C   UNL     1       1.770   7.450  20.233  0.00  0.00    +0.000 A 
ATOM      2  N   UNL     1       2.689   6.935  19.435  0.00  0.00    +0.000 NA
ATOM      3  C   UNL     1       2.836   5.599  19.816  0.00  0.00    +0.000 A 
ATOM      4  C   UNL     1       3.699   4.554  19.350  0.00  0.00    +0.000 A 
ATOM      5  C   UNL     1       3.469   3.312  20.016  0.00  0.00    +0.000 A 
ATOM      6 BR   UNL     1       4.523   1.738  19.777  0.00  0.00    +0.000 Br
ATOM      7  C   UNL     1       2.481   3.187  21.004  0.00  0.00    +0.000 A 
ATOM      8  N   UNL     1       1.680   4.172  21.461  0.00  0.00    +0.000 NA
ATOM      9  C   UNL     1       1.928   5.324  20.828  0.00  0.00    +0.000 A 
ATOM     10  N   UNL     1       1.304   6.498  21.097  0.00  0.00    +0.000 N 
ATOM     11  H   UNL     1       0.606   6.613  21.808  0.00  0.00    +0.000 HD
ENDROOT
BRANCH   1  19
ATOM     12  C   UNL     1       1.508   9.479  17.688  0.00  0.00    +0.000 C 
ATOM     13  C   UNL     1       1.198   9.745  19.115  0.00  0.00    +0.000 A 
ATOM     14  N   UNL     1       0.734  10.951  19.479  0.00  0.00    +0.000 NA
ATOM     15  N   UNL     1       0.537  10.840  20.804  0.00  0.00    +0.000 N 
ATOM     16  C   UNL     1       0.058  11.992  21.535  0.00  0.00    +0.000 C 
ATOM     17  C   UNL     1       0.828   9.596  21.309  0.00  0.00    +0.000 A 
ATOM     18  C   UNL     1       0.655   9.253  22.745  0.00  0.00    +0.000 C 
ATOM     19  C   UNL     1       1.289   8.866  20.222  0.00  0.00    +0.000 A 
ENDBRANCH   1  19
BRANCH   4  20
ATOM     20  N   UNL     1       4.648   4.762  18.356  0.00  0.00    +0.000 N 
ATOM     21  C   UNL     1       4.366   4.642  16.919  0.00  0.00    +0.000 C 
ATOM     22  C   UNL     1       5.010   5.792  16.101  0.00  0.00    +0.000 C 
ATOM     23  N   UNL     1       6.436   6.080  16.392  0.00  0.00    +0.000 NA
ATOM     24  C   UNL     1       6.552   6.275  17.862  0.00  0.00    +0.000 C 
ATOM     25  C   UNL     1       6.039   5.091  18.711  0.00  0.00    +0.000 C 
BRANCH  23  26
ATOM     26  C   UNL     1       7.290   4.993  15.881  0.00  0.00    +0.000 C 
BRANCH  26  27
ATOM     27  C   UNL     1       7.106   4.688  14.417  0.00  0.00    +0.000 A 
ATOM     28  C   UNL     1       6.255   3.674  13.973  0.00  0.00    +0.000 A 
ATOM     29  C   UNL     1       6.153   3.404  12.611  0.00  0.00    +0.000 A 
ATOM     30  C   UNL     1       6.907   4.165  11.733  0.00  0.00    +0.000 A 
ATOM     31  N   UNL     1       7.735   5.159  12.120  0.00  0.00    +0.000 NA
ATOM     32  C   UNL     1       7.814   5.395  13.448  0.00  0.00    +0.000 A 
ENDBRANCH  26  27
ENDBRANCH  23  26
ENDBRANCH   4  20
TORSDOF 4
ENDMDL
MODEL 3
REMARK VINA RESULT:      -7.9      0.758      1.872
REMARK  Name = 
REMARK  7 active torsions:
REMARK  status: ('A' for Active; 'I' for Inactive)
REMARK    1  A    between atoms: C_1  and  C_2
REMARK    2  A    between atoms: N_4  and  C_5
REMARK    3  A    between atoms: C_6  and  C_7
REMARK    4  A    between atoms: C_8  and  C_9
REMARK    5  A    between atoms: C_12  and  N_13
REMARK    6  A    between atoms: N_16  and  C_17
REMARK    7  A    between atoms: C_17  and  C_18
REMARK                            x       y       z     vdW  Elec       q    Type
REMARK                         _______ _______ _______ _____ _____    ______ ____
ROOT
ATOM      1  C   UNL     1       1.787   7.406  20.229  0.00  0.00    +0.000 A 
ATOM      2  N   UNL     1       2.690   6.862  19.431  0.00  0.00    +0.000 NA
ATOM      3  C   UNL     1       2.835   5.536  19.848  0.00  0.00    +0.000 A 
ATOM      4  C   UNL     1       3.684   4.473  19.398  0.00  0.00    +0.000 A 
ATOM      5  C   UNL     1       3.456   3.252  20.103  0.00  0.00    +0.000 A 
ATOM      6 BR   UNL     1       4.497   1.664  19.893  0.00  0.00    +0.000 Br
ATOM      7  C   UNL     1       2.484   3.162  21.111  0.00  0.00    +0.000 A 
ATOM      8  N   UNL     1       1.696   4.165  21.552  0.00  0.00    +0.000 NA
ATOM      9  C   UNL     1       1.942   5.297  20.882  0.00  0.00    +0.000 A 
ATOM     10  N   UNL     1       1.330   6.482  21.127  0.00  0.00    +0.000 N 
ATOM     11  H   UNL     1       0.644   6.622  21.846  0.00  0.00    +0.000 HD
ENDROOT
BRANCH   1  19
ATOM     12  C   UNL     1       1.649   9.414  17.658  0.00  0.00    +0.000 C 
ATOM     13  C   UNL     1       1.278   9.694  19.068  0.00  0.00    +0.000 A 
ATOM     14  N   UNL     1       0.806  10.906  19.401  0.00  0.00    +0.000 NA
ATOM     15  N   UNL     1       0.550  10.808  20.717  0.00  0.00    +0.000 N 
ATOM     16  C   UNL     1       0.045  11.968  21.417  0.00  0.00    +0.000 C 
ATOM     17  C   UNL     1       0.812   9.566  21.244  0.00  0.00    +0.000 A 
ATOM     18  C   UNL     1       0.574   9.237  22.675  0.00  0.00    +0.000 C 
ATOM     19  C   UNL     1       1.316   8.824  20.185  0.00  0.00    +0.000 A 
ENDBRANCH   1  19
BRANCH   4  20
ATOM     20  N   UNL     1       4.617   4.646  18.383  0.00  0.00    +0.000 N 
ATOM     21  C   UNL     1       5.815   5.487  18.510  0.00  0.00    +0.000 C 
ATOM     22  C   UNL     1       7.072   4.804  17.910  0.00  0.00    +0.000 C 
ATOM     23  N   UNL     1       6.912   4.219  16.555  0.00  0.00    +0.000 NA
ATOM     24  C   UNL     1       5.728   3.321  16.604  0.00  0.00    +0.000 C 
ATOM     25  C   UNL     1       4.423   4.000  17.073  0.00  0.00    +0.000 C 
BRANCH  23  26
ATOM     26  C   UNL     1       6.789   5.290  15.549  0.00  0.00    +0.000 C 
BRANCH  26  27
ATOM     27  C   UNL     1       6.785   4.809  14.122  0.00  0.00    +0.000 A 
ATOM     28  C   UNL     1       5.870   3.859  13.663  0.00  0.00    +0.000 A 
ATOM     29  C   UNL     1       5.937   3.417  12.344  0.00  0.00    +0.000 A 
ATOM     30  C   UNL     1       6.919   3.946  11.523  0.00  0.00    +0.000 A 
ATOM     31  N   UNL     1       7.816   4.871  11.924  0.00  0.00    +0.000 NA
ATOM     32  C   UNL     1       7.728   5.279  13.209  0.00  0.00    +0.000 A 
ENDBRANCH  26  27
ENDBRANCH  23  26
ENDBRANCH   4  20
TORSDOF 4
ENDMDL
MODEL 4
REMARK VINA RESULT:      -7.9      0.610      1.075
REMARK  Name = 
REMARK  7 active torsions:
REMARK  status: ('A' for Active; 'I' for Inactive)
REMARK    1  A    between atoms: C_1  and  C_2
REMARK    2  A    between atoms: N_4  and  C_5
REMARK    3  A    between atoms: C_6  and  C_7
REMARK    4  A    between atoms: C_8  and  C_9
REMARK    5  A    between atoms: C_12  and  N_13
REMARK    6  A    between atoms: N_16  and  C_17
REMARK    7  A    between atoms: C_17  and  C_18
REMARK                            x       y       z     vdW  Elec       q    Type
REMARK                         _______ _______ _______ _____ _____    ______ ____
ROOT
ATOM      1  C   UNL     1       1.769   7.403  20.250  0.00  0.00    +0.000 A 
ATOM      2  N   UNL     1       2.666   6.865  19.442  0.00  0.00    +0.000 NA
ATOM      3  C   UNL     1       2.809   5.535  19.844  0.00  0.00    +0.000 A 
ATOM      4  C   UNL     1       3.652   4.474  19.378  0.00  0.00    +0.000 A 
ATOM      5  C   UNL     1       3.425   3.246  20.071  0.00  0.00    +0.000 A 
ATOM      6 BR   UNL     1       4.459   1.658  19.839  0.00  0.00    +0.000 Br
ATOM      7  C   UNL     1       2.457   3.148  21.083  0.00  0.00    +0.000 A 
ATOM      8  N   UNL     1       1.675   4.148  21.538  0.00  0.00    +0.000 NA
ATOM      9  C   UNL     1       1.921   5.287  20.880  0.00  0.00    +0.000 A 
ATOM     10  N   UNL     1       1.313   6.471  21.140  0.00  0.00    +0.000 N 
ATOM     11  H   UNL     1       0.631   6.606  21.864  0.00  0.00    +0.000 HD
ENDROOT
BRANCH   1  19
ATOM     12  C   UNL     1       0.764   9.252  22.747  0.00  0.00    +0.000 C 
ATOM     13  C   UNL     1       0.849   9.611  21.310  0.00  0.00    +0.000 A 
ATOM     14  N   UNL     1       0.494  10.843  20.913  0.00  0.00    +0.000 NA
ATOM     15  N   UNL     1       0.715  10.837  19.587  0.00  0.00    +0.000 N 
ATOM     16  C   UNL     1       0.404  12.025  18.823  0.00  0.00    +0.000 C 
ATOM     17  C   UNL     1       1.229   9.654  19.113  0.00  0.00    +0.000 A 
ATOM     18  C   UNL     1       1.570   9.444  17.682  0.00  0.00    +0.000 C 
ATOM     19  C   UNL     1       1.301   8.824  20.223  0.00  0.00    +0.000 A 
ENDBRANCH   1  19
BRANCH   4  20
ATOM     20  N   UNL     1       4.581   4.655  18.361  0.00  0.00    +0.000 N 
ATOM     21  C   UNL     1       5.750   5.538  18.469  0.00  0.00    +0.000 C 
ATOM     22  C   UNL     1       7.030   4.884  17.886  0.00  0.00    +0.000 C 
ATOM     23  N   UNL     1       6.892   4.264  16.545  0.00  0.00    +0.000 NA
ATOM     24  C   UNL     1       5.739   3.328  16.613  0.00  0.00    +0.000 C 
ATOM     25  C   UNL     1       4.411   3.973  17.066  0.00  0.00    +0.000 C 
BRANCH  23  26
ATOM     26  C   UNL     1       6.735   5.306  15.515  0.00  0.00    +0.000 C 
BRANCH  26  27
ATOM     27  C   UNL     1       6.719   4.790  14.100  0.00  0.00    +0.000 A 
ATOM     28  C   UNL     1       5.747   3.893  13.650  0.00  0.00    +0.000 A 
ATOM     29  C   UNL     1       5.802   3.413  12.344  0.00  0.00    +0.000 A 
ATOM     30  C   UNL     1       6.830   3.851  11.526  0.00  0.00    +0.000 A 
ATOM     31  N   UNL     1       7.784   4.722  11.919  0.00  0.00    +0.000 NA
ATOM     32  C   UNL     1       7.705   5.169  13.192  0.00  0.00    +0.000 A 
ENDBRANCH  26  27
ENDBRANCH  23  26
ENDBRANCH   4  20
TORSDOF 4
ENDMDL
MODEL 5
REMARK VINA RESULT:      -7.5      4.233      8.879
REMARK  Name = 
REMARK  7 active torsions:
REMARK  status: ('A' for Active; 'I' for Inactive)
REMARK    1  A    between atoms: C_1  and  C_2
REMARK    2  A    between atoms: N_4  and  C_5
REMARK    3  A    between atoms: C_6  and  C_7
REMARK    4  A    between atoms: C_8  and  C_9
REMARK    5  A    between atoms: C_12  and  N_13
REMARK    6  A    between atoms: N_16  and  C_17
REMARK    7  A    between atoms: C_17  and  C_18
REMARK                            x       y       z     vdW  Elec       q    Type
REMARK                         _______ _______ _______ _____ _____    ______ ____
ROOT
ATOM      1  C   UNL     1       1.590   7.930  20.271  0.00  0.00    +0.000 A 
ATOM      2  N   UNL     1       1.652   9.224  20.006  0.00  0.00    +0.000 NA
ATOM      3  C   UNL     1       0.807   9.854  20.923  0.00  0.00    +0.000 A 
ATOM      4  C   UNL     1       0.437  11.226  21.105  0.00  0.00    +0.000 A 
ATOM      5  C   UNL     1      -0.440  11.416  22.217  0.00  0.00    +0.000 A 
ATOM      6 BR   UNL     1      -1.268  13.074  22.678  0.00  0.00    +0.000 Br
ATOM      7  C   UNL     1      -0.849  10.337  23.015  0.00  0.00    +0.000 A 
ATOM      8  N   UNL     1      -0.520   9.041  22.835  0.00  0.00    +0.000 NA
ATOM      9  C   UNL     1       0.289   8.894  21.780  0.00  0.00    +0.000 A 
ATOM     10  N   UNL     1       0.759   7.704  21.332  0.00  0.00    +0.000 N 
ATOM     11  H   UNL     1       0.529   6.818  21.745  0.00  0.00    +0.000 HD
ENDROOT
BRANCH   1  19
ATOM     12  C   UNL     1       3.188   8.130  17.430  0.00  0.00    +0.000 C 
ATOM     13  C   UNL     1       2.983   6.938  18.291  0.00  0.00    +0.000 A 
ATOM     14  N   UNL     1       3.504   5.758  17.923  0.00  0.00    +0.000 NA
ATOM     15  N   UNL     1       3.161   4.923  18.920  0.00  0.00    +0.000 N 
ATOM     16  C   UNL     1       3.548   3.533  18.828  0.00  0.00    +0.000 C 
ATOM     17  C   UNL     1       2.462   5.527  19.936  0.00  0.00    +0.000 A 
ATOM     18  C   UNL     1       2.009   4.790  21.146  0.00  0.00    +0.000 C 
ATOM     19  C   UNL     1       2.309   6.846  19.534  0.00  0.00    +0.000 A 
ENDBRANCH   1  19
BRANCH   4  20
ATOM     20  N   UNL     1       0.898  12.237  20.271  0.00  0.00    +0.000 N 
ATOM     21  C   UNL     1       0.249  12.614  19.008  0.00  0.00    +0.000 C 
ATOM     22  C   UNL     1       0.166  14.153  18.833  0.00  0.00    +0.000 C 
ATOM     23  N   UNL     1       1.416  14.908  19.092  0.00  0.00    +0.000 NA
ATOM     24  C   UNL     1       1.902  14.501  20.437  0.00  0.00    +0.000 C 
ATOM     25  C   UNL     1       2.123  12.982  20.609  0.00  0.00    +0.000 C 
BRANCH  23  26
ATOM     26  C   UNL     1       2.396  14.656  18.020  0.00  0.00    +0.000 C 
BRANCH  26  27
ATOM     27  C   UNL     1       3.740  15.301  18.235  0.00  0.00    +0.000 A 
ATOM     28  C   UNL     1       4.934  14.589  18.099  0.00  0.00    +0.000 A 
ATOM     29  C   UNL     1       6.148  15.222  18.351  0.00  0.00    +0.000 A 
ATOM     30  C   UNL     1       6.128  16.555  18.730  0.00  0.00    +0.000 A 
ATOM     31  N   UNL     1       4.998  17.280  18.865  0.00  0.00    +0.000 NA
ATOM     32  C   UNL     1       3.835  16.638  18.615  0.00  0.00    +0.000 A 
ENDBRANCH  26  27
ENDBRANCH  23  26
ENDBRANCH   4  20
TORSDOF 4
ENDMDL
MODEL 6
REMARK VINA RESULT:      -7.4      3.984      8.651
REMARK  Name = 
REMARK  7 active torsions:
REMARK  status: ('A' for Active; 'I' for Inactive)
REMARK    1  A    between atoms: C_1  and  C_2
REMARK    2  A    between atoms: N_4  and  C_5
REMARK    3  A    between atoms: C_6  and  C_7
REMARK    4  A    between atoms: C_8  and  C_9
REMARK    5  A    between atoms: C_12  and  N_13
REMARK    6  A    between atoms: N_16  and  C_17
REMARK    7  A    between atoms: C_17  and  C_18
REMARK                            x       y       z     vdW  Elec       q    Type
REMARK                         _______ _______ _______ _____ _____    ______ ____
ROOT
ATOM      1  C   UNL     1       1.640   7.736  20.261  0.00  0.00    +0.000 A 
ATOM      2  N   UNL     1       1.686   9.024  19.964  0.00  0.00    +0.000 NA
ATOM      3  C   UNL     1       0.845   9.667  20.875  0.00  0.00    +0.000 A 
ATOM      4  C   UNL     1       0.464  11.040  21.030  0.00  0.00    +0.000 A 
ATOM      5  C   UNL     1      -0.402  11.248  22.146  0.00  0.00    +0.000 A 
ATOM      6 BR   UNL     1      -1.240  12.909  22.577  0.00  0.00    +0.000 Br
ATOM      7  C   UNL     1      -0.792  10.185  22.974  0.00  0.00    +0.000 A 
ATOM      8  N   UNL     1      -0.452   8.888  22.822  0.00  0.00    +0.000 NA
ATOM      9  C   UNL     1       0.346   8.724  21.761  0.00  0.00    +0.000 A 
ATOM     10  N   UNL     1       0.823   7.527  21.336  0.00  0.00    +0.000 N 
ATOM     11  H   UNL     1       0.606   6.650  21.773  0.00  0.00    +0.000 HD
ENDROOT
BRANCH   1  19
ATOM     12  C   UNL     1       1.852   4.579  21.067  0.00  0.00    +0.000 C 
ATOM     13  C   UNL     1       2.464   5.278  19.910  0.00  0.00    +0.000 A 
ATOM     14  N   UNL     1       3.205   4.583  19.032  0.00  0.00    +0.000 NA
ATOM     15  N   UNL     1       3.572   5.497  18.117  0.00  0.00    +0.000 N 
ATOM     16  C   UNL     1       4.420   5.084  17.021  0.00  0.00    +0.000 C 
ATOM     17  C   UNL     1       3.072   6.755  18.354  0.00  0.00    +0.000 A 
ATOM     18  C   UNL     1       3.336   7.906  17.450  0.00  0.00    +0.000 C 
ATOM     19  C   UNL     1       2.361   6.642  19.541  0.00  0.00    +0.000 A 
ENDBRANCH   1  19
BRANCH   4  20
ATOM     20  N   UNL     1       0.906  12.035  20.166  0.00  0.00    +0.000 N 
ATOM     21  C   UNL     1       0.276  12.336  18.874  0.00  0.00    +0.000 C 
ATOM     22  C   UNL     1       0.137  13.862  18.635  0.00  0.00    +0.000 C 
ATOM     23  N   UNL     1       1.350  14.676  18.894  0.00  0.00    +0.000 NA
ATOM     24  C   UNL     1       1.817  14.342  20.265  0.00  0.00    +0.000 C 
ATOM     25  C   UNL     1       2.093  12.841  20.503  0.00  0.00    +0.000 C 
BRANCH  23  26
ATOM     26  C   UNL     1       2.365  14.421  17.856  0.00  0.00    +0.000 C 
BRANCH  26  27
ATOM     27  C   UNL     1       3.678  15.127  18.077  0.00  0.00    +0.000 A 
ATOM     28  C   UNL     1       4.898  14.448  18.043  0.00  0.00    +0.000 A 
ATOM     29  C   UNL     1       6.080  15.139  18.297  0.00  0.00    +0.000 A 
ATOM     30  C   UNL     1       6.002  16.495  18.574  0.00  0.00    +0.000 A 
ATOM     31  N   UNL     1       4.845  17.189  18.609  0.00  0.00    +0.000 NA
ATOM     32  C   UNL     1       3.715  16.491  18.361  0.00  0.00    +0.000 A 
ENDBRANCH  26  27
ENDBRANCH  23  26
ENDBRANCH   4  20
TORSDOF 4
ENDMDL
MODEL 7
REMARK VINA RESULT:      -7.3      4.243      9.735
REMARK  Name = 
REMARK  7 active torsions:
REMARK  status: ('A' for Active; 'I' for Inactive)
REMARK    1  A    between atoms: C_1  and  C_2
REMARK    2  A    between atoms: N_4  and  C_5
REMARK    3  A    between atoms: C_6  and  C_7
REMARK    4  A    between atoms: C_8  and  C_9
REMARK    5  A    between atoms: C_12  and  N_13
REMARK    6  A    between atoms: N_16  and  C_17
REMARK    7  A    between atoms: C_17  and  C_18
REMARK                            x       y       z     vdW  Elec       q    Type
REMARK                         _______ _______ _______ _____ _____    ______ ____
ROOT
ATOM      1  C   UNL     1       1.372   8.375  20.337  0.00  0.00    +0.000 A 
ATOM      2  N   UNL     1       1.433   9.689  20.210  0.00  0.00    +0.000 NA
ATOM      3  C   UNL     1       0.560  10.217  21.165  0.00  0.00    +0.000 A 
ATOM      4  C   UNL     1       0.176  11.561  21.481  0.00  0.00    +0.000 A 
ATOM      5  C   UNL     1      -0.730  11.630  22.582  0.00  0.00    +0.000 A 
ATOM      6 BR   UNL     1      -1.581  13.227  23.193  0.00  0.00    +0.000 Br
ATOM      7  C   UNL     1      -1.154  10.471  23.251  0.00  0.00    +0.000 A 
ATOM      8  N   UNL     1      -0.812   9.203  22.945  0.00  0.00    +0.000 NA
ATOM      9  C   UNL     1       0.026   9.170  21.902  0.00  0.00    +0.000 A 
ATOM     10  N   UNL     1       0.515   8.035  21.345  0.00  0.00    +0.000 N 
ATOM     11  H   UNL     1       0.280   7.110  21.657  0.00  0.00    +0.000 HD
ENDROOT
BRANCH   1  19
ATOM     12  C   UNL     1       2.807   8.817  17.437  0.00  0.00    +0.000 C 
ATOM     13  C   UNL     1       2.720   7.574  18.242  0.00  0.00    +0.000 A 
ATOM     14  N   UNL     1       3.293   6.448  17.788  0.00  0.00    +0.000 NA
ATOM     15  N   UNL     1       3.054   5.545  18.754  0.00  0.00    +0.000 N 
ATOM     16  C   UNL     1       3.520   4.188  18.571  0.00  0.00    +0.000 C 
ATOM     17  C   UNL     1       2.372   6.052  19.834  0.00  0.00    +0.000 A 
ATOM     18  C   UNL     1       2.028   5.228  21.023  0.00  0.00    +0.000 C 
ATOM     19  C   UNL     1       2.118   7.377  19.509  0.00  0.00    +0.000 A 
ENDBRANCH   1  19
BRANCH   4  20
ATOM     20  N   UNL     1       0.653  12.656  20.770  0.00  0.00    +0.000 N 
ATOM     21  C   UNL     1       2.045  13.121  20.824  0.00  0.00    +0.000 C 
ATOM     22  C   UNL     1       2.589  13.492  19.419  0.00  0.00    +0.000 C 
ATOM     23  N   UNL     1       1.717  14.360  18.590  0.00  0.00    +0.000 NA
ATOM     24  C   UNL     1       0.377  13.718  18.545  0.00  0.00    +0.000 C 
ATOM     25  C   UNL     1      -0.257  13.451  19.927  0.00  0.00    +0.000 C 
BRANCH  23  26
ATOM     26  C   UNL     1       1.687  15.727  19.140  0.00  0.00    +0.000 C 
BRANCH  26  27
ATOM     27  C   UNL     1       1.023  16.746  18.251  0.00  0.00    +0.000 A 
ATOM     28  C   UNL     1       1.741  17.491  17.313  0.00  0.00    +0.000 A 
ATOM     29  C   UNL     1       1.086  18.450  16.546  0.00  0.00    +0.000 A 
ATOM     30  C   UNL     1      -0.274  18.631  16.740  0.00  0.00    +0.000 A 
ATOM     31  N   UNL     1      -1.006  17.927  17.629  0.00  0.00    +0.000 NA
ATOM     32  C   UNL     1      -0.342  17.004  18.360  0.00  0.00    +0.000 A 
ENDBRANCH  26  27
ENDBRANCH  23  26
ENDBRANCH   4  20
TORSDOF 4
ENDMDL
MODEL 8
REMARK VINA RESULT:      -6.9      4.378      7.889
REMARK  Name = 
REMARK  7 active torsions:
REMARK  status: ('A' for Active; 'I' for Inactive)
REMARK    1  A    between atoms: C_1  and  C_2
REMARK    2  A    between atoms: N_4  and  C_5
REMARK    3  A    between atoms: C_6  and  C_7
REMARK    4  A    between atoms: C_8  and  C_9
REMARK    5  A    between atoms: C_12  and  N_13
REMARK    6  A    between atoms: N_16  and  C_17
REMARK    7  A    between atoms: C_17  and  C_18
REMARK                            x       y       z     vdW  Elec       q    Type
REMARK                         _______ _______ _______ _____ _____    ______ ____
ROOT
ATOM      1  C   UNL     1      -2.777  13.097  20.354  0.00  0.00    +0.000 A 
ATOM      2  N   UNL     1      -1.766  12.265  20.168  0.00  0.00    +0.000 NA
ATOM      3  C   UNL     1      -0.668  13.054  19.815  0.00  0.00    +0.000 A 
ATOM      4  C   UNL     1       0.680  12.723  19.460  0.00  0.00    +0.000 A 
ATOM      5  C   UNL     1       1.483  13.878  19.210  0.00  0.00    +0.000 A 
ATOM      6 BR   UNL     1       3.279  13.835  18.564  0.00  0.00    +0.000 Br
ATOM      7  C   UNL     1       0.954  15.172  19.329  0.00  0.00    +0.000 A 
ATOM      8  N   UNL     1      -0.319  15.489  19.643  0.00  0.00    +0.000 NA
ATOM      9  C   UNL     1      -1.048  14.387  19.857  0.00  0.00    +0.000 A 
ATOM     10  N   UNL     1      -2.371  14.388  20.156  0.00  0.00    +0.000 N 
ATOM     11  H   UNL     1      -2.929  15.218  20.231  0.00  0.00    +0.000 HD
ENDROOT
BRANCH   1  19
ATOM     12  C   UNL     1      -4.176  13.142  23.304  0.00  0.00    +0.000 C 
ATOM     13  C   UNL     1      -4.766  12.718  22.010  0.00  0.00    +0.000 A 
ATOM     14  N   UNL     1      -6.040  12.298  21.969  0.00  0.00    +0.000 NA
ATOM     15  N   UNL     1      -6.254  12.025  20.670  0.00  0.00    +0.000 N 
ATOM     16  C   UNL     1      -7.545  11.513  20.269  0.00  0.00    +0.000 C 
ATOM     17  C   UNL     1      -5.173  12.283  19.862  0.00  0.00    +0.000 A 
ATOM     18  C   UNL     1      -5.206  12.076  18.390  0.00  0.00    +0.000 C 
ATOM     19  C   UNL     1      -4.174  12.714  20.723  0.00  0.00    +0.000 A 
ENDBRANCH   1  19
BRANCH   4  20
ATOM     20  N   UNL     1       1.125  11.409  19.375  0.00  0.00    +0.000 N 
ATOM     21  C   UNL     1       1.281  10.522  20.536  0.00  0.00    +0.000 C 
ATOM     22  C   UNL     1       0.747   9.094  20.253  0.00  0.00    +0.000 C 
ATOM     23  N   UNL     1       1.190   8.471  18.982  0.00  0.00    +0.000 NA
ATOM     24  C   UNL     1       0.882   9.434  17.892  0.00  0.00    +0.000 C 
ATOM     25  C   UNL     1       1.508  10.834  18.073  0.00  0.00    +0.000 C 
BRANCH  23  26
ATOM     26  C   UNL     1       2.620   8.119  19.058  0.00  0.00    +0.000 C 
BRANCH  26  27
ATOM     27  C   UNL     1       2.986   6.834  18.362  0.00  0.00    +0.000 A 
ATOM     28  C   UNL     1       2.212   5.678  18.486  0.00  0.00    +0.000 A 
ATOM     29  C   UNL     1       2.618   4.504  17.857  0.00  0.00    +0.000 A 
ATOM     30  C   UNL     1       3.789   4.527  17.116  0.00  0.00    +0.000 A 
ATOM     31  N   UNL     1       4.560   5.624  16.965  0.00  0.00    +0.000 NA
ATOM     32  C   UNL     1       4.142   6.747  17.589  0.00  0.00    +0.000 A 
ENDBRANCH  26  27
ENDBRANCH  23  26
ENDBRANCH   4  20
TORSDOF 4
ENDMDL
MODEL 9
REMARK VINA RESULT:      -6.8      4.481      8.240
REMARK  Name = 
REMARK  7 active torsions:
REMARK  status: ('A' for Active; 'I' for Inactive)
REMARK    1  A    between atoms: C_1  and  C_2
REMARK    2  A    between atoms: N_4  and  C_5
REMARK    3  A    between atoms: C_6  and  C_7
REMARK    4  A    between atoms: C_8  and  C_9
REMARK    5  A    between atoms: C_12  and  N_13
REMARK    6  A    between atoms: N_16  and  C_17
REMARK    7  A    between atoms: C_17  and  C_18
REMARK                            x       y       z     vdW  Elec       q    Type
REMARK                         _______ _______ _______ _____ _____    ______ ____
ROOT
ATOM      1  C   UNL     1      -2.918  13.202  20.726  0.00  0.00    +0.000 A 
ATOM      2  N   UNL     1      -1.919  12.359  20.531  0.00  0.00    +0.000 NA
ATOM      3  C   UNL     1      -0.840  13.126  20.083  0.00  0.00    +0.000 A 
ATOM      4  C   UNL     1       0.489  12.774  19.677  0.00  0.00    +0.000 A 
ATOM      5  C   UNL     1       1.278  13.912  19.330  0.00  0.00    +0.000 A 
ATOM      6 BR   UNL     1       3.039  13.832  18.596  0.00  0.00    +0.000 Br
ATOM      7  C   UNL     1       0.756  15.212  19.410  0.00  0.00    +0.000 A 
ATOM      8  N   UNL     1      -0.499  15.548  19.772  0.00  0.00    +0.000 NA
ATOM      9  C   UNL     1      -1.217  14.460  20.077  0.00  0.00    +0.000 A 
ATOM     10  N   UNL     1      -2.522  14.480  20.443  0.00  0.00    +0.000 N 
ATOM     11  H   UNL     1      -3.076  15.314  20.505  0.00  0.00    +0.000 HD
ENDROOT
BRANCH   1  19
ATOM     12  C   UNL     1      -4.091  13.157  23.773  0.00  0.00    +0.000 C 
ATOM     13  C   UNL     1      -4.789  12.806  22.511  0.00  0.00    +0.000 A 
ATOM     14  N   UNL     1      -6.075  12.423  22.550  0.00  0.00    +0.000 NA
ATOM     15  N   UNL     1      -6.393  12.214  21.261  0.00  0.00    +0.000 N 
ATOM     16  C   UNL     1      -7.726  11.754  20.939  0.00  0.00    +0.000 C 
ATOM     17  C   UNL     1      -5.369  12.476  20.384  0.00  0.00    +0.000 A 
ATOM     18  C   UNL     1      -5.518  12.334  18.911  0.00  0.00    +0.000 C 
ATOM     19  C   UNL     1      -4.295  12.842  21.184  0.00  0.00    +0.000 A 
ENDBRANCH   1  19
BRANCH   4  20
ATOM     20  N   UNL     1       0.928  11.456  19.635  0.00  0.00    +0.000 N 
ATOM     21  C   UNL     1       1.047  10.596  20.821  0.00  0.00    +0.000 C 
ATOM     22  C   UNL     1       0.512   9.164  20.556  0.00  0.00    +0.000 C 
ATOM     23  N   UNL     1       0.988   8.509  19.313  0.00  0.00    +0.000 NA
ATOM     24  C   UNL     1       0.716   9.448  18.193  0.00  0.00    +0.000 C 
ATOM     25  C   UNL     1       1.344  10.849  18.359  0.00  0.00    +0.000 C 
BRANCH  23  26
ATOM     26  C   UNL     1       2.413   8.152  19.438  0.00  0.00    +0.000 C 
BRANCH  26  27
ATOM     27  C   UNL     1       2.730   6.718  19.103  0.00  0.00    +0.000 A 
ATOM     28  C   UNL     1       3.298   6.351  17.881  0.00  0.00    +0.000 A 
ATOM     29  C   UNL     1       3.531   5.007  17.604  0.00  0.00    +0.000 A 
ATOM     30  C   UNL     1       3.191   4.069  18.566  0.00  0.00    +0.000 A 
ATOM     31  N   UNL     1       2.648   4.382  19.761  0.00  0.00    +0.000 NA
ATOM     32  C   UNL     1       2.431   5.694  20.000  0.00  0.00    +0.000 A 
ENDBRANCH  26  27
ENDBRANCH  23  26
ENDBRANCH   4  20
TORSDOF 4
ENDMDL
