MODEL 1
REMARK VINA RESULT:      -8.3      0.000      0.000
REMARK  Name = 
REMARK  6 active torsions:
REMARK  status: ('A' for Active; 'I' for Inactive)
REMARK    1  A    between atoms: C_1  and  O_2
REMARK    2  A    between atoms: O_2  and  C_3
REMARK    3  A    between atoms: C_6  and  C_7
REMARK    4  A    between atoms: N_11  and  C_12
REMARK    5  A    between atoms: C_12  and  C_13
REMARK    6  A    between atoms: C_20  and  C_21
REMARK                            x       y       z     vdW  Elec       q    Type
REMARK                         _______ _______ _______ _____ _____    ______ ____
ROOT
ATOM      1  C   UNL     1       2.616   5.205  18.536  0.00  0.00    +0.000 C 
ATOM      2  C   UNL     1       3.817   4.756  18.137  0.00  0.00    +0.000 C 
ATOM      3  C   UNL     1       5.032   5.535  17.828  0.00  0.00    +0.000 C 
ATOM      4  O   UNL     1       5.423   6.563  18.339  0.00  0.00    +0.000 OA
ATOM      5  N   UNL     1       5.608   4.781  16.818  0.00  0.00    +0.000 N 
ATOM      6  N   UNL     1       5.131   3.474  16.744  0.00  0.00    +0.000 NA
ATOM      7  C   UNL     1       4.122   3.414  17.591  0.00  0.00    +0.000 C 
ENDROOT
BRANCH   1  11
ATOM      8  C   UNL     1       1.474   9.321  19.124  0.00  0.00    +0.000 A 
ATOM      9  C   UNL     1       1.824   8.836  17.860  0.00  0.00    +0.000 A 
ATOM     10  C   UNL     1       2.183   7.492  17.684  0.00  0.00    +0.000 A 
ATOM     11  C   UNL     1       2.226   6.612  18.770  0.00  0.00    +0.000 A 
ATOM     12  C   UNL     1       1.989   7.143  20.045  0.00  0.00    +0.000 A 
ATOM     13  C   UNL     1       1.575   8.466  20.220  0.00  0.00    +0.000 A 
ATOM     14 BR   UNL     1       1.121   9.025  21.979  0.00  0.00    +0.000 Br
BRANCH   8  16
ATOM     15  C   UNL     1      -0.219  10.953  18.902  0.00  0.00    +0.000 C 
ATOM     16  O   UNL     1       1.084  10.612  19.362  0.00  0.00    +0.000 OA
ENDBRANCH   8  16
ENDBRANCH   1  11
BRANCH   7  17
ATOM     17  C   UNL     1       3.398   2.157  17.989  0.00  0.00    +0.000 C 
ATOM     18  F   UNL     1       2.174   2.032  17.402  0.00  0.00    +0.000 F 
ATOM     19  F   UNL     1       4.087   1.029  17.673  0.00  0.00    +0.000 F 
ATOM     20  F   UNL     1       3.168   2.107  19.331  0.00  0.00    +0.000 F 
ENDBRANCH   7  17
BRANCH   5  21
ATOM     21  C   UNL     1       6.686   5.274  15.985  0.00  0.00    +0.000 C 
BRANCH  21  22
ATOM     22  C   UNL     1       6.630   4.738  14.571  0.00  0.00    +0.000 A 
ATOM     23  C   UNL     1       5.581   3.911  14.137  0.00  0.00    +0.000 A 
ATOM     24  C   UNL     1       5.516   3.486  12.806  0.00  0.00    +0.000 A 
ATOM     25  C   UNL     1       6.508   3.860  11.901  0.00  0.00    +0.000 A 
ATOM     26  C   UNL     1       7.567   4.663  12.322  0.00  0.00    +0.000 A 
ATOM     27  C   UNL     1       7.631   5.083  13.652  0.00  0.00    +0.000 A 
ENDBRANCH  21  22
ENDBRANCH   5  21
TORSDOF 5
ENDMDL
MODEL 2
REMARK VINA RESULT:      -8.3      0.417      1.248
REMARK  Name = 
REMARK  6 active torsions:
REMARK  status: ('A' for Active; 'I' for Inactive)
REMARK    1  A    between atoms: C_1  and  O_2
REMARK    2  A    between atoms: O_2  and  C_3
REMARK    3  A    between atoms: C_6  and  C_7
REMARK    4  A    between atoms: N_11  and  C_12
REMARK    5  A    between atoms: C_12  and  C_13
REMARK    6  A    between atoms: C_20  and  C_21
REMARK                            x       y       z     vdW  Elec       q    Type
REMARK                         _______ _______ _______ _____ _____    ______ ____
ROOT
ATOM      1  C   UNL     1       2.608   5.220  18.518  0.00  0.00    +0.000 C 
ATOM      2  C   UNL     1       3.810   4.766  18.128  0.00  0.00    +0.000 C 
ATOM      3  C   UNL     1       5.030   5.540  17.827  0.00  0.00    +0.000 C 
ATOM      4  O   UNL     1       5.421   6.568  18.340  0.00  0.00    +0.000 OA
ATOM      5  N   UNL     1       5.611   4.784  16.822  0.00  0.00    +0.000 N 
ATOM      6  N   UNL     1       5.129   3.479  16.745  0.00  0.00    +0.000 NA
ATOM      7  C   UNL     1       4.115   3.423  17.585  0.00  0.00    +0.000 C 
ENDROOT
BRANCH   1  11
ATOM      8  C   UNL     1       1.476   9.340  19.095  0.00  0.00    +0.000 A 
ATOM      9  C   UNL     1       1.828   8.852  17.833  0.00  0.00    +0.000 A 
ATOM     10  C   UNL     1       2.183   7.506  17.660  0.00  0.00    +0.000 A 
ATOM     11  C   UNL     1       2.221   6.628  18.748  0.00  0.00    +0.000 A 
ATOM     12  C   UNL     1       1.982   7.162  20.022  0.00  0.00    +0.000 A 
ATOM     13  C   UNL     1       1.572   8.486  20.193  0.00  0.00    +0.000 A 
ATOM     14 BR   UNL     1       1.114   9.050  21.949  0.00  0.00    +0.000 Br
BRANCH   8  16
ATOM     15  C   UNL     1       1.802  11.627  18.603  0.00  0.00    +0.000 C 
ATOM     16  O   UNL     1       1.089  10.633  19.329  0.00  0.00    +0.000 OA
ENDBRANCH   8  16
ENDBRANCH   1  11
BRANCH   7  17
ATOM     17  C   UNL     1       3.383   2.169  17.979  0.00  0.00    +0.000 C 
ATOM     18  F   UNL     1       3.137   2.087  19.317  0.00  0.00    +0.000 F 
ATOM     19  F   UNL     1       2.177   2.048  17.364  0.00  0.00    +0.000 F 
ATOM     20  F   UNL     1       4.091   1.048  17.666  0.00  0.00    +0.000 F 
ENDBRANCH   7  17
BRANCH   5  21
ATOM     21  C   UNL     1       6.696   5.273  15.996  0.00  0.00    +0.000 C 
BRANCH  21  22
ATOM     22  C   UNL     1       6.607   4.795  14.563  0.00  0.00    +0.000 A 
ATOM     23  C   UNL     1       7.605   5.098  13.621  0.00  0.00    +0.000 A 
ATOM     24  C   UNL     1       7.535   4.586  12.322  0.00  0.00    +0.000 A 
ATOM     25  C   UNL     1       6.457   3.787  11.940  0.00  0.00    +0.000 A 
ATOM     26  C   UNL     1       5.449   3.496  12.857  0.00  0.00    +0.000 A 
ATOM     27  C   UNL     1       5.520   4.011  14.153  0.00  0.00    +0.000 A 
ENDBRANCH  21  22
ENDBRANCH   5  21
TORSDOF 5
ENDMDL
MODEL 3
REMARK VINA RESULT:      -8.2      2.761      7.122
REMARK  Name = 
REMARK  6 active torsions:
REMARK  status: ('A' for Active; 'I' for Inactive)
REMARK    1  A    between atoms: C_1  and  O_2
REMARK    2  A    between atoms: O_2  and  C_3
REMARK    3  A    between atoms: C_6  and  C_7
REMARK    4  A    between atoms: N_11  and  C_12
REMARK    5  A    between atoms: C_12  and  C_13
REMARK    6  A    between atoms: C_20  and  C_21
REMARK                            x       y       z     vdW  Elec       q    Type
REMARK                         _______ _______ _______ _____ _____    ______ ____
ROOT
ATOM      1  C   UNL     1       3.536   4.024  18.282  0.00  0.00    +0.000 C 
ATOM      2  C   UNL     1       2.650   4.824  18.897  0.00  0.00    +0.000 C 
ATOM      3  C   UNL     1       2.563   6.297  18.859  0.00  0.00    +0.000 C 
ATOM      4  O   UNL     1       2.829   7.048  17.945  0.00  0.00    +0.000 OA
ATOM      5  N   UNL     1       2.089   6.590  20.128  0.00  0.00    +0.000 N 
ATOM      6  N   UNL     1       1.513   5.503  20.783  0.00  0.00    +0.000 NA
ATOM      7  C   UNL     1       1.756   4.457  20.019  0.00  0.00    +0.000 C 
ENDROOT
BRANCH   1  11
ATOM      8  C   UNL     1       6.749   5.182  15.650  0.00  0.00    +0.000 A 
ATOM      9  C   UNL     1       5.907   4.109  15.343  0.00  0.00    +0.000 A 
ATOM     10  C   UNL     1       4.859   3.752  16.204  0.00  0.00    +0.000 A 
ATOM     11  C   UNL     1       4.649   4.440  17.403  0.00  0.00    +0.000 A 
ATOM     12  C   UNL     1       5.574   5.434  17.751  0.00  0.00    +0.000 A 
ATOM     13  C   UNL     1       6.584   5.833  16.872  0.00  0.00    +0.000 A 
ATOM     14 BR   UNL     1       7.672   7.304  17.384  0.00  0.00    +0.000 Br
BRANCH   8  16
ATOM     15  C   UNL     1       7.694   5.175  13.485  0.00  0.00    +0.000 C 
ATOM     16  O   UNL     1       7.769   5.604  14.840  0.00  0.00    +0.000 OA
ENDBRANCH   8  16
ENDBRANCH   1  11
BRANCH   7  17
ATOM     17  C   UNL     1       1.180   3.082  20.222  0.00  0.00    +0.000 C 
ATOM     18  F   UNL     1       2.081   2.083  20.003  0.00  0.00    +0.000 F 
ATOM     19  F   UNL     1       0.701   2.892  21.480  0.00  0.00    +0.000 F 
ATOM     20  F   UNL     1       0.144   2.835  19.372  0.00  0.00    +0.000 F 
ENDBRANCH   7  17
BRANCH   5  21
ATOM     21  C   UNL     1       2.096   7.929  20.681  0.00  0.00    +0.000 C 
BRANCH  21  22
ATOM     22  C   UNL     1       1.006   8.808  20.108  0.00  0.00    +0.000 A 
ATOM     23  C   UNL     1      -0.108   9.195  20.872  0.00  0.00    +0.000 A 
ATOM     24  C   UNL     1      -1.066  10.065  20.342  0.00  0.00    +0.000 A 
ATOM     25  C   UNL     1      -0.938  10.539  19.037  0.00  0.00    +0.000 A 
ATOM     26  C   UNL     1       0.150  10.147  18.259  0.00  0.00    +0.000 A 
ATOM     27  C   UNL     1       1.104   9.275  18.790  0.00  0.00    +0.000 A 
ENDBRANCH  21  22
ENDBRANCH   5  21
TORSDOF 5
ENDMDL
MODEL 4
REMARK VINA RESULT:      -8.1      2.988      5.411
REMARK  Name = 
REMARK  6 active torsions:
REMARK  status: ('A' for Active; 'I' for Inactive)
REMARK    1  A    between atoms: C_1  and  O_2
REMARK    2  A    between atoms: O_2  and  C_3
REMARK    3  A    between atoms: C_6  and  C_7
REMARK    4  A    between atoms: N_11  and  C_12
REMARK    5  A    between atoms: C_12  and  C_13
REMARK    6  A    between atoms: C_20  and  C_21
REMARK                            x       y       z     vdW  Elec       q    Type
REMARK                         _______ _______ _______ _____ _____    ______ ____
ROOT
ATOM      1  C   UNL     1       3.621   7.243  17.705  0.00  0.00    +0.000 C 
ATOM      2  C   UNL     1       3.614   5.996  17.207  0.00  0.00    +0.000 C 
ATOM      3  C   UNL     1       2.633   4.919  17.442  0.00  0.00    +0.000 C 
ATOM      4  O   UNL     1       1.437   5.011  17.624  0.00  0.00    +0.000 OA
ATOM      5  N   UNL     1       3.429   3.786  17.388  0.00  0.00    +0.000 N 
ATOM      6  N   UNL     1       4.663   3.990  16.774  0.00  0.00    +0.000 NA
ATOM      7  C   UNL     1       4.751   5.291  16.573  0.00  0.00    +0.000 C 
ENDROOT
BRANCH   1  11
ATOM      8  C   UNL     1       0.741   8.929  20.436  0.00  0.00    +0.000 A 
ATOM      9  C   UNL     1       1.454   7.769  20.754  0.00  0.00    +0.000 A 
ATOM     10  C   UNL     1       2.395   7.239  19.859  0.00  0.00    +0.000 A 
ATOM     11  C   UNL     1       2.624   7.841  18.618  0.00  0.00    +0.000 A 
ATOM     12  C   UNL     1       1.816   8.932  18.267  0.00  0.00    +0.000 A 
ATOM     13  C   UNL     1       0.919   9.498  19.175  0.00  0.00    +0.000 A 
ATOM     14 BR   UNL     1       0.002  11.076  18.645  0.00  0.00    +0.000 Br
BRANCH   8  16
ATOM     15  C   UNL     1       0.106   9.386  22.664  0.00  0.00    +0.000 C 
ATOM     16  O   UNL     1      -0.168   9.517  21.274  0.00  0.00    +0.000 OA
ENDBRANCH   8  16
ENDBRANCH   1  11
BRANCH   7  17
ATOM     17  C   UNL     1       5.830   5.974  15.779  0.00  0.00    +0.000 C 
ATOM     18  F   UNL     1       5.348   6.889  14.892  0.00  0.00    +0.000 F 
ATOM     19  F   UNL     1       6.720   6.639  16.562  0.00  0.00    +0.000 F 
ATOM     20  F   UNL     1       6.553   5.089  15.037  0.00  0.00    +0.000 F 
ENDBRANCH   7  17
BRANCH   5  21
ATOM     21  C   UNL     1       2.977   2.484  17.834  0.00  0.00    +0.000 C 
BRANCH  21  22
ATOM     22  C   UNL     1       2.517   2.482  19.276  0.00  0.00    +0.000 A 
ATOM     23  C   UNL     1       3.431   2.424  20.341  0.00  0.00    +0.000 A 
ATOM     24  C   UNL     1       2.984   2.494  21.665  0.00  0.00    +0.000 A 
ATOM     25  C   UNL     1       1.622   2.599  21.940  0.00  0.00    +0.000 A 
ATOM     26  C   UNL     1       0.701   2.637  20.894  0.00  0.00    +0.000 A 
ATOM     27  C   UNL     1       1.150   2.563  19.574  0.00  0.00    +0.000 A 
ENDBRANCH  21  22
ENDBRANCH   5  21
TORSDOF 5
ENDMDL
MODEL 5
REMARK VINA RESULT:      -8.0      2.697      5.155
REMARK  Name = 
REMARK  6 active torsions:
REMARK  status: ('A' for Active; 'I' for Inactive)
REMARK    1  A    between atoms: C_1  and  O_2
REMARK    2  A    between atoms: O_2  and  C_3
REMARK    3  A    between atoms: C_6  and  C_7
REMARK    4  A    between atoms: N_11  and  C_12
REMARK    5  A    between atoms: C_12  and  C_13
REMARK    6  A    between atoms: C_20  and  C_21
REMARK                            x       y       z     vdW  Elec       q    Type
REMARK                         _______ _______ _______ _____ _____    ______ ____
ROOT
ATOM      1  C   UNL     1       4.301   6.829  17.323  0.00  0.00    +0.000 C 
ATOM      2  C   UNL     1       4.274   5.527  16.994  0.00  0.00    +0.000 C 
ATOM      3  C   UNL     1       3.189   4.549  17.205  0.00  0.00    +0.000 C 
ATOM      4  O   UNL     1       1.989   4.731  17.181  0.00  0.00    +0.000 OA
ATOM      5  N   UNL     1       3.895   3.377  17.424  0.00  0.00    +0.000 N 
ATOM      6  N   UNL     1       5.219   3.426  16.993  0.00  0.00    +0.000 NA
ATOM      7  C   UNL     1       5.436   4.679  16.645  0.00  0.00    +0.000 C 
ENDROOT
BRANCH   1  11
ATOM      8  C   UNL     1       1.155   9.134  19.164  0.00  0.00    +0.000 A 
ATOM      9  C   UNL     1       1.723   9.519  17.947  0.00  0.00    +0.000 A 
ATOM     10  C   UNL     1       2.738   8.753  17.355  0.00  0.00    +0.000 A 
ATOM     11  C   UNL     1       3.225   7.602  17.981  0.00  0.00    +0.000 A 
ATOM     12  C   UNL     1       2.729   7.296  19.256  0.00  0.00    +0.000 A 
ATOM     13  C   UNL     1       1.679   8.022  19.824  0.00  0.00    +0.000 A 
ATOM     14 BR   UNL     1       0.977   7.412  21.481  0.00  0.00    +0.000 Br
BRANCH   8  16
ATOM     15  C   UNL     1      -0.850  10.356  18.914  0.00  0.00    +0.000 C 
ATOM     16  O   UNL     1       0.141   9.816  19.781  0.00  0.00    +0.000 OA
ENDBRANCH   8  16
ENDBRANCH   1  11
BRANCH   7  17
ATOM     17  C   UNL     1       6.671   5.186  15.952  0.00  0.00    +0.000 C 
ATOM     18  F   UNL     1       6.445   5.577  14.666  0.00  0.00    +0.000 F 
ATOM     19  F   UNL     1       7.227   6.255  16.581  0.00  0.00    +0.000 F 
ATOM     20  F   UNL     1       7.641   4.232  15.880  0.00  0.00    +0.000 F 
ENDBRANCH   7  17
BRANCH   5  21
ATOM     21  C   UNL     1       3.283   2.177  17.954  0.00  0.00    +0.000 C 
BRANCH  21  22
ATOM     22  C   UNL     1       2.609   2.400  19.291  0.00  0.00    +0.000 A 
ATOM     23  C   UNL     1       3.347   2.497  20.482  0.00  0.00    +0.000 A 
ATOM     24  C   UNL     1       2.706   2.774  21.694  0.00  0.00    +0.000 A 
ATOM     25  C   UNL     1       1.322   2.932  21.735  0.00  0.00    +0.000 A 
ATOM     26  C   UNL     1       0.574   2.818  20.565  0.00  0.00    +0.000 A 
ATOM     27  C   UNL     1       1.215   2.538  19.357  0.00  0.00    +0.000 A 
ENDBRANCH  21  22
ENDBRANCH   5  21
TORSDOF 5
ENDMDL
MODEL 6
REMARK VINA RESULT:      -7.9      3.030      5.388
REMARK  Name = 
REMARK  6 active torsions:
REMARK  status: ('A' for Active; 'I' for Inactive)
REMARK    1  A    between atoms: C_1  and  O_2
REMARK    2  A    between atoms: O_2  and  C_3
REMARK    3  A    between atoms: C_6  and  C_7
REMARK    4  A    between atoms: N_11  and  C_12
REMARK    5  A    between atoms: C_12  and  C_13
REMARK    6  A    between atoms: C_20  and  C_21
REMARK                            x       y       z     vdW  Elec       q    Type
REMARK                         _______ _______ _______ _____ _____    ______ ____
ROOT
ATOM      1  C   UNL     1       3.547   7.357  17.725  0.00  0.00    +0.000 C 
ATOM      2  C   UNL     1       3.558   6.107  17.232  0.00  0.00    +0.000 C 
ATOM      3  C   UNL     1       2.598   5.014  17.480  0.00  0.00    +0.000 C 
ATOM      4  O   UNL     1       1.402   5.086  17.673  0.00  0.00    +0.000 OA
ATOM      5  N   UNL     1       3.414   3.896  17.423  0.00  0.00    +0.000 N 
ATOM      6  N   UNL     1       4.638   4.119  16.797  0.00  0.00    +0.000 NA
ATOM      7  C   UNL     1       4.701   5.420  16.590  0.00  0.00    +0.000 C 
ENDROOT
BRANCH   1  11
ATOM      8  C   UNL     1       0.662   9.001  20.475  0.00  0.00    +0.000 A 
ATOM      9  C   UNL     1       1.386   7.846  20.784  0.00  0.00    +0.000 A 
ATOM     10  C   UNL     1       2.329   7.330  19.883  0.00  0.00    +0.000 A 
ATOM     11  C   UNL     1       2.548   7.941  18.645  0.00  0.00    +0.000 A 
ATOM     12  C   UNL     1       1.730   9.026  18.303  0.00  0.00    +0.000 A 
ATOM     13  C   UNL     1       0.830   9.579  19.217  0.00  0.00    +0.000 A 
ATOM     14 BR   UNL     1      -0.103  11.152  18.699  0.00  0.00    +0.000 Br
BRANCH   8  16
ATOM     15  C   UNL     1       0.091   9.546  22.701  0.00  0.00    +0.000 C 
ATOM     16  O   UNL     1      -0.249   9.577  21.320  0.00  0.00    +0.000 OA
ENDBRANCH   8  16
ENDBRANCH   1  11
BRANCH   7  17
ATOM     17  C   UNL     1       5.761   6.119  15.784  0.00  0.00    +0.000 C 
ATOM     18  F   UNL     1       6.675   6.777  16.551  0.00  0.00    +0.000 F 
ATOM     19  F   UNL     1       6.470   5.269  14.995  0.00  0.00    +0.000 F 
ATOM     20  F   UNL     1       5.229   7.062  14.956  0.00  0.00    +0.000 F 
ENDBRANCH   7  17
BRANCH   5  21
ATOM     21  C   UNL     1       2.988   2.588  17.878  0.00  0.00    +0.000 C 
BRANCH  21  22
ATOM     22  C   UNL     1       2.496   2.593  19.309  0.00  0.00    +0.000 A 
ATOM     23  C   UNL     1       1.127   2.664  19.618  0.00  0.00    +0.000 A 
ATOM     24  C   UNL     1       0.694   2.596  20.946  0.00  0.00    +0.000 A 
ATOM     25  C   UNL     1       1.621   2.482  21.981  0.00  0.00    +0.000 A 
ATOM     26  C   UNL     1       2.983   2.432  21.691  0.00  0.00    +0.000 A 
ATOM     27  C   UNL     1       3.413   2.503  20.365  0.00  0.00    +0.000 A 
ENDBRANCH  21  22
ENDBRANCH   5  21
TORSDOF 5
ENDMDL
MODEL 7
REMARK VINA RESULT:      -7.8      2.733      5.126
REMARK  Name = 
REMARK  6 active torsions:
REMARK  status: ('A' for Active; 'I' for Inactive)
REMARK    1  A    between atoms: C_1  and  O_2
REMARK    2  A    between atoms: O_2  and  C_3
REMARK    3  A    between atoms: C_6  and  C_7
REMARK    4  A    between atoms: N_11  and  C_12
REMARK    5  A    between atoms: C_12  and  C_13
REMARK    6  A    between atoms: C_20  and  C_21
REMARK                            x       y       z     vdW  Elec       q    Type
REMARK                         _______ _______ _______ _____ _____    ______ ____
ROOT
ATOM      1  C   UNL     1       4.267   6.883  17.317  0.00  0.00    +0.000 C 
ATOM      2  C   UNL     1       4.245   5.579  16.998  0.00  0.00    +0.000 C 
ATOM      3  C   UNL     1       3.170   4.594  17.230  0.00  0.00    +0.000 C 
ATOM      4  O   UNL     1       1.970   4.767  17.220  0.00  0.00    +0.000 OA
ATOM      5  N   UNL     1       3.889   3.430  17.450  0.00  0.00    +0.000 N 
ATOM      6  N   UNL     1       5.207   3.485  17.002  0.00  0.00    +0.000 NA
ATOM      7  C   UNL     1       5.410   4.737  16.641  0.00  0.00    +0.000 C 
ENDROOT
BRANCH   1  11
ATOM      8  C   UNL     1       1.128   9.179  19.180  0.00  0.00    +0.000 A 
ATOM      9  C   UNL     1       1.684   9.565  17.957  0.00  0.00    +0.000 A 
ATOM     10  C   UNL     1       2.697   8.802  17.359  0.00  0.00    +0.000 A 
ATOM     11  C   UNL     1       3.194   7.653  17.983  0.00  0.00    +0.000 A 
ATOM     12  C   UNL     1       2.709   7.348  19.262  0.00  0.00    +0.000 A 
ATOM     13  C   UNL     1       1.661   8.071  19.837  0.00  0.00    +0.000 A 
ATOM     14 BR   UNL     1       0.975   7.461  21.501  0.00  0.00    +0.000 Br
BRANCH   8  16
ATOM     15  C   UNL     1       0.444  11.169  20.253  0.00  0.00    +0.000 C 
ATOM     16  O   UNL     1       0.116   9.860  19.803  0.00  0.00    +0.000 OA
ENDBRANCH   8  16
ENDBRANCH   1  11
BRANCH   7  17
ATOM     17  C   UNL     1       6.632   5.247  15.929  0.00  0.00    +0.000 C 
ATOM     18  F   UNL     1       6.373   5.696  14.669  0.00  0.00    +0.000 F 
ATOM     19  F   UNL     1       7.231   6.278  16.583  0.00  0.00    +0.000 F 
ATOM     20  F   UNL     1       7.579   4.278  15.787  0.00  0.00    +0.000 F 
ENDBRANCH   7  17
BRANCH   5  21
ATOM     21  C   UNL     1       3.292   2.229  17.997  0.00  0.00    +0.000 C 
BRANCH  21  22
ATOM     22  C   UNL     1       2.578   2.471  19.309  0.00  0.00    +0.000 A 
ATOM     23  C   UNL     1       1.178   2.560  19.382  0.00  0.00    +0.000 A 
ATOM     24  C   UNL     1       0.539   2.714  20.616  0.00  0.00    +0.000 A 
ATOM     25  C   UNL     1       1.289   2.805  21.788  0.00  0.00    +0.000 A 
ATOM     26  C   UNL     1       2.680   2.739  21.730  0.00  0.00    +0.000 A 
ATOM     27  C   UNL     1       3.315   2.589  20.495  0.00  0.00    +0.000 A 
ENDBRANCH  21  22
ENDBRANCH   5  21
TORSDOF 5
ENDMDL
MODEL 8
REMARK VINA RESULT:      -7.6      1.170      1.919
REMARK  Name = 
REMARK  6 active torsions:
REMARK  status: ('A' for Active; 'I' for Inactive)
REMARK    1  A    between atoms: C_1  and  O_2
REMARK    2  A    between atoms: O_2  and  C_3
REMARK    3  A    between atoms: C_6  and  C_7
REMARK    4  A    between atoms: N_11  and  C_12
REMARK    5  A    between atoms: C_12  and  C_13
REMARK    6  A    between atoms: C_20  and  C_21
REMARK                            x       y       z     vdW  Elec       q    Type
REMARK                         _______ _______ _______ _____ _____    ______ ____
ROOT
ATOM      1  C   UNL     1       2.603   4.864  18.930  0.00  0.00    +0.000 C 
ATOM      2  C   UNL     1       3.786   4.512  18.400  0.00  0.00    +0.000 C 
ATOM      3  C   UNL     1       4.958   5.365  18.124  0.00  0.00    +0.000 C 
ATOM      4  O   UNL     1       5.356   6.328  18.744  0.00  0.00    +0.000 OA
ATOM      5  N   UNL     1       5.485   4.771  16.988  0.00  0.00    +0.000 N 
ATOM      6  N   UNL     1       5.036   3.471  16.768  0.00  0.00    +0.000 NA
ATOM      7  C   UNL     1       4.087   3.265  17.660  0.00  0.00    +0.000 C 
ENDROOT
BRANCH   1  11
ATOM      8  C   UNL     1       1.406   8.768  20.315  0.00  0.00    +0.000 A 
ATOM      9  C   UNL     1       1.322   7.645  21.142  0.00  0.00    +0.000 A 
ATOM     10  C   UNL     1       1.725   6.384  20.680  0.00  0.00    +0.000 A 
ATOM     11  C   UNL     1       2.194   6.214  19.374  0.00  0.00    +0.000 A 
ATOM     12  C   UNL     1       2.159   7.326  18.522  0.00  0.00    +0.000 A 
ATOM     13  C   UNL     1       1.813   8.595  18.992  0.00  0.00    +0.000 A 
ATOM     14 BR   UNL     1       1.965  10.056  17.786  0.00  0.00    +0.000 Br
BRANCH   8  16
ATOM     15  C   UNL     1       0.235  10.108  21.868  0.00  0.00    +0.000 C 
ATOM     16  O   UNL     1       1.060  10.033  20.711  0.00  0.00    +0.000 OA
ENDBRANCH   8  16
ENDBRANCH   1  11
BRANCH   7  17
ATOM     17  C   UNL     1       3.421   1.944  17.929  0.00  0.00    +0.000 C 
ATOM     18  F   UNL     1       4.178   0.874  17.556  0.00  0.00    +0.000 F 
ATOM     19  F   UNL     1       3.127   1.760  19.244  0.00  0.00    +0.000 F 
ATOM     20  F   UNL     1       2.248   1.819  17.249  0.00  0.00    +0.000 F 
ENDBRANCH   7  17
BRANCH   5  21
ATOM     21  C   UNL     1       6.494   5.407  16.165  0.00  0.00    +0.000 C 
BRANCH  21  22
ATOM     22  C   UNL     1       6.499   4.895  14.740  0.00  0.00    +0.000 A 
ATOM     23  C   UNL     1       7.559   5.171  13.861  0.00  0.00    +0.000 A 
ATOM     24  C   UNL     1       7.573   4.629  12.572  0.00  0.00    +0.000 A 
ATOM     25  C   UNL     1       6.519   3.825  12.138  0.00  0.00    +0.000 A 
ATOM     26  C   UNL     1       5.450   3.559  12.992  0.00  0.00    +0.000 A 
ATOM     27  C   UNL     1       5.437   4.105  14.277  0.00  0.00    +0.000 A 
ENDBRANCH  21  22
ENDBRANCH   5  21
TORSDOF 5
ENDMDL
MODEL 9
REMARK VINA RESULT:      -7.5      5.523      8.092
REMARK  Name = 
REMARK  6 active torsions:
REMARK  status: ('A' for Active; 'I' for Inactive)
REMARK    1  A    between atoms: C_1  and  O_2
REMARK    2  A    between atoms: O_2  and  C_3
REMARK    3  A    between atoms: C_6  and  C_7
REMARK    4  A    between atoms: N_11  and  C_12
REMARK    5  A    between atoms: C_12  and  C_13
REMARK    6  A    between atoms: C_20  and  C_21
REMARK                            x       y       z     vdW  Elec       q    Type
REMARK                         _______ _______ _______ _____ _____    ______ ____
ROOT
ATOM      1  C   UNL     1      -1.894  11.871  19.852  0.00  0.00    +0.000 C 
ATOM      2  C   UNL     1      -1.213  10.802  19.407  0.00  0.00    +0.000 C 
ATOM      3  C   UNL     1      -0.031  10.153  20.005  0.00  0.00    +0.000 C 
ATOM      4  O   UNL     1       0.254  10.030  21.178  0.00  0.00    +0.000 OA
ATOM      5  N   UNL     1       0.656   9.714  18.884  0.00  0.00    +0.000 N 
ATOM      6  N   UNL     1      -0.123   9.659  17.730  0.00  0.00    +0.000 NA
ATOM      7  C   UNL     1      -1.274  10.218  18.048  0.00  0.00    +0.000 C 
ENDROOT
BRANCH   1  11
ATOM      8  C   UNL     1      -1.129  14.106  23.459  0.00  0.00    +0.000 A 
ATOM      9  C   UNL     1      -2.087  13.090  23.422  0.00  0.00    +0.000 A 
ATOM     10  C   UNL     1      -2.317  12.365  22.244  0.00  0.00    +0.000 A 
ATOM     11  C   UNL     1      -1.613  12.659  21.071  0.00  0.00    +0.000 A 
ATOM     12  C   UNL     1      -0.744  13.758  21.095  0.00  0.00    +0.000 A 
ATOM     13  C   UNL     1      -0.469  14.446  22.278  0.00  0.00    +0.000 A 
ATOM     14 BR   UNL     1       0.854  15.810  22.221  0.00  0.00    +0.000 Br
BRANCH   8  16
ATOM     15  C   UNL     1      -1.951  15.363  25.282  0.00  0.00    +0.000 C 
ATOM     16  O   UNL     1      -0.832  14.832  24.582  0.00  0.00    +0.000 OA
ENDBRANCH   8  16
ENDBRANCH   1  11
BRANCH   7  17
ATOM     17  C   UNL     1      -2.500  10.235  17.177  0.00  0.00    +0.000 C 
ATOM     18  F   UNL     1      -2.916  11.492  16.856  0.00  0.00    +0.000 F 
ATOM     19  F   UNL     1      -2.319   9.583  15.999  0.00  0.00    +0.000 F 
ATOM     20  F   UNL     1      -3.564   9.642  17.788  0.00  0.00    +0.000 F 
ENDBRANCH   7  17
BRANCH   5  21
ATOM     21  C   UNL     1       2.028   9.253  18.931  0.00  0.00    +0.000 C 
BRANCH  21  22
ATOM     22  C   UNL     1       2.140   7.753  19.097  0.00  0.00    +0.000 A 
ATOM     23  C   UNL     1       1.862   7.124  20.321  0.00  0.00    +0.000 A 
ATOM     24  C   UNL     1       1.905   5.730  20.430  0.00  0.00    +0.000 A 
ATOM     25  C   UNL     1       2.250   4.951  19.326  0.00  0.00    +0.000 A 
ATOM     26  C   UNL     1       2.549   5.563  18.110  0.00  0.00    +0.000 A 
ATOM     27  C   UNL     1       2.509   6.955  18.006  0.00  0.00    +0.000 A 
ENDBRANCH  21  22
ENDBRANCH   5  21
TORSDOF 5
ENDMDL
