MODEL 1
REMARK VINA RESULT:      -8.0      0.000      0.000
REMARK  Name = 
REMARK  7 active torsions:
REMARK  status: ('A' for Active; 'I' for Inactive)
REMARK    1  A    between atoms: C_2  and  C_3
REMARK    2  A    between atoms: C_8  and  C_9
REMARK    3  A    between atoms: C_9  and  O_10
REMARK    4  A    between atoms: O_10  and  C_11
REMARK    5  A    between atoms: C_23  and  O_25
REMARK    6  A    between atoms: O_25  and  C_26
REMARK    7  A    between atoms: C_26  and  C_27
REMARK                            x       y       z     vdW  Elec       q    Type
REMARK                         _______ _______ _______ _____ _____    ______ ____
ROOT
ATOM      1  C   UNL     1       8.290   8.143  18.387  0.00  0.00    +0.000 A 
ATOM      2  C   UNL     1       8.334   6.924  19.014  0.00  0.00    +0.000 A 
ATOM      3  N   UNL     1       7.528   5.884  18.704  0.00  0.00    +0.000 NA
ATOM      4  C   UNL     1       6.609   6.062  17.739  0.00  0.00    +0.000 A 
ATOM      5  N   UNL     1       5.751   5.022  17.400  0.00  0.00    +0.000 N 
ATOM      6  C   UNL     1       4.477   5.430  16.763  0.00  0.00    +0.000 C 
ATOM      7  C   UNL     1       3.234   4.994  17.580  0.00  0.00    +0.000 C 
ATOM      8  C   UNL     1       2.881   3.505  17.332  0.00  0.00    +0.000 C 
ATOM      9  C   UNL     1       3.482   2.753  18.536  0.00  0.00    +0.000 C 
ATOM     10  C   UNL     1       4.405   3.802  19.169  0.00  0.00    +0.000 C 
ATOM     11  C   UNL     1       5.717   3.875  18.324  0.00  0.00    +0.000 C 
ATOM     12  N   UNL     1       3.566   4.986  18.999  0.00  0.00    +0.000 N 
ATOM     13  C   UNL     1       2.620   5.284  19.961  0.00  0.00    +0.000 C 
ATOM     14  O   UNL     1       2.585   4.784  21.077  0.00  0.00    +0.000 OA
ATOM     15  N   UNL     1       6.513   7.218  17.061  0.00  0.00    +0.000 NA
ATOM     16  C   UNL     1       7.330   8.231  17.409  0.00  0.00    +0.000 A 
ENDROOT
BRANCH   1  17
ATOM     17  O   UNL     1       9.163   9.109  18.776  0.00  0.00    +0.000 OA
BRANCH  17  18
ATOM     18  C   UNL     1       8.803  10.437  18.394  0.00  0.00    +0.000 C 
BRANCH  18  24
ATOM     19  C   UNL     1      10.173  11.899  19.981  0.00  0.00    +0.000 A 
ATOM     20  C   UNL     1      11.274  12.727  20.149  0.00  0.00    +0.000 A 
ATOM     21  N   UNL     1      12.162  13.030  19.173  0.00  0.00    +0.000 NA
ATOM     22  C   UNL     1      11.950  12.471  17.965  0.00  0.00    +0.000 A 
ATOM     23  C   UNL     1      10.885  11.631  17.688  0.00  0.00    +0.000 A 
ATOM     24  C   UNL     1       9.960  11.347  18.712  0.00  0.00    +0.000 A 
BRANCH  19  26
ATOM     25  N   UNL     1       8.584  11.445  21.976  0.00  0.00    +0.000 NA
ATOM     26  C   UNL     1       9.299  11.660  21.088  0.00  0.00    +0.000 C 
ENDBRANCH  19  26
ENDBRANCH  18  24
ENDBRANCH  17  18
ENDBRANCH   1  17
BRANCH  13  27
ATOM     27  O   UNL     1       1.686   6.165  19.511  0.00  0.00    +0.000 OA
BRANCH  27  28
ATOM     28  C   UNL     1       2.006   7.551  19.748  0.00  0.00    +0.000 C 
BRANCH  28  29
ATOM     29  C   UNL     1       2.166   8.360  18.463  0.00  0.00    +0.000 C 
ATOM     30  F   UNL     1       1.846   9.664  18.626  0.00  0.00    +0.000 F 
ATOM     31  F   UNL     1       3.427   8.300  17.981  0.00  0.00    +0.000 F 
ATOM     32  F   UNL     1       1.348   7.873  17.496  0.00  0.00    +0.000 F 
ENDBRANCH  28  29
ENDBRANCH  27  28
ENDBRANCH  13  27
TORSDOF 7
ENDMDL
MODEL 2
REMARK VINA RESULT:      -7.9      1.123      1.402
REMARK  Name = 
REMARK  7 active torsions:
REMARK  status: ('A' for Active; 'I' for Inactive)
REMARK    1  A    between atoms: C_2  and  C_3
REMARK    2  A    between atoms: C_8  and  C_9
REMARK    3  A    between atoms: C_9  and  O_10
REMARK    4  A    between atoms: O_10  and  C_11
REMARK    5  A    between atoms: C_23  and  O_25
REMARK    6  A    between atoms: O_25  and  C_26
REMARK    7  A    between atoms: C_26  and  C_27
REMARK                            x       y       z     vdW  Elec       q    Type
REMARK                         _______ _______ _______ _____ _____    ______ ____
ROOT
ATOM      1  C   UNL     1       8.181   8.011  18.351  0.00  0.00    +0.000 A 
ATOM      2  C   UNL     1       8.209   6.785  18.966  0.00  0.00    +0.000 A 
ATOM      3  N   UNL     1       7.344   5.782  18.695  0.00  0.00    +0.000 NA
ATOM      4  C   UNL     1       6.381   6.006  17.785  0.00  0.00    +0.000 A 
ATOM      5  N   UNL     1       5.462   5.006  17.488  0.00  0.00    +0.000 N 
ATOM      6  C   UNL     1       4.173   5.472  16.926  0.00  0.00    +0.000 C 
ATOM      7  C   UNL     1       2.960   5.080  17.809  0.00  0.00    +0.000 C 
ATOM      8  C   UNL     1       2.532   3.610  17.571  0.00  0.00    +0.000 C 
ATOM      9  C   UNL     1       3.168   2.822  18.734  0.00  0.00    +0.000 C 
ATOM     10  C   UNL     1       4.168   3.827  19.321  0.00  0.00    +0.000 C 
ATOM     11  C   UNL     1       5.432   3.854  18.404  0.00  0.00    +0.000 C 
ATOM     12  N   UNL     1       3.371   5.046  19.207  0.00  0.00    +0.000 N 
ATOM     13  C   UNL     1       2.494   5.374  20.223  0.00  0.00    +0.000 C 
ATOM     14  O   UNL     1       2.500   4.866  21.335  0.00  0.00    +0.000 OA
ATOM     15  N   UNL     1       6.296   7.171  17.121  0.00  0.00    +0.000 NA
ATOM     16  C   UNL     1       7.173   8.147  17.430  0.00  0.00    +0.000 A 
ENDROOT
BRANCH   1  17
ATOM     17  O   UNL     1       9.114   8.936  18.697  0.00  0.00    +0.000 OA
BRANCH  17  18
ATOM     18  C   UNL     1       8.708  10.294  18.526  0.00  0.00    +0.000 C 
BRANCH  18  24
ATOM     19  C   UNL     1      10.091  11.757  20.101  0.00  0.00    +0.000 A 
ATOM     20  C   UNL     1      11.212  12.558  20.270  0.00  0.00    +0.000 A 
ATOM     21  N   UNL     1      12.126  12.811  19.303  0.00  0.00    +0.000 NA
ATOM     22  C   UNL     1      11.919  12.227  18.106  0.00  0.00    +0.000 A 
ATOM     23  C   UNL     1      10.836  11.411  17.830  0.00  0.00    +0.000 A 
ATOM     24  C   UNL     1       9.885  11.179  18.843  0.00  0.00    +0.000 A 
BRANCH  19  26
ATOM     25  N   UNL     1       8.460  11.445  22.091  0.00  0.00    +0.000 NA
ATOM     26  C   UNL     1       9.191  11.571  21.198  0.00  0.00    +0.000 C 
ENDBRANCH  19  26
ENDBRANCH  18  24
ENDBRANCH  17  18
ENDBRANCH   1  17
BRANCH  13  27
ATOM     27  O   UNL     1       1.573   6.296  19.832  0.00  0.00    +0.000 OA
BRANCH  27  28
ATOM     28  C   UNL     1       1.947   7.664  20.097  0.00  0.00    +0.000 C 
BRANCH  28  29
ATOM     29  C   UNL     1       0.988   8.375  21.051  0.00  0.00    +0.000 C 
ATOM     30  F   UNL     1       0.474   9.510  20.521  0.00  0.00    +0.000 F 
ATOM     31  F   UNL     1      -0.044   7.583  21.414  0.00  0.00    +0.000 F 
ATOM     32  F   UNL     1       1.636   8.731  22.189  0.00  0.00    +0.000 F 
ENDBRANCH  28  29
ENDBRANCH  27  28
ENDBRANCH  13  27
TORSDOF 7
ENDMDL
MODEL 3
REMARK VINA RESULT:      -7.7      1.199      1.507
REMARK  Name = 
REMARK  7 active torsions:
REMARK  status: ('A' for Active; 'I' for Inactive)
REMARK    1  A    between atoms: C_2  and  C_3
REMARK    2  A    between atoms: C_8  and  C_9
REMARK    3  A    between atoms: C_9  and  O_10
REMARK    4  A    between atoms: O_10  and  C_11
REMARK    5  A    between atoms: C_23  and  O_25
REMARK    6  A    between atoms: O_25  and  C_26
REMARK    7  A    between atoms: C_26  and  C_27
REMARK                            x       y       z     vdW  Elec       q    Type
REMARK                         _______ _______ _______ _____ _____    ______ ____
ROOT
ATOM      1  C   UNL     1       8.277   8.403  18.277  0.00  0.00    +0.000 A 
ATOM      2  C   UNL     1       8.378   7.202  18.933  0.00  0.00    +0.000 A 
ATOM      3  N   UNL     1       7.620   6.120  18.651  0.00  0.00    +0.000 NA
ATOM      4  C   UNL     1       6.692   6.233  17.685  0.00  0.00    +0.000 A 
ATOM      5  N   UNL     1       5.881   5.147  17.374  0.00  0.00    +0.000 N 
ATOM      6  C   UNL     1       4.588   5.481  16.731  0.00  0.00    +0.000 C 
ATOM      7  C   UNL     1       3.368   5.008  17.562  0.00  0.00    +0.000 C 
ATOM      8  C   UNL     1       3.083   3.500  17.351  0.00  0.00    +0.000 C 
ATOM      9  C   UNL     1       3.720   2.805  18.571  0.00  0.00    +0.000 C 
ATOM     10  C   UNL     1       4.596   3.910  19.175  0.00  0.00    +0.000 C 
ATOM     11  C   UNL     1       5.901   4.022  18.325  0.00  0.00    +0.000 C 
ATOM     12  N   UNL     1       3.703   5.050  18.980  0.00  0.00    +0.000 N 
ATOM     13  C   UNL     1       2.747   5.328  19.938  0.00  0.00    +0.000 C 
ATOM     14  O   UNL     1       2.737   4.854  21.066  0.00  0.00    +0.000 OA
ATOM     15  N   UNL     1       6.542   7.366  16.980  0.00  0.00    +0.000 NA
ATOM     16  C   UNL     1       7.313   8.424  17.301  0.00  0.00    +0.000 A 
ENDROOT
BRANCH   1  17
ATOM     17  O   UNL     1       9.106   9.417  18.641  0.00  0.00    +0.000 OA
BRANCH  17  18
ATOM     18  C   UNL     1       8.690  10.716  18.220  0.00  0.00    +0.000 C 
BRANCH  18  24
ATOM     19  C   UNL     1       9.421  13.108  18.749  0.00  0.00    +0.000 A 
ATOM     20  C   UNL     1      10.374  13.939  19.321  0.00  0.00    +0.000 A 
ATOM     21  N   UNL     1      11.500  13.505  19.936  0.00  0.00    +0.000 NA
ATOM     22  C   UNL     1      11.682  12.171  19.997  0.00  0.00    +0.000 A 
ATOM     23  C   UNL     1      10.795  11.253  19.460  0.00  0.00    +0.000 A 
ATOM     24  C   UNL     1       9.642  11.726  18.805  0.00  0.00    +0.000 A 
BRANCH  19  26
ATOM     25  N   UNL     1       7.345  14.174  17.623  0.00  0.00    +0.000 NA
ATOM     26  C   UNL     1       8.275  13.686  18.117  0.00  0.00    +0.000 C 
ENDBRANCH  19  26
ENDBRANCH  18  24
ENDBRANCH  17  18
ENDBRANCH   1  17
BRANCH  13  27
ATOM     27  O   UNL     1       1.773   6.154  19.470  0.00  0.00    +0.000 OA
BRANCH  27  28
ATOM     28  C   UNL     1       2.013   7.556  19.705  0.00  0.00    +0.000 C 
BRANCH  28  29
ATOM     29  C   UNL     1       2.132   8.371  18.418  0.00  0.00    +0.000 C 
ATOM     30  F   UNL     1       1.325   7.910  17.435  0.00  0.00    +0.000 F 
ATOM     31  F   UNL     1       1.841   9.675  18.616  0.00  0.00    +0.000 F 
ATOM     32  F   UNL     1       3.402   8.315  17.943  0.00  0.00    +0.000 F 
ENDBRANCH  28  29
ENDBRANCH  27  28
ENDBRANCH  13  27
TORSDOF 7
ENDMDL
MODEL 4
REMARK VINA RESULT:      -7.5      4.918      9.187
REMARK  Name = 
REMARK  7 active torsions:
REMARK  status: ('A' for Active; 'I' for Inactive)
REMARK    1  A    between atoms: C_2  and  C_3
REMARK    2  A    between atoms: C_8  and  C_9
REMARK    3  A    between atoms: C_9  and  O_10
REMARK    4  A    between atoms: O_10  and  C_11
REMARK    5  A    between atoms: C_23  and  O_25
REMARK    6  A    between atoms: O_25  and  C_26
REMARK    7  A    between atoms: C_26  and  C_27
REMARK                            x       y       z     vdW  Elec       q    Type
REMARK                         _______ _______ _______ _____ _____    ______ ____
ROOT
ATOM      1  C   UNL     1       2.153   8.042  18.789  0.00  0.00    +0.000 A 
ATOM      2  C   UNL     1       1.662   8.232  20.056  0.00  0.00    +0.000 A 
ATOM      3  N   UNL     1       0.779   9.199  20.389  0.00  0.00    +0.000 NA
ATOM      4  C   UNL     1       0.375  10.044  19.425  0.00  0.00    +0.000 A 
ATOM      5  N   UNL     1      -0.522  11.063  19.728  0.00  0.00    +0.000 N 
ATOM      6  C   UNL     1      -0.498  12.227  18.811  0.00  0.00    +0.000 C 
ATOM      7  C   UNL     1      -0.138  13.550  19.534  0.00  0.00    +0.000 C 
ATOM      8  C   UNL     1      -1.363  14.153  20.267  0.00  0.00    +0.000 C 
ATOM      9  C   UNL     1      -1.189  13.728  21.739  0.00  0.00    +0.000 C 
ATOM     10  C   UNL     1      -0.098  12.652  21.657  0.00  0.00    +0.000 C 
ATOM     11  C   UNL     1      -0.753  11.325  21.159  0.00  0.00    +0.000 C 
ATOM     12  N   UNL     1       0.761  13.265  20.646  0.00  0.00    +0.000 N 
ATOM     13  C   UNL     1       1.727  14.170  21.042  0.00  0.00    +0.000 C 
ATOM     14  O   UNL     1       2.101  14.324  22.196  0.00  0.00    +0.000 OA
ATOM     15  N   UNL     1       0.791   9.916  18.154  0.00  0.00    +0.000 NA
ATOM     16  C   UNL     1       1.678   8.943  17.869  0.00  0.00    +0.000 A 
ENDROOT
BRANCH   1  17
ATOM     17  O   UNL     1       3.027   7.024  18.573  0.00  0.00    +0.000 OA
BRANCH  17  18
ATOM     18  C   UNL     1       3.093   6.055  19.620  0.00  0.00    +0.000 C 
BRANCH  18  24
ATOM     19  C   UNL     1       3.976   3.876  18.616  0.00  0.00    +0.000 A 
ATOM     20  C   UNL     1       3.678   2.640  18.060  0.00  0.00    +0.000 A 
ATOM     21  N   UNL     1       2.423   2.164  17.879  0.00  0.00    +0.000 NA
ATOM     22  C   UNL     1       1.410   2.956  18.283  0.00  0.00    +0.000 A 
ATOM     23  C   UNL     1       1.595   4.205  18.850  0.00  0.00    +0.000 A 
ATOM     24  C   UNL     1       2.907   4.691  19.008  0.00  0.00    +0.000 A 
BRANCH  19  26
ATOM     25  N   UNL     1       6.459   4.575  18.869  0.00  0.00    +0.000 NA
ATOM     26  C   UNL     1       5.345   4.273  18.748  0.00  0.00    +0.000 C 
ENDBRANCH  19  26
ENDBRANCH  18  24
ENDBRANCH  17  18
ENDBRANCH   1  17
BRANCH  13  27
ATOM     27  O   UNL     1       2.186  14.921  20.004  0.00  0.00    +0.000 OA
BRANCH  27  28
ATOM     28  C   UNL     1       3.552  14.653  19.630  0.00  0.00    +0.000 C 
BRANCH  28  29
ATOM     29  C   UNL     1       3.695  14.141  18.198  0.00  0.00    +0.000 C 
ATOM     30  F   UNL     1       4.986  14.033  17.809  0.00  0.00    +0.000 F 
ATOM     31  F   UNL     1       3.111  12.934  18.032  0.00  0.00    +0.000 F 
ATOM     32  F   UNL     1       3.094  14.995  17.331  0.00  0.00    +0.000 F 
ENDBRANCH  28  29
ENDBRANCH  27  28
ENDBRANCH  13  27
TORSDOF 7
ENDMDL
MODEL 5
REMARK VINA RESULT:      -7.5      1.028      1.916
REMARK  Name = 
REMARK  7 active torsions:
REMARK  status: ('A' for Active; 'I' for Inactive)
REMARK    1  A    between atoms: C_2  and  C_3
REMARK    2  A    between atoms: C_8  and  C_9
REMARK    3  A    between atoms: C_9  and  O_10
REMARK    4  A    between atoms: O_10  and  C_11
REMARK    5  A    between atoms: C_23  and  O_25
REMARK    6  A    between atoms: O_25  and  C_26
REMARK    7  A    between atoms: C_26  and  C_27
REMARK                            x       y       z     vdW  Elec       q    Type
REMARK                         _______ _______ _______ _____ _____    ______ ____
ROOT
ATOM      1  C   UNL     1       8.545   8.576  18.564  0.00  0.00    +0.000 A 
ATOM      2  C   UNL     1       8.568   7.354  19.189  0.00  0.00    +0.000 A 
ATOM      3  N   UNL     1       7.833   6.289  18.799  0.00  0.00    +0.000 NA
ATOM      4  C   UNL     1       7.009   6.442  17.748  0.00  0.00    +0.000 A 
ATOM      5  N   UNL     1       6.224   5.376  17.323  0.00  0.00    +0.000 N 
ATOM      6  C   UNL     1       5.006   5.743  16.564  0.00  0.00    +0.000 C 
ATOM      7  C   UNL     1       3.704   5.260  17.253  0.00  0.00    +0.000 C 
ATOM      8  C   UNL     1       3.429   3.762  16.967  0.00  0.00    +0.000 C 
ATOM      9  C   UNL     1       3.934   3.023  18.224  0.00  0.00    +0.000 C 
ATOM     10  C   UNL     1       4.754   4.100  18.947  0.00  0.00    +0.000 C 
ATOM     11  C   UNL     1       6.139   4.223  18.236  0.00  0.00    +0.000 C 
ATOM     12  N   UNL     1       3.895   5.256  18.698  0.00  0.00    +0.000 N 
ATOM     13  C   UNL     1       2.849   5.515  19.562  0.00  0.00    +0.000 C 
ATOM     14  O   UNL     1       2.721   5.008  20.668  0.00  0.00    +0.000 OA
ATOM     15  N   UNL     1       6.941   7.598  17.066  0.00  0.00    +0.000 NA
ATOM     16  C   UNL     1       7.684   8.636  17.496  0.00  0.00    +0.000 A 
ENDROOT
BRANCH   1  17
ATOM     17  O   UNL     1       9.341   9.569  19.040  0.00  0.00    +0.000 OA
BRANCH  17  18
ATOM     18  C   UNL     1       9.217  10.818  18.362  0.00  0.00    +0.000 C 
BRANCH  18  24
ATOM     19  C   UNL     1      10.457  12.989  18.894  0.00  0.00    +0.000 A 
ATOM     20  C   UNL     1      10.811  13.928  19.853  0.00  0.00    +0.000 A 
ATOM     21  N   UNL     1      10.435  13.875  21.153  0.00  0.00    +0.000 NA
ATOM     22  C   UNL     1       9.657  12.837  21.517  0.00  0.00    +0.000 A 
ATOM     23  C   UNL     1       9.246  11.846  20.643  0.00  0.00    +0.000 A 
ATOM     24  C   UNL     1       9.666  11.908  19.300  0.00  0.00    +0.000 A 
BRANCH  19  26
ATOM     25  N   UNL     1      11.277  13.276  16.453  0.00  0.00    +0.000 NA
ATOM     26  C   UNL     1      10.923  13.149  17.550  0.00  0.00    +0.000 C 
ENDBRANCH  19  26
ENDBRANCH  18  24
ENDBRANCH  17  18
ENDBRANCH   1  17
BRANCH  13  27
ATOM     27  O   UNL     1       1.934   6.366  19.024  0.00  0.00    +0.000 OA
BRANCH  27  28
ATOM     28  C   UNL     1       2.160   7.758  19.327  0.00  0.00    +0.000 C 
BRANCH  28  29
ATOM     29  C   UNL     1       2.028   8.669  18.107  0.00  0.00    +0.000 C 
ATOM     30  F   UNL     1       0.799   8.611  17.545  0.00  0.00    +0.000 F 
ATOM     31  F   UNL     1       2.285   9.960  18.410  0.00  0.00    +0.000 F 
ATOM     32  F   UNL     1       2.916   8.301  17.148  0.00  0.00    +0.000 F 
ENDBRANCH  28  29
ENDBRANCH  27  28
ENDBRANCH  13  27
TORSDOF 7
ENDMDL
MODEL 6
REMARK VINA RESULT:      -7.4      1.585      1.887
REMARK  Name = 
REMARK  7 active torsions:
REMARK  status: ('A' for Active; 'I' for Inactive)
REMARK    1  A    between atoms: C_2  and  C_3
REMARK    2  A    between atoms: C_8  and  C_9
REMARK    3  A    between atoms: C_9  and  O_10
REMARK    4  A    between atoms: O_10  and  C_11
REMARK    5  A    between atoms: C_23  and  O_25
REMARK    6  A    between atoms: O_25  and  C_26
REMARK    7  A    between atoms: C_26  and  C_27
REMARK                            x       y       z     vdW  Elec       q    Type
REMARK                         _______ _______ _______ _____ _____    ______ ____
ROOT
ATOM      1  C   UNL     1       8.185   8.314  18.259  0.00  0.00    +0.000 A 
ATOM      2  C   UNL     1       8.288   7.099  18.888  0.00  0.00    +0.000 A 
ATOM      3  N   UNL     1       7.491   6.041  18.625  0.00  0.00    +0.000 NA
ATOM      4  C   UNL     1       6.519   6.193  17.710  0.00  0.00    +0.000 A 
ATOM      5  N   UNL     1       5.666   5.134  17.421  0.00  0.00    +0.000 N 
ATOM      6  C   UNL     1       4.352   5.510  16.850  0.00  0.00    +0.000 C 
ATOM      7  C   UNL     1       3.164   5.051  17.734  0.00  0.00    +0.000 C 
ATOM      8  C   UNL     1       2.831   3.554  17.511  0.00  0.00    +0.000 C 
ATOM      9  C   UNL     1       3.511   2.822  18.686  0.00  0.00    +0.000 C 
ATOM     10  C   UNL     1       4.443   3.894  19.263  0.00  0.00    +0.000 C 
ATOM     11  C   UNL     1       5.707   3.991  18.350  0.00  0.00    +0.000 C 
ATOM     12  N   UNL     1       3.570   5.059  19.133  0.00  0.00    +0.000 N 
ATOM     13  C   UNL     1       2.670   5.341  20.143  0.00  0.00    +0.000 C 
ATOM     14  O   UNL     1       2.705   4.847  21.261  0.00  0.00    +0.000 OA
ATOM     15  N   UNL     1       6.362   7.343  17.033  0.00  0.00    +0.000 NA
ATOM     16  C   UNL     1       7.173   8.376  17.333  0.00  0.00    +0.000 A 
ENDROOT
BRANCH   1  17
ATOM     17  O   UNL     1       9.056   9.301  18.597  0.00  0.00    +0.000 OA
BRANCH  17  18
ATOM     18  C   UNL     1       8.740  10.590  18.072  0.00  0.00    +0.000 C 
BRANCH  18  24
ATOM     19  C   UNL     1       9.344  12.977  18.759  0.00  0.00    +0.000 A 
ATOM     20  C   UNL     1      10.234  13.813  19.421  0.00  0.00    +0.000 A 
ATOM     21  N   UNL     1      11.345  13.390  20.070  0.00  0.00    +0.000 NA
ATOM     22  C   UNL     1      11.579  12.063  20.071  0.00  0.00    +0.000 A 
ATOM     23  C   UNL     1      10.758  11.142  19.444  0.00  0.00    +0.000 A 
ATOM     24  C   UNL     1       9.620  11.604  18.755  0.00  0.00    +0.000 A 
BRANCH  19  26
ATOM     25  N   UNL     1       7.298  14.025  17.566  0.00  0.00    +0.000 NA
ATOM     26  C   UNL     1       8.207  13.543  18.101  0.00  0.00    +0.000 C 
ENDBRANCH  19  26
ENDBRANCH  18  24
ENDBRANCH  17  18
ENDBRANCH   1  17
BRANCH  13  27
ATOM     27  O   UNL     1       1.694   6.199  19.739  0.00  0.00    +0.000 OA
BRANCH  27  28
ATOM     28  C   UNL     1       2.021   7.595  19.897  0.00  0.00    +0.000 C 
BRANCH  28  29
ATOM     29  C   UNL     1       1.120   8.314  20.899  0.00  0.00    +0.000 C 
ATOM     30  F   UNL     1       0.637   9.483  20.419  0.00  0.00    +0.000 F 
ATOM     31  F   UNL     1       0.068   7.553  21.270  0.00  0.00    +0.000 F 
ATOM     32  F   UNL     1       1.813   8.609  22.028  0.00  0.00    +0.000 F 
ENDBRANCH  28  29
ENDBRANCH  27  28
ENDBRANCH  13  27
TORSDOF 7
ENDMDL
MODEL 7
REMARK VINA RESULT:      -7.4      1.383      2.184
REMARK  Name = 
REMARK  7 active torsions:
REMARK  status: ('A' for Active; 'I' for Inactive)
REMARK    1  A    between atoms: C_2  and  C_3
REMARK    2  A    between atoms: C_8  and  C_9
REMARK    3  A    between atoms: C_9  and  O_10
REMARK    4  A    between atoms: O_10  and  C_11
REMARK    5  A    between atoms: C_23  and  O_25
REMARK    6  A    between atoms: O_25  and  C_26
REMARK    7  A    between atoms: C_26  and  C_27
REMARK                            x       y       z     vdW  Elec       q    Type
REMARK                         _______ _______ _______ _____ _____    ______ ____
ROOT
ATOM      1  C   UNL     1       8.474   8.499  18.552  0.00  0.00    +0.000 A 
ATOM      2  C   UNL     1       8.537   7.241  19.098  0.00  0.00    +0.000 A 
ATOM      3  N   UNL     1       7.765   6.205  18.701  0.00  0.00    +0.000 NA
ATOM      4  C   UNL     1       6.863   6.424  17.730  0.00  0.00    +0.000 A 
ATOM      5  N   UNL     1       6.039   5.389  17.303  0.00  0.00    +0.000 N 
ATOM      6  C   UNL     1       4.768   5.807  16.666  0.00  0.00    +0.000 C 
ATOM      7  C   UNL     1       3.520   5.286  17.424  0.00  0.00    +0.000 C 
ATOM      8  C   UNL     1       3.212   3.809  17.070  0.00  0.00    +0.000 C 
ATOM      9  C   UNL     1       3.807   2.993  18.235  0.00  0.00    +0.000 C 
ATOM     10  C   UNL     1       4.689   4.020  18.956  0.00  0.00    +0.000 C 
ATOM     11  C   UNL     1       6.016   4.182  18.148  0.00  0.00    +0.000 C 
ATOM     12  N   UNL     1       3.823   5.192  18.847  0.00  0.00    +0.000 N 
ATOM     13  C   UNL     1       2.850   5.401  19.805  0.00  0.00    +0.000 C 
ATOM     14  O   UNL     1       2.804   4.827  20.884  0.00  0.00    +0.000 OA
ATOM     15  N   UNL     1       6.751   7.620  17.128  0.00  0.00    +0.000 NA
ATOM     16  C   UNL     1       7.533   8.628  17.561  0.00  0.00    +0.000 A 
ENDROOT
BRANCH   1  17
ATOM     17  O   UNL     1       9.313   9.458  19.025  0.00  0.00    +0.000 OA
BRANCH  17  18
ATOM     18  C   UNL     1       9.242  10.710  18.343  0.00  0.00    +0.000 C 
BRANCH  18  24
ATOM     19  C   UNL     1      10.424  12.903  18.915  0.00  0.00    +0.000 A 
ATOM     20  C   UNL     1      10.757  13.831  19.892  0.00  0.00    +0.000 A 
ATOM     21  N   UNL     1      10.392  13.739  21.193  0.00  0.00    +0.000 NA
ATOM     22  C   UNL     1       9.645  12.671  21.539  0.00  0.00    +0.000 A 
ATOM     23  C   UNL     1       9.256  11.688  20.646  0.00  0.00    +0.000 A 
ATOM     24  C   UNL     1       9.666  11.791  19.302  0.00  0.00    +0.000 A 
BRANCH  19  26
ATOM     25  N   UNL     1      11.238  13.245  16.479  0.00  0.00    +0.000 NA
ATOM     26  C   UNL     1      10.877  13.105  17.573  0.00  0.00    +0.000 C 
ENDBRANCH  19  26
ENDBRANCH  18  24
ENDBRANCH  17  18
ENDBRANCH   1  17
BRANCH  13  27
ATOM     27  O   UNL     1       1.902   6.286  19.393  0.00  0.00    +0.000 OA
BRANCH  27  28
ATOM     28  C   UNL     1       2.163   7.656  19.761  0.00  0.00    +0.000 C 
BRANCH  28  29
ATOM     29  C   UNL     1       1.207   8.186  20.828  0.00  0.00    +0.000 C 
ATOM     30  F   UNL     1       0.412   7.218  21.340  0.00  0.00    +0.000 F 
ATOM     31  F   UNL     1       1.867   8.766  21.854  0.00  0.00    +0.000 F 
ATOM     32  F   UNL     1       0.387   9.129  20.299  0.00  0.00    +0.000 F 
ENDBRANCH  28  29
ENDBRANCH  27  28
ENDBRANCH  13  27
TORSDOF 7
ENDMDL
MODEL 8
REMARK VINA RESULT:      -7.3      5.413      9.347
REMARK  Name = 
REMARK  7 active torsions:
REMARK  status: ('A' for Active; 'I' for Inactive)
REMARK    1  A    between atoms: C_2  and  C_3
REMARK    2  A    between atoms: C_8  and  C_9
REMARK    3  A    between atoms: C_9  and  O_10
REMARK    4  A    between atoms: O_10  and  C_11
REMARK    5  A    between atoms: C_23  and  O_25
REMARK    6  A    between atoms: O_25  and  C_26
REMARK    7  A    between atoms: C_26  and  C_27
REMARK                            x       y       z     vdW  Elec       q    Type
REMARK                         _______ _______ _______ _____ _____    ______ ____
ROOT
ATOM      1  C   UNL     1       2.204   7.892  18.964  0.00  0.00    +0.000 A 
ATOM      2  C   UNL     1       1.736   8.123  20.233  0.00  0.00    +0.000 A 
ATOM      3  N   UNL     1       0.826   9.072  20.543  0.00  0.00    +0.000 NA
ATOM      4  C   UNL     1       0.369   9.857  19.552  0.00  0.00    +0.000 A 
ATOM      5  N   UNL     1      -0.557  10.856  19.831  0.00  0.00    +0.000 N 
ATOM      6  C   UNL     1      -0.597  11.976  18.862  0.00  0.00    +0.000 C 
ATOM      7  C   UNL     1      -0.269  13.344  19.515  0.00  0.00    +0.000 C 
ATOM      8  C   UNL     1      -1.498  13.936  20.250  0.00  0.00    +0.000 C 
ATOM      9  C   UNL     1      -1.274  13.586  21.735  0.00  0.00    +0.000 C 
ATOM     10  C   UNL     1      -0.147  12.547  21.675  0.00  0.00    +0.000 C 
ATOM     11  C   UNL     1      -0.764  11.176  21.254  0.00  0.00    +0.000 C 
ATOM     12  N   UNL     1       0.665  13.142  20.616  0.00  0.00    +0.000 N 
ATOM     13  C   UNL     1       1.606  14.098  20.946  0.00  0.00    +0.000 C 
ATOM     14  O   UNL     1       2.001  14.319  22.082  0.00  0.00    +0.000 OA
ATOM     15  N   UNL     1       0.759   9.685  18.279  0.00  0.00    +0.000 NA
ATOM     16  C   UNL     1       1.675   8.732  18.016  0.00  0.00    +0.000 A 
ENDROOT
BRANCH   1  17
ATOM     17  O   UNL     1       3.110   6.897  18.773  0.00  0.00    +0.000 OA
BRANCH  17  18
ATOM     18  C   UNL     1       3.065   5.848  19.740  0.00  0.00    +0.000 C 
BRANCH  18  24
ATOM     19  C   UNL     1       2.414   3.377  19.686  0.00  0.00    +0.000 A 
ATOM     20  C   UNL     1       2.160   2.252  18.913  0.00  0.00    +0.000 A 
ATOM     21  N   UNL     1       2.218   2.222  17.561  0.00  0.00    +0.000 NA
ATOM     22  C   UNL     1       2.534   3.376  16.941  0.00  0.00    +0.000 A 
ATOM     23  C   UNL     1       2.805   4.555  17.614  0.00  0.00    +0.000 A 
ATOM     24  C   UNL     1       2.761   4.560  19.022  0.00  0.00    +0.000 A 
BRANCH  19  26
ATOM     25  N   UNL     1       2.287   3.207  22.268  0.00  0.00    +0.000 NA
ATOM     26  C   UNL     1       2.330   3.282  21.111  0.00  0.00    +0.000 C 
ENDBRANCH  19  26
ENDBRANCH  18  24
ENDBRANCH  17  18
ENDBRANCH   1  17
BRANCH  13  27
ATOM     27  O   UNL     1       2.012  14.817  19.864  0.00  0.00    +0.000 OA
BRANCH  27  28
ATOM     28  C   UNL     1       3.440  14.832  19.657  0.00  0.00    +0.000 C 
BRANCH  28  29
ATOM     29  C   UNL     1       3.854  14.321  18.279  0.00  0.00    +0.000 C 
ATOM     30  F   UNL     1       3.431  13.058  18.044  0.00  0.00    +0.000 F 
ATOM     31  F   UNL     1       3.385  15.107  17.286  0.00  0.00    +0.000 F 
ATOM     32  F   UNL     1       5.207  14.308  18.170  0.00  0.00    +0.000 F 
ENDBRANCH  28  29
ENDBRANCH  27  28
ENDBRANCH  13  27
TORSDOF 7
ENDMDL
MODEL 9
REMARK VINA RESULT:      -7.3      5.771      9.419
REMARK  Name = 
REMARK  7 active torsions:
REMARK  status: ('A' for Active; 'I' for Inactive)
REMARK    1  A    between atoms: C_2  and  C_3
REMARK    2  A    between atoms: C_8  and  C_9
REMARK    3  A    between atoms: C_9  and  O_10
REMARK    4  A    between atoms: O_10  and  C_11
REMARK    5  A    between atoms: C_23  and  O_25
REMARK    6  A    between atoms: O_25  and  C_26
REMARK    7  A    between atoms: C_26  and  C_27
REMARK                            x       y       z     vdW  Elec       q    Type
REMARK                         _______ _______ _______ _____ _____    ______ ____
ROOT
ATOM      1  C   UNL     1       2.389   7.671  18.906  0.00  0.00    +0.000 A 
ATOM      2  C   UNL     1       1.833   7.930  20.134  0.00  0.00    +0.000 A 
ATOM      3  N   UNL     1       0.938   8.915  20.367  0.00  0.00    +0.000 NA
ATOM      4  C   UNL     1       0.589   9.708  19.339  0.00  0.00    +0.000 A 
ATOM      5  N   UNL     1      -0.317  10.744  19.539  0.00  0.00    +0.000 N 
ATOM      6  C   UNL     1      -0.240  11.856  18.563  0.00  0.00    +0.000 C 
ATOM      7  C   UNL     1       0.088  13.215  19.232  0.00  0.00    +0.000 C 
ATOM      8  C   UNL     1      -1.170  13.859  19.865  0.00  0.00    +0.000 C 
ATOM      9  C   UNL     1      -1.075  13.515  21.365  0.00  0.00    +0.000 C 
ATOM     10  C   UNL     1       0.013  12.434  21.399  0.00  0.00    +0.000 C 
ATOM     11  C   UNL     1      -0.622  11.083  20.940  0.00  0.00    +0.000 C 
ATOM     12  N   UNL     1       0.926  12.989  20.403  0.00  0.00    +0.000 N 
ATOM     13  C   UNL     1       1.874  13.912  20.799  0.00  0.00    +0.000 C 
ATOM     14  O   UNL     1       2.189  14.128  21.961  0.00  0.00    +0.000 OA
ATOM     15  N   UNL     1       1.070   9.510  18.100  0.00  0.00    +0.000 NA
ATOM     16  C   UNL     1       1.967   8.522  17.915  0.00  0.00    +0.000 A 
ENDROOT
BRANCH   1  17
ATOM     17  O   UNL     1       3.268   6.641  18.792  0.00  0.00    +0.000 OA
BRANCH  17  18
ATOM     18  C   UNL     1       3.033   5.769  17.686  0.00  0.00    +0.000 C 
BRANCH  18  24
ATOM     19  C   UNL     1       3.795   3.593  18.790  0.00  0.00    +0.000 A 
ATOM     20  C   UNL     1       3.446   2.330  19.249  0.00  0.00    +0.000 A 
ATOM     21  N   UNL     1       2.195   1.814  19.195  0.00  0.00    +0.000 NA
ATOM     22  C   UNL     1       1.237   2.601  18.666  0.00  0.00    +0.000 A 
ATOM     23  C   UNL     1       1.475   3.874  18.180  0.00  0.00    +0.000 A 
ATOM     24  C   UNL     1       2.787   4.384  18.225  0.00  0.00    +0.000 A 
BRANCH  19  26
ATOM     25  N   UNL     1       6.257   4.382  18.954  0.00  0.00    +0.000 NA
ATOM     26  C   UNL     1       5.155   4.025  18.894  0.00  0.00    +0.000 C 
ENDBRANCH  19  26
ENDBRANCH  18  24
ENDBRANCH  17  18
ENDBRANCH   1  17
BRANCH  13  27
ATOM     27  O   UNL     1       2.390  14.605  19.748  0.00  0.00    +0.000 OA
BRANCH  27  28
ATOM     28  C   UNL     1       2.522  16.024  19.973  0.00  0.00    +0.000 C 
BRANCH  28  29
ATOM     29  C   UNL     1       1.331  16.828  19.457  0.00  0.00    +0.000 C 
ATOM     30  F   UNL     1       0.289  16.826  20.320  0.00  0.00    +0.000 F 
ATOM     31  F   UNL     1       1.659  18.114  19.208  0.00  0.00    +0.000 F 
ATOM     32  F   UNL     1       0.876  16.301  18.292  0.00  0.00    +0.000 F 
ENDBRANCH  28  29
ENDBRANCH  27  28
ENDBRANCH  13  27
TORSDOF 7
ENDMDL
