MODEL 1
REMARK VINA RESULT:      -8.0      0.000      0.000
REMARK  Name = 
REMARK  6 active torsions:
REMARK  status: ('A' for Active; 'I' for Inactive)
REMARK    1  A    between atoms: C_1  and  O_2
REMARK    2  A    between atoms: O_2  and  C_3
REMARK    3  A    between atoms: C_7  and  N_8
REMARK    4  A    between atoms: C_9  and  C_11
REMARK    5  A    between atoms: C_11  and  N_12
REMARK    6  A    between atoms: C_14  and  C_15
REMARK                            x       y       z     vdW  Elec       q    Type
REMARK                         _______ _______ _______ _____ _____    ______ ____
ROOT
ATOM      1  N   UNL     1       5.893   4.514  15.795  0.00  0.00    +0.000 N 
ATOM      2  C   UNL     1       6.695   4.556  16.921  0.00  0.00    +0.000 C 
ATOM      3  O   UNL     1       7.926   4.488  16.936  0.00  0.00    +0.000 OA
ATOM      4  H   UNL     1       4.893   4.473  15.944  0.00  0.00    +0.000 HD
ENDROOT
BRANCH   1   9
ATOM      5  C   UNL     1       6.128   3.260  12.312  0.00  0.00    +0.000 A 
ATOM      6  C   UNL     1       7.158   4.039  11.807  0.00  0.00    +0.000 A 
ATOM      7  C   UNL     1       7.766   5.011  12.596  0.00  0.00    +0.000 A 
ATOM      8  C   UNL     1       7.353   5.183  13.913  0.00  0.00    +0.000 A 
ATOM      9  C   UNL     1       6.326   4.397  14.459  0.00  0.00    +0.000 A 
ATOM     10  C   UNL     1       5.695   3.448  13.640  0.00  0.00    +0.000 A 
BRANCH   5  12
ATOM     11  C   UNL     1       6.431   1.229  11.098  0.00  0.00    +0.000 C 
ATOM     12  O   UNL     1       5.632   2.354  11.427  0.00  0.00    +0.000 OA
ENDBRANCH   5  12
ENDBRANCH   1   9
BRANCH   2  13
ATOM     13  C   UNL     1       5.959   4.833  18.197  0.00  0.00    +0.000 C 
BRANCH  13  14
ATOM     14  N   UNL     1       4.499   4.827  18.221  0.00  0.00    +0.000 N 
ATOM     15  C   UNL     1       3.848   6.041  18.067  0.00  0.00    +0.000 A 
ATOM     16  C   UNL     1       2.792   5.953  18.945  0.00  0.00    +0.000 A 
ATOM     17  C   UNL     1       2.386   4.603  18.854  0.00  0.00    +0.000 A 
ATOM     18  C   UNL     1       1.177   3.930  19.109  0.00  0.00    +0.000 A 
ATOM     19  C   UNL     1       1.157   2.540  19.071  0.00  0.00    +0.000 A 
ATOM     20  C   UNL     1       2.344   1.829  18.910  0.00  0.00    +0.000 A 
ATOM     21  C   UNL     1       3.568   2.480  18.681  0.00  0.00    +0.000 A 
ATOM     22  C   UNL     1       3.556   3.876  18.557  0.00  0.00    +0.000 A 
BRANCH  16  23
ATOM     23  C   UNL     1       2.271   7.011  19.779  0.00  0.00    +0.000 C 
ATOM     24  O   UNL     1       1.663   6.808  20.826  0.00  0.00    +0.000 OA
ENDBRANCH  16  23
ENDBRANCH  13  14
ENDBRANCH   2  13
TORSDOF 5
ENDMDL
MODEL 2
REMARK VINA RESULT:      -7.9      1.228      1.281
REMARK  Name = 
REMARK  6 active torsions:
REMARK  status: ('A' for Active; 'I' for Inactive)
REMARK    1  A    between atoms: C_1  and  O_2
REMARK    2  A    between atoms: O_2  and  C_3
REMARK    3  A    between atoms: C_7  and  N_8
REMARK    4  A    between atoms: C_9  and  C_11
REMARK    5  A    between atoms: C_11  and  N_12
REMARK    6  A    between atoms: C_14  and  C_15
REMARK                            x       y       z     vdW  Elec       q    Type
REMARK                         _______ _______ _______ _____ _____    ______ ____
ROOT
ATOM      1  N   UNL     1       6.029   4.809  15.895  0.00  0.00    +0.000 N 
ATOM      2  C   UNL     1       5.521   5.973  16.444  0.00  0.00    +0.000 C 
ATOM      3  O   UNL     1       5.286   7.019  15.835  0.00  0.00    +0.000 OA
ATOM      4  H   UNL     1       6.271   4.066  16.537  0.00  0.00    +0.000 HD
ENDROOT
BRANCH   1   9
ATOM      5  C   UNL     1       5.870   3.453  12.446  0.00  0.00    +0.000 A 
ATOM      6  C   UNL     1       6.979   4.048  11.864  0.00  0.00    +0.000 A 
ATOM      7  C   UNL     1       7.774   4.931  12.590  0.00  0.00    +0.000 A 
ATOM      8  C   UNL     1       7.468   5.196  13.920  0.00  0.00    +0.000 A 
ATOM      9  C   UNL     1       6.363   4.595  14.543  0.00  0.00    +0.000 A 
ATOM     10  C   UNL     1       5.546   3.738  13.788  0.00  0.00    +0.000 A 
BRANCH   5  12
ATOM     11  C   UNL     1       3.938   3.045  11.109  0.00  0.00    +0.000 C 
ATOM     12  O   UNL     1       5.190   2.616  11.617  0.00  0.00    +0.000 OA
ENDBRANCH   5  12
ENDBRANCH   1   9
BRANCH   2  13
ATOM     13  C   UNL     1       5.123   5.858  17.885  0.00  0.00    +0.000 C 
BRANCH  13  14
ATOM     14  N   UNL     1       3.762   5.469  18.243  0.00  0.00    +0.000 N 
ATOM     15  C   UNL     1       2.857   6.481  18.526  0.00  0.00    +0.000 A 
ATOM     16  C   UNL     1       2.130   5.977  19.580  0.00  0.00    +0.000 A 
ATOM     17  C   UNL     1       2.003   4.602  19.278  0.00  0.00    +0.000 A 
ATOM     18  C   UNL     1       1.079   3.606  19.645  0.00  0.00    +0.000 A 
ATOM     19  C   UNL     1       1.337   2.284  19.296  0.00  0.00    +0.000 A 
ATOM     20  C   UNL     1       2.552   1.943  18.706  0.00  0.00    +0.000 A 
ATOM     21  C   UNL     1       3.503   2.917  18.356  0.00  0.00    +0.000 A 
ATOM     22  C   UNL     1       3.167   4.264  18.561  0.00  0.00    +0.000 A 
BRANCH  16  23
ATOM     23  C   UNL     1       1.655   6.708  20.731  0.00  0.00    +0.000 C 
ATOM     24  O   UNL     1       1.657   7.934  20.801  0.00  0.00    +0.000 OA
ENDBRANCH  16  23
ENDBRANCH  13  14
ENDBRANCH   2  13
TORSDOF 5
ENDMDL
MODEL 3
REMARK VINA RESULT:      -7.8      1.526      2.509
REMARK  Name = 
REMARK  6 active torsions:
REMARK  status: ('A' for Active; 'I' for Inactive)
REMARK    1  A    between atoms: C_1  and  O_2
REMARK    2  A    between atoms: O_2  and  C_3
REMARK    3  A    between atoms: C_7  and  N_8
REMARK    4  A    between atoms: C_9  and  C_11
REMARK    5  A    between atoms: C_11  and  N_12
REMARK    6  A    between atoms: C_14  and  C_15
REMARK                            x       y       z     vdW  Elec       q    Type
REMARK                         _______ _______ _______ _____ _____    ______ ____
ROOT
ATOM      1  N   UNL     1       5.995   5.162  15.797  0.00  0.00    +0.000 N 
ATOM      2  C   UNL     1       6.724   4.954  16.954  0.00  0.00    +0.000 C 
ATOM      3  O   UNL     1       7.827   4.408  17.027  0.00  0.00    +0.000 OA
ATOM      4  H   UNL     1       5.057   5.527  15.903  0.00  0.00    +0.000 HD
ENDROOT
BRANCH   1   9
ATOM      5  C   UNL     1       5.997   3.388  12.539  0.00  0.00    +0.000 A 
ATOM      6  C   UNL     1       7.089   3.966  11.910  0.00  0.00    +0.000 A 
ATOM      7  C   UNL     1       7.819   4.972  12.537  0.00  0.00    +0.000 A 
ATOM      8  C   UNL     1       7.464   5.381  13.818  0.00  0.00    +0.000 A 
ATOM      9  C   UNL     1       6.375   4.802  14.488  0.00  0.00    +0.000 A 
ATOM     10  C   UNL     1       5.624   3.817  13.829  0.00  0.00    +0.000 A 
BRANCH   5  12
ATOM     11  C   UNL     1       6.188   1.423  11.200  0.00  0.00    +0.000 C 
ATOM     12  O   UNL     1       5.382   2.420  11.807  0.00  0.00    +0.000 OA
ENDBRANCH   5  12
ENDBRANCH   1   9
BRANCH   2  13
ATOM     13  C   UNL     1       6.131   5.577  18.182  0.00  0.00    +0.000 C 
BRANCH  13  14
ATOM     14  N   UNL     1       5.075   4.889  18.919  0.00  0.00    +0.000 N 
ATOM     15  C   UNL     1       5.190   3.516  19.078  0.00  0.00    +0.000 A 
ATOM     16  C   UNL     1       3.898   3.067  18.928  0.00  0.00    +0.000 A 
ATOM     17  C   UNL     1       3.116   4.065  19.553  0.00  0.00    +0.000 A 
ATOM     18  C   UNL     1       1.838   4.076  20.139  0.00  0.00    +0.000 A 
ATOM     19  C   UNL     1       1.284   5.291  20.530  0.00  0.00    +0.000 A 
ATOM     20  C   UNL     1       1.936   6.484  20.226  0.00  0.00    +0.000 A 
ATOM     21  C   UNL     1       3.201   6.499  19.616  0.00  0.00    +0.000 A 
ATOM     22  C   UNL     1       3.827   5.268  19.373  0.00  0.00    +0.000 A 
BRANCH  16  23
ATOM     23  C   UNL     1       3.473   1.864  18.251  0.00  0.00    +0.000 C 
ATOM     24  O   UNL     1       2.550   1.834  17.442  0.00  0.00    +0.000 OA
ENDBRANCH  16  23
ENDBRANCH  13  14
ENDBRANCH   2  13
TORSDOF 5
ENDMDL
MODEL 4
REMARK VINA RESULT:      -7.8      1.898      2.765
REMARK  Name = 
REMARK  6 active torsions:
REMARK  status: ('A' for Active; 'I' for Inactive)
REMARK    1  A    between atoms: C_1  and  O_2
REMARK    2  A    between atoms: O_2  and  C_3
REMARK    3  A    between atoms: C_7  and  N_8
REMARK    4  A    between atoms: C_9  and  C_11
REMARK    5  A    between atoms: C_11  and  N_12
REMARK    6  A    between atoms: C_14  and  C_15
REMARK                            x       y       z     vdW  Elec       q    Type
REMARK                         _______ _______ _______ _____ _____    ______ ____
ROOT
ATOM      1  N   UNL     1       6.692   5.214  15.825  0.00  0.00    +0.000 N 
ATOM      2  C   UNL     1       5.833   6.152  16.370  0.00  0.00    +0.000 C 
ATOM      3  O   UNL     1       5.028   6.846  15.746  0.00  0.00    +0.000 OA
ATOM      4  H   UNL     1       7.372   4.796  16.447  0.00  0.00    +0.000 HD
ENDROOT
BRANCH   1   9
ATOM      5  C   UNL     1       6.011   3.512  12.600  0.00  0.00    +0.000 A 
ATOM      6  C   UNL     1       6.985   4.067  11.784  0.00  0.00    +0.000 A 
ATOM      7  C   UNL     1       7.858   5.033  12.277  0.00  0.00    +0.000 A 
ATOM      8  C   UNL     1       7.768   5.426  13.607  0.00  0.00    +0.000 A 
ATOM      9  C   UNL     1       6.804   4.870  14.463  0.00  0.00    +0.000 A 
ATOM     10  C   UNL     1       5.905   3.926  13.944  0.00  0.00    +0.000 A 
BRANCH   5  12
ATOM     11  C   UNL     1       4.117   3.031  11.233  0.00  0.00    +0.000 C 
ATOM     12  O   UNL     1       5.233   2.582  11.983  0.00  0.00    +0.000 OA
ENDBRANCH   5  12
ENDBRANCH   1   9
BRANCH   2  13
ATOM     13  C   UNL     1       5.834   6.197  17.869  0.00  0.00    +0.000 C 
BRANCH  13  14
ATOM     14  N   UNL     1       4.960   5.311  18.633  0.00  0.00    +0.000 N 
ATOM     15  C   UNL     1       5.288   3.964  18.676  0.00  0.00    +0.000 A 
ATOM     16  C   UNL     1       4.067   3.334  18.595  0.00  0.00    +0.000 A 
ATOM     17  C   UNL     1       3.207   4.159  19.353  0.00  0.00    +0.000 A 
ATOM     18  C   UNL     1       1.998   3.938  20.037  0.00  0.00    +0.000 A 
ATOM     19  C   UNL     1       1.309   5.028  20.562  0.00  0.00    +0.000 A 
ATOM     20  C   UNL     1       1.750   6.323  20.300  0.00  0.00    +0.000 A 
ATOM     21  C   UNL     1       2.940   6.570  19.595  0.00  0.00    +0.000 A 
ATOM     22  C   UNL     1       3.715   5.466  19.210  0.00  0.00    +0.000 A 
BRANCH  16  23
ATOM     23  C   UNL     1       3.764   2.126  17.863  0.00  0.00    +0.000 C 
ATOM     24  O   UNL     1       3.598   1.034  18.399  0.00  0.00    +0.000 OA
ENDBRANCH  16  23
ENDBRANCH  13  14
ENDBRANCH   2  13
TORSDOF 5
ENDMDL
MODEL 5
REMARK VINA RESULT:      -7.7      2.802      7.718
REMARK  Name = 
REMARK  6 active torsions:
REMARK  status: ('A' for Active; 'I' for Inactive)
REMARK    1  A    between atoms: C_1  and  O_2
REMARK    2  A    between atoms: O_2  and  C_3
REMARK    3  A    between atoms: C_7  and  N_8
REMARK    4  A    between atoms: C_9  and  C_11
REMARK    5  A    between atoms: C_11  and  N_12
REMARK    6  A    between atoms: C_14  and  C_15
REMARK                            x       y       z     vdW  Elec       q    Type
REMARK                         _______ _______ _______ _____ _____    ______ ____
ROOT
ATOM      1  N   UNL     1       3.107   6.716  19.529  0.00  0.00    +0.000 N 
ATOM      2  C   UNL     1       2.970   5.443  19.005  0.00  0.00    +0.000 C 
ATOM      3  O   UNL     1       2.040   5.044  18.302  0.00  0.00    +0.000 OA
ATOM      4  H   UNL     1       3.869   6.869  20.176  0.00  0.00    +0.000 HD
ENDROOT
BRANCH   1   9
ATOM      5  C   UNL     1       0.538   9.273  20.320  0.00  0.00    +0.000 A 
ATOM      6  C   UNL     1       0.375   9.891  19.089  0.00  0.00    +0.000 A 
ATOM      7  C   UNL     1       1.133   9.496  17.990  0.00  0.00    +0.000 A 
ATOM      8  C   UNL     1       2.043   8.453  18.123  0.00  0.00    +0.000 A 
ATOM      9  C   UNL     1       2.218   7.796  19.351  0.00  0.00    +0.000 A 
ATOM     10  C   UNL     1       1.477   8.231  20.461  0.00  0.00    +0.000 A 
BRANCH   5  12
ATOM     11  C   UNL     1      -0.671  11.121  21.221  0.00  0.00    +0.000 C 
ATOM     12  O   UNL     1      -0.269   9.764  21.299  0.00  0.00    +0.000 OA
ENDBRANCH   5  12
ENDBRANCH   1   9
BRANCH   2  13
ATOM     13  C   UNL     1       4.149   4.546  19.241  0.00  0.00    +0.000 C 
BRANCH  13  14
ATOM     14  N   UNL     1       5.330   4.644  18.389  0.00  0.00    +0.000 N 
ATOM     15  C   UNL     1       6.492   5.147  18.954  0.00  0.00    +0.000 A 
ATOM     16  C   UNL     1       7.027   5.922  17.951  0.00  0.00    +0.000 A 
ATOM     17  C   UNL     1       6.745   5.196  16.773  0.00  0.00    +0.000 A 
ATOM     18  C   UNL     1       7.328   5.149  15.493  0.00  0.00    +0.000 A 
ATOM     19  C   UNL     1       6.693   4.429  14.487  0.00  0.00    +0.000 A 
ATOM     20  C   UNL     1       5.437   3.872  14.715  0.00  0.00    +0.000 A 
ATOM     21  C   UNL     1       4.821   3.929  15.976  0.00  0.00    +0.000 A 
ATOM     22  C   UNL     1       5.538   4.514  17.030  0.00  0.00    +0.000 A 
BRANCH  16  23
ATOM     23  C   UNL     1       7.688   7.198  18.103  0.00  0.00    +0.000 C 
ATOM     24  O   UNL     1       7.661   8.078  17.247  0.00  0.00    +0.000 OA
ENDBRANCH  16  23
ENDBRANCH  13  14
ENDBRANCH   2  13
TORSDOF 5
ENDMDL
MODEL 6
REMARK VINA RESULT:      -7.6      1.552      2.726
REMARK  Name = 
REMARK  6 active torsions:
REMARK  status: ('A' for Active; 'I' for Inactive)
REMARK    1  A    between atoms: C_1  and  O_2
REMARK    2  A    between atoms: O_2  and  C_3
REMARK    3  A    between atoms: C_7  and  N_8
REMARK    4  A    between atoms: C_9  and  C_11
REMARK    5  A    between atoms: C_11  and  N_12
REMARK    6  A    between atoms: C_14  and  C_15
REMARK                            x       y       z     vdW  Elec       q    Type
REMARK                         _______ _______ _______ _____ _____    ______ ____
ROOT
ATOM      1  N   UNL     1       6.205   4.641  16.000  0.00  0.00    +0.000 N 
ATOM      2  C   UNL     1       7.095   4.471  17.045  0.00  0.00    +0.000 C 
ATOM      3  O   UNL     1       8.287   4.178  16.942  0.00  0.00    +0.000 OA
ATOM      4  H   UNL     1       5.232   4.775  16.240  0.00  0.00    +0.000 HD
ENDROOT
BRANCH   1   9
ATOM      5  C   UNL     1       5.978   3.471  12.486  0.00  0.00    +0.000 A 
ATOM      6  C   UNL     1       7.024   4.163  11.897  0.00  0.00    +0.000 A 
ATOM      7  C   UNL     1       7.798   5.050  12.641  0.00  0.00    +0.000 A 
ATOM      8  C   UNL     1       7.534   5.222  13.995  0.00  0.00    +0.000 A 
ATOM      9  C   UNL     1       6.493   4.522  14.625  0.00  0.00    +0.000 A 
ATOM     10  C   UNL     1       5.696   3.661  13.855  0.00  0.00    +0.000 A 
BRANCH   5  12
ATOM     11  C   UNL     1       4.034   3.042  11.172  0.00  0.00    +0.000 C 
ATOM     12  O   UNL     1       5.312   2.641  11.638  0.00  0.00    +0.000 OA
ENDBRANCH   5  12
ENDBRANCH   1   9
BRANCH   2  13
ATOM     13  C   UNL     1       6.536   4.806  18.395  0.00  0.00    +0.000 C 
BRANCH  13  14
ATOM     14  N   UNL     1       5.093   4.927  18.586  0.00  0.00    +0.000 N 
ATOM     15  C   UNL     1       4.406   3.804  19.021  0.00  0.00    +0.000 A 
ATOM     16  C   UNL     1       3.231   3.849  18.306  0.00  0.00    +0.000 A 
ATOM     17  C   UNL     1       2.923   5.227  18.245  0.00  0.00    +0.000 A 
ATOM     18  C   UNL     1       1.729   5.951  18.069  0.00  0.00    +0.000 A 
ATOM     19  C   UNL     1       1.795   7.329  17.892  0.00  0.00    +0.000 A 
ATOM     20  C   UNL     1       3.032   7.958  17.765  0.00  0.00    +0.000 A 
ATOM     21  C   UNL     1       4.238   7.251  17.909  0.00  0.00    +0.000 A 
ATOM     22  C   UNL     1       4.165   5.892  18.249  0.00  0.00    +0.000 A 
BRANCH  16  23
ATOM     23  C   UNL     1       2.524   2.728  17.732  0.00  0.00    +0.000 C 
ATOM     24  O   UNL     1       1.393   2.397  18.073  0.00  0.00    +0.000 OA
ENDBRANCH  16  23
ENDBRANCH  13  14
ENDBRANCH   2  13
TORSDOF 5
ENDMDL
MODEL 7
REMARK VINA RESULT:      -7.6      3.616      8.008
REMARK  Name = 
REMARK  6 active torsions:
REMARK  status: ('A' for Active; 'I' for Inactive)
REMARK    1  A    between atoms: C_1  and  O_2
REMARK    2  A    between atoms: O_2  and  C_3
REMARK    3  A    between atoms: C_7  and  N_8
REMARK    4  A    between atoms: C_9  and  C_11
REMARK    5  A    between atoms: C_11  and  N_12
REMARK    6  A    between atoms: C_14  and  C_15
REMARK                            x       y       z     vdW  Elec       q    Type
REMARK                         _______ _______ _______ _____ _____    ______ ____
ROOT
ATOM      1  N   UNL     1       1.682   9.319  17.877  0.00  0.00    +0.000 N 
ATOM      2  C   UNL     1       2.345   8.248  18.447  0.00  0.00    +0.000 C 
ATOM      3  O   UNL     1       2.090   7.735  19.539  0.00  0.00    +0.000 OA
ATOM      4  H   UNL     1       2.071   9.701  17.025  0.00  0.00    +0.000 HD
ENDROOT
BRANCH   1   9
ATOM      5  C   UNL     1      -1.743  10.701  18.227  0.00  0.00    +0.000 A 
ATOM      6  C   UNL     1      -1.627  11.432  19.400  0.00  0.00    +0.000 A 
ATOM      7  C   UNL     1      -0.429  11.451  20.110  0.00  0.00    +0.000 A 
ATOM      8  C   UNL     1       0.669  10.753  19.621  0.00  0.00    +0.000 A 
ATOM      9  C   UNL     1       0.589  10.019  18.427  0.00  0.00    +0.000 A 
ATOM     10  C   UNL     1      -0.635   9.975  17.743  0.00  0.00    +0.000 A 
BRANCH   5  12
ATOM     11  C   UNL     1      -3.039  10.848  16.231  0.00  0.00    +0.000 C 
ATOM     12  O   UNL     1      -2.970  10.776  17.645  0.00  0.00    +0.000 OA
ENDBRANCH   5  12
ENDBRANCH   1   9
BRANCH   2  13
ATOM     13  C   UNL     1       3.375   7.613  17.562  0.00  0.00    +0.000 C 
BRANCH  13  14
ATOM     14  N   UNL     1       3.804   6.238  17.799  0.00  0.00    +0.000 N 
ATOM     15  C   UNL     1       5.166   5.993  17.879  0.00  0.00    +0.000 A 
ATOM     16  C   UNL     1       5.315   4.791  17.227  0.00  0.00    +0.000 A 
ATOM     17  C   UNL     1       4.164   4.059  17.595  0.00  0.00    +0.000 A 
ATOM     18  C   UNL     1       3.862   2.687  17.665  0.00  0.00    +0.000 A 
ATOM     19  C   UNL     1       2.552   2.295  17.919  0.00  0.00    +0.000 A 
ATOM     20  C   UNL     1       1.537   3.248  17.973  0.00  0.00    +0.000 A 
ATOM     21  C   UNL     1       1.810   4.623  17.878  0.00  0.00    +0.000 A 
ATOM     22  C   UNL     1       3.152   5.021  17.787  0.00  0.00    +0.000 A 
BRANCH  16  23
ATOM     23  C   UNL     1       6.396   4.412  16.347  0.00  0.00    +0.000 C 
ATOM     24  O   UNL     1       7.581   4.504  16.653  0.00  0.00    +0.000 OA
ENDBRANCH  16  23
ENDBRANCH  13  14
ENDBRANCH   2  13
TORSDOF 5
ENDMDL
MODEL 8
REMARK VINA RESULT:      -7.6      3.363      8.485
REMARK  Name = 
REMARK  6 active torsions:
REMARK  status: ('A' for Active; 'I' for Inactive)
REMARK    1  A    between atoms: C_1  and  O_2
REMARK    2  A    between atoms: O_2  and  C_3
REMARK    3  A    between atoms: C_7  and  N_8
REMARK    4  A    between atoms: C_9  and  C_11
REMARK    5  A    between atoms: C_11  and  N_12
REMARK    6  A    between atoms: C_14  and  C_15
REMARK                            x       y       z     vdW  Elec       q    Type
REMARK                         _______ _______ _______ _____ _____    ______ ____
ROOT
ATOM      1  N   UNL     1       1.711   9.320  18.090  0.00  0.00    +0.000 N 
ATOM      2  C   UNL     1       2.330   8.181  18.571  0.00  0.00    +0.000 C 
ATOM      3  O   UNL     1       2.089   7.622  19.643  0.00  0.00    +0.000 OA
ATOM      4  H   UNL     1       2.086   9.726  17.243  0.00  0.00    +0.000 HD
ENDROOT
BRANCH   1   9
ATOM      5  C   UNL     1      -0.041  11.336  20.665  0.00  0.00    +0.000 A 
ATOM      6  C   UNL     1      -1.302  11.465  20.104  0.00  0.00    +0.000 A 
ATOM      7  C   UNL     1      -1.583  10.918  18.854  0.00  0.00    +0.000 A 
ATOM      8  C   UNL     1      -0.595  10.213  18.176  0.00  0.00    +0.000 A 
ATOM      9  C   UNL     1       0.686  10.050  18.726  0.00  0.00    +0.000 A 
ATOM     10  C   UNL     1       0.967  10.640  19.968  0.00  0.00    +0.000 A 
BRANCH   5  12
ATOM     11  C   UNL     1      -1.005  11.834  22.789  0.00  0.00    +0.000 C 
ATOM     12  O   UNL     1       0.085  11.920  21.887  0.00  0.00    +0.000 OA
ENDBRANCH   5  12
ENDBRANCH   1   9
BRANCH   2  13
ATOM     13  C   UNL     1       3.282   7.539  17.607  0.00  0.00    +0.000 C 
BRANCH  13  14
ATOM     14  N   UNL     1       3.754   6.176  17.835  0.00  0.00    +0.000 N 
ATOM     15  C   UNL     1       5.124   5.970  17.890  0.00  0.00    +0.000 A 
ATOM     16  C   UNL     1       5.295   4.773  17.234  0.00  0.00    +0.000 A 
ATOM     17  C   UNL     1       4.171   4.009  17.622  0.00  0.00    +0.000 A 
ATOM     18  C   UNL     1       3.910   2.628  17.696  0.00  0.00    +0.000 A 
ATOM     19  C   UNL     1       2.616   2.199  17.973  0.00  0.00    +0.000 A 
ATOM     20  C   UNL     1       1.576   3.123  18.047  0.00  0.00    +0.000 A 
ATOM     21  C   UNL     1       1.808   4.505  17.948  0.00  0.00    +0.000 A 
ATOM     22  C   UNL     1       3.136   4.941  17.833  0.00  0.00    +0.000 A 
BRANCH  16  23
ATOM     23  C   UNL     1       6.370   4.425  16.334  0.00  0.00    +0.000 C 
ATOM     24  O   UNL     1       7.558   4.518  16.632  0.00  0.00    +0.000 OA
ENDBRANCH  16  23
ENDBRANCH  13  14
ENDBRANCH   2  13
TORSDOF 5
ENDMDL
MODEL 9
REMARK VINA RESULT:      -7.5      2.711      7.600
REMARK  Name = 
REMARK  6 active torsions:
REMARK  status: ('A' for Active; 'I' for Inactive)
REMARK    1  A    between atoms: C_1  and  O_2
REMARK    2  A    between atoms: O_2  and  C_3
REMARK    3  A    between atoms: C_7  and  N_8
REMARK    4  A    between atoms: C_9  and  C_11
REMARK    5  A    between atoms: C_11  and  N_12
REMARK    6  A    between atoms: C_14  and  C_15
REMARK                            x       y       z     vdW  Elec       q    Type
REMARK                         _______ _______ _______ _____ _____    ______ ____
ROOT
ATOM      1  N   UNL     1       2.778   6.248  19.204  0.00  0.00    +0.000 N 
ATOM      2  C   UNL     1       2.364   5.132  18.499  0.00  0.00    +0.000 C 
ATOM      3  O   UNL     1       1.416   5.082  17.713  0.00  0.00    +0.000 OA
ATOM      4  H   UNL     1       3.505   6.113  19.894  0.00  0.00    +0.000 HD
ENDROOT
BRANCH   1   9
ATOM      5  C   UNL     1       0.981   9.303  20.301  0.00  0.00    +0.000 A 
ATOM      6  C   UNL     1       0.976  10.054  19.136  0.00  0.00    +0.000 A 
ATOM      7  C   UNL     1       1.595   9.579  17.982  0.00  0.00    +0.000 A 
ATOM      8  C   UNL     1       2.199   8.326  17.993  0.00  0.00    +0.000 A 
ATOM      9  C   UNL     1       2.204   7.534  19.152  0.00  0.00    +0.000 A 
ATOM     10  C   UNL     1       1.612   8.042  20.319  0.00  0.00    +0.000 A 
BRANCH   5  12
ATOM     11  C   UNL     1       0.020  11.271  21.245  0.00  0.00    +0.000 C 
ATOM     12  O   UNL     1       0.339   9.893  21.345  0.00  0.00    +0.000 OA
ENDBRANCH   5  12
ENDBRANCH   1   9
BRANCH   2  13
ATOM     13  C   UNL     1       3.259   3.939  18.646  0.00  0.00    +0.000 C 
BRANCH  13  14
ATOM     14  N   UNL     1       4.626   3.975  18.132  0.00  0.00    +0.000 N 
ATOM     15  C   UNL     1       5.661   3.914  19.052  0.00  0.00    +0.000 A 
ATOM     16  C   UNL     1       6.592   4.793  18.547  0.00  0.00    +0.000 A 
ATOM     17  C   UNL     1       6.510   4.608  17.148  0.00  0.00    +0.000 A 
ATOM     18  C   UNL     1       7.402   4.825  16.083  0.00  0.00    +0.000 A 
ATOM     19  C   UNL     1       6.942   4.688  14.778  0.00  0.00    +0.000 A 
ATOM     20  C   UNL     1       5.588   4.466  14.535  0.00  0.00    +0.000 A 
ATOM     21  C   UNL     1       4.672   4.274  15.583  0.00  0.00    +0.000 A 
ATOM     22  C   UNL     1       5.171   4.250  16.893  0.00  0.00    +0.000 A 
BRANCH  16  23
ATOM     23  C   UNL     1       7.419   5.705  19.302  0.00  0.00    +0.000 C 
ATOM     24  O   UNL     1       7.842   5.460  20.428  0.00  0.00    +0.000 OA
ENDBRANCH  16  23
ENDBRANCH  13  14
ENDBRANCH   2  13
TORSDOF 5
ENDMDL
