MODEL 1
REMARK VINA RESULT:      -8.0      0.000      0.000
REMARK  Name = 
REMARK  3 active torsions:
REMARK  status: ('A' for Active; 'I' for Inactive)
REMARK    1  A    between atoms: C_2  and  C_20
REMARK    2  A    between atoms: N_3  and  C_4
REMARK    3  A    between atoms: C_11  and  C_13
REMARK                            x       y       z     vdW  Elec       q    Type
REMARK                         _______ _______ _______ _____ _____    ______ ____
ROOT
ATOM      1  C   UNL     1       2.590   7.475  18.809  0.00  0.00    +0.000 A 
ATOM      2  C   UNL     1       2.239   7.020  20.080  0.00  0.00    +0.000 A 
ATOM      3  C   UNL     1       1.328   7.722  20.883  0.00  0.00    +0.000 A 
ATOM      4  C   UNL     1       0.751   8.910  20.406  0.00  0.00    +0.000 A 
ATOM      5  N   UNL     1      -0.224   9.662  21.045  0.00  0.00    +0.000 NA
ATOM      6  C   UNL     1      -0.507  10.719  20.325  0.00  0.00    +0.000 A 
ATOM      7  N   UNL     1      -1.480  11.611  20.718  0.00  0.00    +0.000 N 
ATOM      8  C   UNL     1      -1.723  12.849  20.168  0.00  0.00    +0.000 C 
ATOM      9  O   UNL     1      -1.059  13.360  19.258  0.00  0.00    +0.000 OA
ATOM     10  S   UNL     1       0.348  10.874  18.860  0.00  0.00    +0.000 S 
ATOM     11  C   UNL     1       1.168   9.396  19.167  0.00  0.00    +0.000 A 
ATOM     12  C   UNL     1       2.101   8.710  18.363  0.00  0.00    +0.000 A 
ATOM     13  H   UNL     1      -1.993  11.305  21.534  0.00  0.00    +0.000 HD
ENDROOT
BRANCH   1  16
ATOM     14  O   UNL     1       4.825   5.669  19.423  0.00  0.00    +0.000 OA
ATOM     15  C   UNL     1       4.459   5.904  18.274  0.00  0.00    +0.000 C 
ATOM     16  N   UNL     1       3.413   6.742  17.919  0.00  0.00    +0.000 N 
ATOM     17  H   UNL     1       3.190   6.821  16.935  0.00  0.00    +0.000 HD
BRANCH  15  18
ATOM     18  C   UNL     1       5.199   5.231  17.175  0.00  0.00    +0.000 A 
ATOM     19  C   UNL     1       6.390   5.802  16.685  0.00  0.00    +0.000 A 
ATOM     20 CL   UNL     1       7.217   7.113  17.465  0.00  0.00    +0.000 Cl
ATOM     21  C   UNL     1       7.012   5.289  15.538  0.00  0.00    +0.000 A 
ATOM     22  C   UNL     1       6.472   4.191  14.879  0.00  0.00    +0.000 A 
ATOM     23  C   UNL     1       5.319   3.590  15.377  0.00  0.00    +0.000 A 
ATOM     24  C   UNL     1       4.679   4.106  16.513  0.00  0.00    +0.000 A 
ATOM     25 CL   UNL     1       3.229   3.295  16.998  0.00  0.00    +0.000 Cl
ENDBRANCH  15  18
ENDBRANCH   1  16
BRANCH   8  26
ATOM     26  C   UNL     1      -2.910  13.622  20.779  0.00  0.00    +0.000 C 
ATOM     27  C   UNL     1      -4.387  13.291  20.432  0.00  0.00    +0.000 C 
ATOM     28  C   UNL     1      -4.733  13.604  21.904  0.00  0.00    +0.000 C 
ATOM     29  C   UNL     1      -3.279  13.240  22.244  0.00  0.00    +0.000 C 
ENDBRANCH   8  26
TORSDOF 3
ENDMDL
MODEL 2
REMARK VINA RESULT:      -7.9      0.270      1.790
REMARK  Name = 
REMARK  3 active torsions:
REMARK  status: ('A' for Active; 'I' for Inactive)
REMARK    1  A    between atoms: C_2  and  C_20
REMARK    2  A    between atoms: N_3  and  C_4
REMARK    3  A    between atoms: C_11  and  C_13
REMARK                            x       y       z     vdW  Elec       q    Type
REMARK                         _______ _______ _______ _____ _____    ______ ____
ROOT
ATOM      1  C   UNL     1       2.469   7.683  18.843  0.00  0.00    +0.000 A 
ATOM      2  C   UNL     1       2.129   7.202  20.108  0.00  0.00    +0.000 A 
ATOM      3  C   UNL     1       1.222   7.885  20.931  0.00  0.00    +0.000 A 
ATOM      4  C   UNL     1       0.639   9.081  20.482  0.00  0.00    +0.000 A 
ATOM      5  N   UNL     1      -0.334   9.816  21.144  0.00  0.00    +0.000 NA
ATOM      6  C   UNL     1      -0.626  10.888  20.448  0.00  0.00    +0.000 A 
ATOM      7  N   UNL     1      -1.598  11.768  20.866  0.00  0.00    +0.000 N 
ATOM      8  C   UNL     1      -1.848  13.016  20.342  0.00  0.00    +0.000 C 
ATOM      9  O   UNL     1      -1.193  13.547  19.438  0.00  0.00    +0.000 OA
ATOM     10  S   UNL     1       0.218  11.075  18.979  0.00  0.00    +0.000 S 
ATOM     11  C   UNL     1       1.044   9.593  19.250  0.00  0.00    +0.000 A 
ATOM     12  C   UNL     1       1.972   8.926  18.425  0.00  0.00    +0.000 A 
ATOM     13  H   UNL     1      -2.104  11.445  21.679  0.00  0.00    +0.000 HD
ENDROOT
BRANCH   1  16
ATOM     14  O   UNL     1       4.598   5.738  19.404  0.00  0.00    +0.000 OA
ATOM     15  C   UNL     1       4.281   6.063  18.263  0.00  0.00    +0.000 C 
ATOM     16  N   UNL     1       3.286   6.970  17.932  0.00  0.00    +0.000 N 
ATOM     17  H   UNL     1       3.100   7.122  16.949  0.00  0.00    +0.000 HD
BRANCH  15  18
ATOM     18  C   UNL     1       5.026   5.427  17.145  0.00  0.00    +0.000 A 
ATOM     19  C   UNL     1       4.571   4.207  16.608  0.00  0.00    +0.000 A 
ATOM     20 CL   UNL     1       3.024   3.514  16.978  0.00  0.00    +0.000 Cl
ATOM     21  C   UNL     1       5.347   3.498  15.681  0.00  0.00    +0.000 A 
ATOM     22  C   UNL     1       6.572   4.004  15.258  0.00  0.00    +0.000 A 
ATOM     23  C   UNL     1       7.014   5.229  15.749  0.00  0.00    +0.000 A 
ATOM     24  C   UNL     1       6.254   5.937  16.690  0.00  0.00    +0.000 A 
ATOM     25 CL   UNL     1       6.942   7.423  17.254  0.00  0.00    +0.000 Cl
ENDBRANCH  15  18
ENDBRANCH   1  16
BRANCH   8  26
ATOM     26  C   UNL     1      -3.033  13.774  20.978  0.00  0.00    +0.000 C 
ATOM     27  C   UNL     1      -4.510  13.463  20.618  0.00  0.00    +0.000 C 
ATOM     28  C   UNL     1      -4.858  13.726  22.099  0.00  0.00    +0.000 C 
ATOM     29  C   UNL     1      -3.406  13.344  22.428  0.00  0.00    +0.000 C 
ENDBRANCH   8  26
TORSDOF 3
ENDMDL
MODEL 3
REMARK VINA RESULT:      -7.6      4.721      9.943
REMARK  Name = 
REMARK  3 active torsions:
REMARK  status: ('A' for Active; 'I' for Inactive)
REMARK    1  A    between atoms: C_2  and  C_20
REMARK    2  A    between atoms: N_3  and  C_4
REMARK    3  A    between atoms: C_11  and  C_13
REMARK                            x       y       z     vdW  Elec       q    Type
REMARK                         _______ _______ _______ _____ _____    ______ ____
ROOT
ATOM      1  C   UNL     1       0.145  12.782  19.729  0.00  0.00    +0.000 A 
ATOM      2  C   UNL     1      -0.299  12.517  21.026  0.00  0.00    +0.000 A 
ATOM      3  C   UNL     1      -0.110  11.260  21.620  0.00  0.00    +0.000 A 
ATOM      4  C   UNL     1       0.540  10.242  20.905  0.00  0.00    +0.000 A 
ATOM      5  N   UNL     1       0.874   8.985  21.389  0.00  0.00    +0.000 NA
ATOM      6  C   UNL     1       1.445   8.285  20.440  0.00  0.00    +0.000 A 
ATOM      7  N   UNL     1       1.914   7.012  20.675  0.00  0.00    +0.000 N 
ATOM      8  C   UNL     1       2.336   6.110  19.726  0.00  0.00    +0.000 C 
ATOM      9  O   UNL     1       2.310   6.305  18.505  0.00  0.00    +0.000 OA
ATOM     10  S   UNL     1       1.627   9.072  18.939  0.00  0.00    +0.000 S 
ATOM     11  C   UNL     1       0.910  10.494  19.584  0.00  0.00    +0.000 A 
ATOM     12  C   UNL     1       0.703  11.745  18.969  0.00  0.00    +0.000 A 
ATOM     13  H   UNL     1       1.859   6.742  21.647  0.00  0.00    +0.000 HD
ENDROOT
BRANCH   1  16
ATOM     14  O   UNL     1       1.633  15.220  20.425  0.00  0.00    +0.000 OA
ATOM     15  C   UNL     1       0.812  15.181  19.511  0.00  0.00    +0.000 C 
ATOM     16  N   UNL     1       0.082  14.065  19.132  0.00  0.00    +0.000 N 
ATOM     17  H   UNL     1      -0.537  14.159  18.337  0.00  0.00    +0.000 HD
BRANCH  15  18
ATOM     18  C   UNL     1       0.587  16.437  18.749  0.00  0.00    +0.000 A 
ATOM     19  C   UNL     1      -0.661  17.086  18.826  0.00  0.00    +0.000 A 
ATOM     20 CL   UNL     1      -1.889  16.669  19.978  0.00  0.00    +0.000 Cl
ATOM     21  C   UNL     1      -0.960  18.167  17.985  0.00  0.00    +0.000 A 
ATOM     22  C   UNL     1      -0.016  18.631  17.075  0.00  0.00    +0.000 A 
ATOM     23  C   UNL     1       1.237  18.025  17.018  0.00  0.00    +0.000 A 
ATOM     24  C   UNL     1       1.540  16.932  17.842  0.00  0.00    +0.000 A 
ATOM     25 CL   UNL     1       3.115  16.244  17.636  0.00  0.00    +0.000 Cl
ENDBRANCH  15  18
ENDBRANCH   1  16
BRANCH   8  26
ATOM     26  C   UNL     1       2.855   4.765  20.277  0.00  0.00    +0.000 C 
ATOM     27  C   UNL     1       2.175   4.034  21.466  0.00  0.00    +0.000 C 
ATOM     28  C   UNL     1       2.492   2.706  20.744  0.00  0.00    +0.000 C 
ATOM     29  C   UNL     1       2.491   3.507  19.433  0.00  0.00    +0.000 C 
ENDBRANCH   8  26
TORSDOF 3
ENDMDL
MODEL 4
REMARK VINA RESULT:      -7.5      4.562     11.086
REMARK  Name = 
REMARK  3 active torsions:
REMARK  status: ('A' for Active; 'I' for Inactive)
REMARK    1  A    between atoms: C_2  and  C_20
REMARK    2  A    between atoms: N_3  and  C_4
REMARK    3  A    between atoms: C_11  and  C_13
REMARK                            x       y       z     vdW  Elec       q    Type
REMARK                         _______ _______ _______ _____ _____    ______ ____
ROOT
ATOM      1  C   UNL     1      -1.391  11.715  22.228  0.00  0.00    +0.000 A 
ATOM      2  C   UNL     1      -1.207  10.819  23.282  0.00  0.00    +0.000 A 
ATOM      3  C   UNL     1      -0.420   9.668  23.135  0.00  0.00    +0.000 A 
ATOM      4  C   UNL     1       0.201   9.402  21.904  0.00  0.00    +0.000 A 
ATOM      5  N   UNL     1       1.074   8.357  21.636  0.00  0.00    +0.000 NA
ATOM      6  C   UNL     1       1.438   8.399  20.377  0.00  0.00    +0.000 A 
ATOM      7  N   UNL     1       2.339   7.494  19.864  0.00  0.00    +0.000 N 
ATOM      8  C   UNL     1       2.638   7.305  18.534  0.00  0.00    +0.000 C 
ATOM      9  O   UNL     1       2.094   7.900  17.596  0.00  0.00    +0.000 OA
ATOM     10  S   UNL     1       0.783   9.673  19.455  0.00  0.00    +0.000 S 
ATOM     11  C   UNL     1      -0.053  10.261  20.836  0.00  0.00    +0.000 A 
ATOM     12  C   UNL     1      -0.862  11.408  20.967  0.00  0.00    +0.000 A 
ATOM     13  H   UNL     1       2.743   6.891  20.568  0.00  0.00    +0.000 HD
ENDROOT
BRANCH   1  16
ATOM     14  O   UNL     1      -4.148  12.201  23.120  0.00  0.00    +0.000 OA
ATOM     15  C   UNL     1      -3.388  13.108  22.789  0.00  0.00    +0.000 C 
ATOM     16  N   UNL     1      -2.079  12.945  22.363  0.00  0.00    +0.000 N 
ATOM     17  H   UNL     1      -1.548  13.781  22.154  0.00  0.00    +0.000 HD
BRANCH  15  18
ATOM     18  C   UNL     1      -3.919  14.495  22.854  0.00  0.00    +0.000 A 
ATOM     19  C   UNL     1      -4.556  15.051  21.727  0.00  0.00    +0.000 A 
ATOM     20 CL   UNL     1      -5.016  14.128  20.333  0.00  0.00    +0.000 Cl
ATOM     21  C   UNL     1      -4.905  16.409  21.699  0.00  0.00    +0.000 A 
ATOM     22  C   UNL     1      -4.649  17.222  22.797  0.00  0.00    +0.000 A 
ATOM     23  C   UNL     1      -4.059  16.676  23.933  0.00  0.00    +0.000 A 
ATOM     24  C   UNL     1      -3.689  15.324  23.965  0.00  0.00    +0.000 A 
ATOM     25 CL   UNL     1      -2.921  14.784  25.420  0.00  0.00    +0.000 Cl
ENDBRANCH  15  18
ENDBRANCH   1  16
BRANCH   8  26
ATOM     26  C   UNL     1       3.724   6.248  18.245  0.00  0.00    +0.000 C 
ATOM     27  C   UNL     1       3.401   4.877  17.590  0.00  0.00    +0.000 C 
ATOM     28  C   UNL     1       4.743   4.995  16.836  0.00  0.00    +0.000 C 
ATOM     29  C   UNL     1       4.609   6.518  16.991  0.00  0.00    +0.000 C 
ENDBRANCH   8  26
TORSDOF 3
ENDMDL
MODEL 5
REMARK VINA RESULT:      -7.5      2.200      2.823
REMARK  Name = 
REMARK  3 active torsions:
REMARK  status: ('A' for Active; 'I' for Inactive)
REMARK    1  A    between atoms: C_2  and  C_20
REMARK    2  A    between atoms: N_3  and  C_4
REMARK    3  A    between atoms: C_11  and  C_13
REMARK                            x       y       z     vdW  Elec       q    Type
REMARK                         _______ _______ _______ _____ _____    ______ ____
ROOT
ATOM      1  C   UNL     1       1.445   9.144  17.824  0.00  0.00    +0.000 A 
ATOM      2  C   UNL     1       1.966  10.314  18.378  0.00  0.00    +0.000 A 
ATOM      3  C   UNL     1       1.130  11.358  18.801  0.00  0.00    +0.000 A 
ATOM      4  C   UNL     1      -0.262  11.232  18.669  0.00  0.00    +0.000 A 
ATOM      5  N   UNL     1      -1.213  12.137  19.119  0.00  0.00    +0.000 NA
ATOM      6  C   UNL     1      -2.411  11.712  18.800  0.00  0.00    +0.000 A 
ATOM      7  N   UNL     1      -3.538  12.409  19.172  0.00  0.00    +0.000 N 
ATOM      8  C   UNL     1      -4.821  12.184  18.727  0.00  0.00    +0.000 C 
ATOM      9  O   UNL     1      -5.137  11.339  17.881  0.00  0.00    +0.000 OA
ATOM     10  S   UNL     1      -2.478  10.226  17.968  0.00  0.00    +0.000 S 
ATOM     11  C   UNL     1      -0.767  10.093  18.043  0.00  0.00    +0.000 A 
ATOM     12  C   UNL     1       0.066   9.049  17.592  0.00  0.00    +0.000 A 
ATOM     13  H   UNL     1      -3.339  13.192  19.780  0.00  0.00    +0.000 HD
ENDROOT
BRANCH   1  16
ATOM     14  O   UNL     1       2.594   7.103  19.599  0.00  0.00    +0.000 OA
ATOM     15  C   UNL     1       2.755   7.090  18.380  0.00  0.00    +0.000 C 
ATOM     16  N   UNL     1       2.239   8.020  17.491  0.00  0.00    +0.000 N 
ATOM     17  H   UNL     1       2.418   7.873  16.506  0.00  0.00    +0.000 HD
BRANCH  15  18
ATOM     18  C   UNL     1       3.572   5.983  17.817  0.00  0.00    +0.000 A 
ATOM     19  C   UNL     1       4.851   6.256  17.295  0.00  0.00    +0.000 A 
ATOM     20 CL   UNL     1       5.672   7.769  17.511  0.00  0.00    +0.000 Cl
ATOM     21  C   UNL     1       5.567   5.271  16.600  0.00  0.00    +0.000 A 
ATOM     22  C   UNL     1       5.032   3.999  16.437  0.00  0.00    +0.000 A 
ATOM     23  C   UNL     1       3.786   3.703  16.984  0.00  0.00    +0.000 A 
ATOM     24  C   UNL     1       3.054   4.686  17.665  0.00  0.00    +0.000 A 
ATOM     25 CL   UNL     1       1.501   4.199  18.254  0.00  0.00    +0.000 Cl
ENDBRANCH  15  18
ENDBRANCH   1  16
BRANCH   8  26
ATOM     26  C   UNL     1      -5.904  13.092  19.347  0.00  0.00    +0.000 C 
ATOM     27  C   UNL     1      -7.420  12.871  19.097  0.00  0.00    +0.000 C 
ATOM     28  C   UNL     1      -7.656  13.298  20.562  0.00  0.00    +0.000 C 
ATOM     29  C   UNL     1      -6.222  12.831  20.850  0.00  0.00    +0.000 C 
ENDBRANCH   8  26
TORSDOF 3
ENDMDL
MODEL 6
REMARK VINA RESULT:      -7.5      2.666      3.383
REMARK  Name = 
REMARK  3 active torsions:
REMARK  status: ('A' for Active; 'I' for Inactive)
REMARK    1  A    between atoms: C_2  and  C_20
REMARK    2  A    between atoms: N_3  and  C_4
REMARK    3  A    between atoms: C_11  and  C_13
REMARK                            x       y       z     vdW  Elec       q    Type
REMARK                         _______ _______ _______ _____ _____    ______ ____
ROOT
ATOM      1  C   UNL     1       1.577   8.241  20.122  0.00  0.00    +0.000 A 
ATOM      2  C   UNL     1       1.677   9.119  19.042  0.00  0.00    +0.000 A 
ATOM      3  C   UNL     1       1.070  10.383  19.067  0.00  0.00    +0.000 A 
ATOM      4  C   UNL     1       0.344  10.783  20.200  0.00  0.00    +0.000 A 
ATOM      5  N   UNL     1      -0.234  12.028  20.405  0.00  0.00    +0.000 NA
ATOM      6  C   UNL     1      -0.856  12.041  21.559  0.00  0.00    +0.000 A 
ATOM      7  N   UNL     1      -1.479  13.178  22.022  0.00  0.00    +0.000 N 
ATOM      8  C   UNL     1      -2.330  13.260  23.100  0.00  0.00    +0.000 C 
ATOM      9  O   UNL     1      -2.696  12.299  23.787  0.00  0.00    +0.000 OA
ATOM     10  S   UNL     1      -0.782  10.597  22.461  0.00  0.00    +0.000 S 
ATOM     11  C   UNL     1       0.185   9.869  21.241  0.00  0.00    +0.000 A 
ATOM     12  C   UNL     1       0.771   8.587  21.215  0.00  0.00    +0.000 A 
ATOM     13  H   UNL     1      -1.314  13.987  21.439  0.00  0.00    +0.000 HD
ENDROOT
BRANCH   1  16
ATOM     14  O   UNL     1       1.898   6.190  18.042  0.00  0.00    +0.000 OA
ATOM     15  C   UNL     1       2.381   6.076  19.167  0.00  0.00    +0.000 C 
ATOM     16  N   UNL     1       2.267   7.006  20.189  0.00  0.00    +0.000 N 
ATOM     17  H   UNL     1       2.744   6.805  21.058  0.00  0.00    +0.000 HD
BRANCH  15  18
ATOM     18  C   UNL     1       3.150   4.837  19.452  0.00  0.00    +0.000 A 
ATOM     19  C   UNL     1       4.465   4.706  18.964  0.00  0.00    +0.000 A 
ATOM     20 CL   UNL     1       5.368   6.017  18.275  0.00  0.00    +0.000 Cl
ATOM     21  C   UNL     1       5.148   3.485  19.063  0.00  0.00    +0.000 A 
ATOM     22  C   UNL     1       4.542   2.389  19.668  0.00  0.00    +0.000 A 
ATOM     23  C   UNL     1       3.259   2.517  20.192  0.00  0.00    +0.000 A 
ATOM     24  C   UNL     1       2.560   3.728  20.082  0.00  0.00    +0.000 A 
ATOM     25 CL   UNL     1       0.956   3.737  20.732  0.00  0.00    +0.000 Cl
ENDBRANCH  15  18
ENDBRANCH   1  16
BRANCH   8  26
ATOM     26  C   UNL     1      -2.852  14.676  23.423  0.00  0.00    +0.000 C 
ATOM     27  C   UNL     1      -4.351  14.968  23.701  0.00  0.00    +0.000 C 
ATOM     28  C   UNL     1      -3.887  15.995  24.757  0.00  0.00    +0.000 C 
ATOM     29  C   UNL     1      -2.595  15.172  24.877  0.00  0.00    +0.000 C 
ENDBRANCH   8  26
TORSDOF 3
ENDMDL
MODEL 7
REMARK VINA RESULT:      -7.5      2.115      3.198
REMARK  Name = 
REMARK  3 active torsions:
REMARK  status: ('A' for Active; 'I' for Inactive)
REMARK    1  A    between atoms: C_2  and  C_20
REMARK    2  A    between atoms: N_3  and  C_4
REMARK    3  A    between atoms: C_11  and  C_13
REMARK                            x       y       z     vdW  Elec       q    Type
REMARK                         _______ _______ _______ _____ _____    ______ ____
ROOT
ATOM      1  C   UNL     1       1.617   9.250  17.817  0.00  0.00    +0.000 A 
ATOM      2  C   UNL     1       2.170  10.426  18.325  0.00  0.00    +0.000 A 
ATOM      3  C   UNL     1       1.361  11.471  18.796  0.00  0.00    +0.000 A 
ATOM      4  C   UNL     1      -0.036  11.341  18.759  0.00  0.00    +0.000 A 
ATOM      5  N   UNL     1      -0.957  12.246  19.266  0.00  0.00    +0.000 NA
ATOM      6  C   UNL     1      -2.173  11.816  19.033  0.00  0.00    +0.000 A 
ATOM      7  N   UNL     1      -3.275  12.513  19.475  0.00  0.00    +0.000 N 
ATOM      8  C   UNL     1      -4.584  12.280  19.120  0.00  0.00    +0.000 C 
ATOM      9  O   UNL     1      -4.954  11.427  18.305  0.00  0.00    +0.000 OA
ATOM     10  S   UNL     1      -2.291  10.323  18.219  0.00  0.00    +0.000 S 
ATOM     11  C   UNL     1      -0.579  10.195  18.178  0.00  0.00    +0.000 A 
ATOM     12  C   UNL     1       0.225   9.149  17.680  0.00  0.00    +0.000 A 
ATOM     13  H   UNL     1      -3.037  13.301  20.062  0.00  0.00    +0.000 HD
ENDROOT
BRANCH   1  16
ATOM     14  O   UNL     1       2.654   7.075  19.497  0.00  0.00    +0.000 OA
ATOM     15  C   UNL     1       2.853   7.130  18.286  0.00  0.00    +0.000 C 
ATOM     16  N   UNL     1       2.390   8.126  17.439  0.00  0.00    +0.000 N 
ATOM     17  H   UNL     1       2.595   8.033  16.453  0.00  0.00    +0.000 HD
BRANCH  15  18
ATOM     18  C   UNL     1       3.656   6.036  17.681  0.00  0.00    +0.000 A 
ATOM     19  C   UNL     1       3.091   4.754  17.536  0.00  0.00    +0.000 A 
ATOM     20 CL   UNL     1       1.404   4.418  17.766  0.00  0.00    +0.000 Cl
ATOM     21  C   UNL     1       3.878   3.665  17.136  0.00  0.00    +0.000 A 
ATOM     22  C   UNL     1       5.227   3.840  16.852  0.00  0.00    +0.000 A 
ATOM     23  C   UNL     1       5.790   5.110  16.950  0.00  0.00    +0.000 A 
ATOM     24  C   UNL     1       5.016   6.203  17.367  0.00  0.00    +0.000 A 
ATOM     25 CL   UNL     1       5.849   7.715  17.492  0.00  0.00    +0.000 Cl
ENDBRANCH  15  18
ENDBRANCH   1  16
BRANCH   8  26
ATOM     26  C   UNL     1      -5.625  13.190  19.805  0.00  0.00    +0.000 C 
ATOM     27  C   UNL     1      -7.152  13.025  19.580  0.00  0.00    +0.000 C 
ATOM     28  C   UNL     1      -7.344  13.391  21.068  0.00  0.00    +0.000 C 
ATOM     29  C   UNL     1      -5.918  12.869  21.301  0.00  0.00    +0.000 C 
ENDBRANCH   8  26
TORSDOF 3
ENDMDL
MODEL 8
REMARK VINA RESULT:      -7.5      2.714      3.788
REMARK  Name = 
REMARK  3 active torsions:
REMARK  status: ('A' for Active; 'I' for Inactive)
REMARK    1  A    between atoms: C_2  and  C_20
REMARK    2  A    between atoms: N_3  and  C_4
REMARK    3  A    between atoms: C_11  and  C_13
REMARK                            x       y       z     vdW  Elec       q    Type
REMARK                         _______ _______ _______ _____ _____    ______ ____
ROOT
ATOM      1  C   UNL     1       1.609   8.183  20.075  0.00  0.00    +0.000 A 
ATOM      2  C   UNL     1       1.742   9.096  19.028  0.00  0.00    +0.000 A 
ATOM      3  C   UNL     1       1.184  10.381  19.101  0.00  0.00    +0.000 A 
ATOM      4  C   UNL     1       0.475  10.766  20.250  0.00  0.00    +0.000 A 
ATOM      5  N   UNL     1      -0.055  12.024  20.502  0.00  0.00    +0.000 NA
ATOM      6  C   UNL     1      -0.675  12.017  21.657  0.00  0.00    +0.000 A 
ATOM      7  N   UNL     1      -1.253  13.160  22.163  0.00  0.00    +0.000 N 
ATOM      8  C   UNL     1      -2.099  13.235  23.246  0.00  0.00    +0.000 C 
ATOM      9  O   UNL     1      -2.500  12.263  23.898  0.00  0.00    +0.000 OA
ATOM     10  S   UNL     1      -0.654  10.540  22.505  0.00  0.00    +0.000 S 
ATOM     11  C   UNL     1       0.282   9.821  21.257  0.00  0.00    +0.000 A 
ATOM     12  C   UNL     1       0.818   8.520  21.182  0.00  0.00    +0.000 A 
ATOM     13  H   UNL     1      -1.057  13.983  21.610  0.00  0.00    +0.000 HD
ENDROOT
BRANCH   1  16
ATOM     14  O   UNL     1       1.954   6.252  17.887  0.00  0.00    +0.000 OA
ATOM     15  C   UNL     1       2.379   6.052  19.022  0.00  0.00    +0.000 C 
ATOM     16  N   UNL     1       2.252   6.921  20.094  0.00  0.00    +0.000 N 
ATOM     17  H   UNL     1       2.681   6.650  20.969  0.00  0.00    +0.000 HD
BRANCH  15  18
ATOM     18  C   UNL     1       3.091   4.769  19.262  0.00  0.00    +0.000 A 
ATOM     19  C   UNL     1       2.434   3.724  19.940  0.00  0.00    +0.000 A 
ATOM     20 CL   UNL     1       0.734   3.723  20.284  0.00  0.00    +0.000 Cl
ATOM     21  C   UNL     1       3.134   2.575  20.336  0.00  0.00    +0.000 A 
ATOM     22  C   UNL     1       4.486   2.441  20.042  0.00  0.00    +0.000 A 
ATOM     23  C   UNL     1       5.138   3.448  19.335  0.00  0.00    +0.000 A 
ATOM     24  C   UNL     1       4.452   4.609  18.950  0.00  0.00    +0.000 A 
ATOM     25 CL   UNL     1       5.391   5.802  18.119  0.00  0.00    +0.000 Cl
ENDBRANCH  15  18
ENDBRANCH   1  16
BRANCH   8  26
ATOM     26  C   UNL     1      -2.566  14.656  23.622  0.00  0.00    +0.000 C 
ATOM     27  C   UNL     1      -4.066  15.049  23.696  0.00  0.00    +0.000 C 
ATOM     28  C   UNL     1      -3.706  15.939  24.905  0.00  0.00    +0.000 C 
ATOM     29  C   UNL     1      -2.510  15.003  25.140  0.00  0.00    +0.000 C 
ENDBRANCH   8  26
TORSDOF 3
ENDMDL
MODEL 9
REMARK VINA RESULT:      -7.5      4.520     11.026
REMARK  Name = 
REMARK  3 active torsions:
REMARK  status: ('A' for Active; 'I' for Inactive)
REMARK    1  A    between atoms: C_2  and  C_20
REMARK    2  A    between atoms: N_3  and  C_4
REMARK    3  A    between atoms: C_11  and  C_13
REMARK                            x       y       z     vdW  Elec       q    Type
REMARK                         _______ _______ _______ _____ _____    ______ ____
ROOT
ATOM      1  C   UNL     1      -1.296  11.540  22.300  0.00  0.00    +0.000 A 
ATOM      2  C   UNL     1      -1.121  10.597  23.314  0.00  0.00    +0.000 A 
ATOM      3  C   UNL     1      -0.339   9.449  23.118  0.00  0.00    +0.000 A 
ATOM      4  C   UNL     1       0.286   9.236  21.879  0.00  0.00    +0.000 A 
ATOM      5  N   UNL     1       1.155   8.200  21.567  0.00  0.00    +0.000 NA
ATOM      6  C   UNL     1       1.524   8.297  20.314  0.00  0.00    +0.000 A 
ATOM      7  N   UNL     1       2.423   7.411  19.764  0.00  0.00    +0.000 N 
ATOM      8  C   UNL     1       2.727   7.281  18.428  0.00  0.00    +0.000 C 
ATOM      9  O   UNL     1       2.191   7.921  17.516  0.00  0.00    +0.000 OA
ATOM     10  S   UNL     1       0.880   9.615  19.447  0.00  0.00    +0.000 S 
ATOM     11  C   UNL     1       0.041  10.144  20.850  0.00  0.00    +0.000 A 
ATOM     12  C   UNL     1      -0.763  11.288  21.029  0.00  0.00    +0.000 A 
ATOM     13  H   UNL     1       2.821   6.776  20.442  0.00  0.00    +0.000 HD
ENDROOT
BRANCH   1  16
ATOM     14  O   UNL     1      -3.769  12.068  23.797  0.00  0.00    +0.000 OA
ATOM     15  C   UNL     1      -3.149  12.950  23.207  0.00  0.00    +0.000 C 
ATOM     16  N   UNL     1      -1.979  12.767  22.488  0.00  0.00    +0.000 N 
ATOM     17  H   UNL     1      -1.549  13.586  22.078  0.00  0.00    +0.000 HD
BRANCH  15  18
ATOM     18  C   UNL     1      -3.703  14.328  23.274  0.00  0.00    +0.000 A 
ATOM     19  C   UNL     1      -3.219  15.227  24.245  0.00  0.00    +0.000 A 
ATOM     20 CL   UNL     1      -1.809  14.930  25.210  0.00  0.00    +0.000 Cl
ATOM     21  C   UNL     1      -3.843  16.467  24.447  0.00  0.00    +0.000 A 
ATOM     22  C   UNL     1      -4.937  16.836  23.673  0.00  0.00    +0.000 A 
ATOM     23  C   UNL     1      -5.399  15.975  22.682  0.00  0.00    +0.000 A 
ATOM     24  C   UNL     1      -4.794  14.726  22.483  0.00  0.00    +0.000 A 
ATOM     25 CL   UNL     1      -5.496  13.733  21.251  0.00  0.00    +0.000 Cl
ENDBRANCH  15  18
ENDBRANCH   1  16
BRANCH   8  26
ATOM     26  C   UNL     1       3.809   6.232  18.095  0.00  0.00    +0.000 C 
ATOM     27  C   UNL     1       4.573   5.446  19.194  0.00  0.00    +0.000 C 
ATOM     28  C   UNL     1       4.532   4.222  18.254  0.00  0.00    +0.000 C 
ATOM     29  C   UNL     1       3.280   4.846  17.620  0.00  0.00    +0.000 C 
ENDBRANCH   8  26
TORSDOF 3
ENDMDL
