MODEL 1
REMARK VINA RESULT:      -8.5      0.000      0.000
REMARK  Name = 
REMARK  3 active torsions:
REMARK  status: ('A' for Active; 'I' for Inactive)
REMARK    1  A    between atoms: C_5  and  C_6
REMARK    2  A    between atoms: N_8  and  C_9
REMARK    3  A    between atoms: C_16  and  C_17
REMARK                            x       y       z     vdW  Elec       q    Type
REMARK                         _______ _______ _______ _____ _____    ______ ____
ROOT
ATOM      1  C   UNL     1       3.229   4.989  18.478  0.00  0.00    +0.000 A 
ATOM      2  N   UNL     1       4.040   4.421  17.576  0.00  0.00    +0.000 NA
ATOM      3  N   UNL     1       4.444   5.425  16.755  0.00  0.00    +0.000 N 
ATOM      4  C   UNL     1       3.820   6.609  17.067  0.00  0.00    +0.000 A 
ATOM      5  C   UNL     1       3.106   6.378  18.220  0.00  0.00    +0.000 A 
ENDROOT
BRANCH   5   6
ATOM      6  C   UNL     1       2.398   7.433  18.982  0.00  0.00    +0.000 A 
ATOM      7  N   UNL     1       1.939   8.550  18.456  0.00  0.00    +0.000 NA
ATOM      8  C   UNL     1       1.287   9.194  19.478  0.00  0.00    +0.000 A 
ATOM      9  C   UNL     1       0.535  10.376  19.460  0.00  0.00    +0.000 A 
ATOM     10  C   UNL     1       0.005  10.851  20.666  0.00  0.00    +0.000 A 
ATOM     11  C   UNL     1       0.228  10.171  21.867  0.00  0.00    +0.000 A 
ATOM     12  C   UNL     1       0.952   8.973  21.900  0.00  0.00    +0.000 A 
ATOM     13  C   UNL     1       1.444   8.511  20.679  0.00  0.00    +0.000 A 
ATOM     14  N   UNL     1       2.134   7.383  20.329  0.00  0.00    +0.000 N 
ATOM     15  H   UNL     1       2.409   6.638  20.951  0.00  0.00    +0.000 HD
ENDBRANCH   5   6
BRANCH   1  20
ATOM     16  F   UNL     1       0.865   1.937  22.529  0.00  0.00    +0.000 F 
ATOM     17  C   UNL     1       1.428   2.647  21.547  0.00  0.00    +0.000 A 
ATOM     18  C   UNL     1       2.810   2.764  21.488  0.00  0.00    +0.000 A 
ATOM     19  C   UNL     1       3.396   3.526  20.477  0.00  0.00    +0.000 A 
ATOM     20  C   UNL     1       2.598   4.167  19.514  0.00  0.00    +0.000 A 
ATOM     21  C   UNL     1       1.205   3.985  19.558  0.00  0.00    +0.000 A 
ATOM     22  C   UNL     1       0.619   3.252  20.591  0.00  0.00    +0.000 A 
ENDBRANCH   1  20
BRANCH   3  23
ATOM     23  C   UNL     1       5.444   5.182  15.773  0.00  0.00    +0.000 A 
ATOM     24  C   UNL     1       5.111   4.435  14.632  0.00  0.00    +0.000 A 
ATOM     25  C   UNL     1       6.082   4.132  13.677  0.00  0.00    +0.000 A 
ATOM     26  C   UNL     1       7.392   4.567  13.857  0.00  0.00    +0.000 A 
ATOM     27  C   UNL     1       7.731   5.314  14.984  0.00  0.00    +0.000 A 
ATOM     28  C   UNL     1       6.761   5.630  15.942  0.00  0.00    +0.000 A 
ENDBRANCH   3  23
TORSDOF 3
ENDMDL
MODEL 2
REMARK VINA RESULT:      -8.3      0.117      1.321
REMARK  Name = 
REMARK  3 active torsions:
REMARK  status: ('A' for Active; 'I' for Inactive)
REMARK    1  A    between atoms: C_5  and  C_6
REMARK    2  A    between atoms: N_8  and  C_9
REMARK    3  A    between atoms: C_16  and  C_17
REMARK                            x       y       z     vdW  Elec       q    Type
REMARK                         _______ _______ _______ _____ _____    ______ ____
ROOT
ATOM      1  C   UNL     1       3.252   4.930  18.484  0.00  0.00    +0.000 A 
ATOM      2  N   UNL     1       4.048   4.326  17.591  0.00  0.00    +0.000 NA
ATOM      3  N   UNL     1       4.442   5.298  16.728  0.00  0.00    +0.000 N 
ATOM      4  C   UNL     1       3.826   6.495  17.005  0.00  0.00    +0.000 A 
ATOM      5  C   UNL     1       3.129   6.309  18.177  0.00  0.00    +0.000 A 
ENDROOT
BRANCH   5   6
ATOM      6  C   UNL     1       2.437   7.394  18.910  0.00  0.00    +0.000 A 
ATOM      7  N   UNL     1       1.990   8.501  18.353  0.00  0.00    +0.000 NA
ATOM      8  C   UNL     1       1.348   9.182  19.358  0.00  0.00    +0.000 A 
ATOM      9  C   UNL     1       0.611  10.372  19.308  0.00  0.00    +0.000 A 
ATOM     10  C   UNL     1       0.089  10.887  20.501  0.00  0.00    +0.000 A 
ATOM     11  C   UNL     1       0.307  10.239  21.720  0.00  0.00    +0.000 A 
ATOM     12  C   UNL     1       1.016   9.034  21.786  0.00  0.00    +0.000 A 
ATOM     13  C   UNL     1       1.499   8.531  20.577  0.00  0.00    +0.000 A 
ATOM     14  N   UNL     1       2.175   7.385  20.258  0.00  0.00    +0.000 N 
ATOM     15  H   UNL     1       2.442   6.655  20.901  0.00  0.00    +0.000 HD
ENDBRANCH   5   6
BRANCH   1  20
ATOM     16  F   UNL     1       0.853   1.859  22.499  0.00  0.00    +0.000 F 
ATOM     17  C   UNL     1       1.427   2.610  21.555  0.00  0.00    +0.000 A 
ATOM     18  C   UNL     1       0.637   3.232  20.597  0.00  0.00    +0.000 A 
ATOM     19  C   UNL     1       1.239   3.997  19.597  0.00  0.00    +0.000 A 
ATOM     20  C   UNL     1       2.635   4.149  19.559  0.00  0.00    +0.000 A 
ATOM     21  C   UNL     1       3.409   3.561  20.574  0.00  0.00    +0.000 A 
ATOM     22  C   UNL     1       2.808   2.767  21.552  0.00  0.00    +0.000 A 
ENDBRANCH   1  20
BRANCH   3  23
ATOM     23  C   UNL     1       5.426   5.016  15.740  0.00  0.00    +0.000 A 
ATOM     24  C   UNL     1       6.712   5.561  15.885  0.00  0.00    +0.000 A 
ATOM     25  C   UNL     1       7.684   5.350  14.906  0.00  0.00    +0.000 A 
ATOM     26  C   UNL     1       7.379   4.598  13.776  0.00  0.00    +0.000 A 
ATOM     27  C   UNL     1       6.106   4.047  13.626  0.00  0.00    +0.000 A 
ATOM     28  C   UNL     1       5.129   4.247  14.607  0.00  0.00    +0.000 A 
ENDBRANCH   3  23
TORSDOF 3
ENDMDL
MODEL 3
REMARK VINA RESULT:      -8.1      0.218      1.471
REMARK  Name = 
REMARK  3 active torsions:
REMARK  status: ('A' for Active; 'I' for Inactive)
REMARK    1  A    between atoms: C_5  and  C_6
REMARK    2  A    between atoms: N_8  and  C_9
REMARK    3  A    between atoms: C_16  and  C_17
REMARK                            x       y       z     vdW  Elec       q    Type
REMARK                         _______ _______ _______ _____ _____    ______ ____
ROOT
ATOM      1  C   UNL     1       3.241   4.896  18.396  0.00  0.00    +0.000 A 
ATOM      2  N   UNL     1       4.063   4.302  17.521  0.00  0.00    +0.000 NA
ATOM      3  N   UNL     1       4.471   5.280  16.672  0.00  0.00    +0.000 N 
ATOM      4  C   UNL     1       3.840   6.471  16.939  0.00  0.00    +0.000 A 
ATOM      5  C   UNL     1       3.116   6.275  18.092  0.00  0.00    +0.000 A 
ENDROOT
BRANCH   5   6
ATOM      6  C   UNL     1       2.398   7.353  18.812  0.00  0.00    +0.000 A 
ATOM      7  N   UNL     1       2.098   7.319  20.094  0.00  0.00    +0.000 NA
ATOM      8  C   UNL     1       1.520   8.535  20.366  0.00  0.00    +0.000 A 
ATOM      9  C   UNL     1       1.096   9.075  21.587  0.00  0.00    +0.000 A 
ATOM     10  C   UNL     1       0.488  10.336  21.587  0.00  0.00    +0.000 A 
ATOM     11  C   UNL     1       0.294  11.040  20.394  0.00  0.00    +0.000 A 
ATOM     12  C   UNL     1       0.737  10.529  19.169  0.00  0.00    +0.000 A 
ATOM     13  C   UNL     1       1.364   9.284  19.205  0.00  0.00    +0.000 A 
ATOM     14  N   UNL     1       1.953   8.517  18.236  0.00  0.00    +0.000 N 
ATOM     15  H   UNL     1       2.044   8.760  17.261  0.00  0.00    +0.000 HD
ENDBRANCH   5   6
BRANCH   1  20
ATOM     16  F   UNL     1       0.848   1.971  22.523  0.00  0.00    +0.000 F 
ATOM     17  C   UNL     1       1.418   2.650  21.524  0.00  0.00    +0.000 A 
ATOM     18  C   UNL     1       2.799   2.790  21.488  0.00  0.00    +0.000 A 
ATOM     19  C   UNL     1       3.393   3.520  20.457  0.00  0.00    +0.000 A 
ATOM     20  C   UNL     1       2.603   4.106  19.453  0.00  0.00    +0.000 A 
ATOM     21  C   UNL     1       1.214   3.901  19.477  0.00  0.00    +0.000 A 
ATOM     22  C   UNL     1       0.619   3.200  20.527  0.00  0.00    +0.000 A 
ENDBRANCH   1  20
BRANCH   3  23
ATOM     23  C   UNL     1       5.482   5.009  15.707  0.00  0.00    +0.000 A 
ATOM     24  C   UNL     1       6.762   5.556  15.890  0.00  0.00    +0.000 A 
ATOM     25  C   UNL     1       7.759   5.356  14.935  0.00  0.00    +0.000 A 
ATOM     26  C   UNL     1       7.485   4.614  13.790  0.00  0.00    +0.000 A 
ATOM     27  C   UNL     1       6.218   4.062  13.602  0.00  0.00    +0.000 A 
ATOM     28  C   UNL     1       5.215   4.250  14.559  0.00  0.00    +0.000 A 
ENDBRANCH   3  23
TORSDOF 3
ENDMDL
MODEL 4
REMARK VINA RESULT:      -8.0      0.432      1.470
REMARK  Name = 
REMARK  3 active torsions:
REMARK  status: ('A' for Active; 'I' for Inactive)
REMARK    1  A    between atoms: C_5  and  C_6
REMARK    2  A    between atoms: N_8  and  C_9
REMARK    3  A    between atoms: C_16  and  C_17
REMARK                            x       y       z     vdW  Elec       q    Type
REMARK                         _______ _______ _______ _____ _____    ______ ____
ROOT
ATOM      1  C   UNL     1       3.120   5.178  18.464  0.00  0.00    +0.000 A 
ATOM      2  N   UNL     1       3.962   4.574  17.615  0.00  0.00    +0.000 NA
ATOM      3  N   UNL     1       4.381   5.540  16.758  0.00  0.00    +0.000 N 
ATOM      4  C   UNL     1       3.739   6.732  16.993  0.00  0.00    +0.000 A 
ATOM      5  C   UNL     1       2.994   6.551  18.136  0.00  0.00    +0.000 A 
ENDROOT
BRANCH   5   6
ATOM      6  C   UNL     1       2.256   7.636  18.824  0.00  0.00    +0.000 A 
ATOM      7  N   UNL     1       1.964   7.638  20.109  0.00  0.00    +0.000 NA
ATOM      8  C   UNL     1       1.361   8.849  20.343  0.00  0.00    +0.000 A 
ATOM      9  C   UNL     1       0.932   9.420  21.549  0.00  0.00    +0.000 A 
ATOM     10  C   UNL     1       0.297  10.667  21.510  0.00  0.00    +0.000 A 
ATOM     11  C   UNL     1       0.082  11.328  20.297  0.00  0.00    +0.000 A 
ATOM     12  C   UNL     1       0.530  10.787  19.086  0.00  0.00    +0.000 A 
ATOM     13  C   UNL     1       1.184   9.556  19.159  0.00  0.00    +0.000 A 
ATOM     14  N   UNL     1       1.784   8.771  18.213  0.00  0.00    +0.000 N 
ATOM     15  H   UNL     1       1.865   8.984  17.230  0.00  0.00    +0.000 HD
ENDBRANCH   5   6
BRANCH   1  20
ATOM     16  F   UNL     1       0.647   2.101  22.431  0.00  0.00    +0.000 F 
ATOM     17  C   UNL     1       1.227   2.855  21.493  0.00  0.00    +0.000 A 
ATOM     18  C   UNL     1       0.665   2.927  20.225  0.00  0.00    +0.000 A 
ATOM     19  C   UNL     1       1.284   3.696  19.238  0.00  0.00    +0.000 A 
ATOM     20  C   UNL     1       2.466   4.401  19.522  0.00  0.00    +0.000 A 
ATOM     21  C   UNL     1       2.983   4.361  20.828  0.00  0.00    +0.000 A 
ATOM     22  C   UNL     1       2.382   3.565  21.803  0.00  0.00    +0.000 A 
ENDBRANCH   1  20
BRANCH   3  23
ATOM     23  C   UNL     1       5.412   5.259  15.818  0.00  0.00    +0.000 A 
ATOM     24  C   UNL     1       5.102   4.507  14.673  0.00  0.00    +0.000 A 
ATOM     25  C   UNL     1       6.100   4.166  13.760  0.00  0.00    +0.000 A 
ATOM     26  C   UNL     1       7.413   4.569  13.984  0.00  0.00    +0.000 A 
ATOM     27  C   UNL     1       7.729   5.321  15.115  0.00  0.00    +0.000 A 
ATOM     28  C   UNL     1       6.733   5.674  16.032  0.00  0.00    +0.000 A 
ENDBRANCH   3  23
TORSDOF 3
ENDMDL
MODEL 5
REMARK VINA RESULT:      -7.8      4.065      8.287
REMARK  Name = 
REMARK  3 active torsions:
REMARK  status: ('A' for Active; 'I' for Inactive)
REMARK    1  A    between atoms: C_5  and  C_6
REMARK    2  A    between atoms: N_8  and  C_9
REMARK    3  A    between atoms: C_16  and  C_17
REMARK                            x       y       z     vdW  Elec       q    Type
REMARK                         _______ _______ _______ _____ _____    ______ ____
ROOT
ATOM      1  C   UNL     1       5.422   5.503  18.005  0.00  0.00    +0.000 A 
ATOM      2  N   UNL     1       4.649   5.255  19.071  0.00  0.00    +0.000 NA
ATOM      3  N   UNL     1       3.794   4.272  18.689  0.00  0.00    +0.000 N 
ATOM      4  C   UNL     1       3.951   3.959  17.360  0.00  0.00    +0.000 A 
ATOM      5  C   UNL     1       5.046   4.669  16.922  0.00  0.00    +0.000 A 
ENDROOT
BRANCH   5   6
ATOM      6  C   UNL     1       5.651   4.513  15.579  0.00  0.00    +0.000 A 
ATOM      7  N   UNL     1       5.325   3.568  14.721  0.00  0.00    +0.000 NA
ATOM      8  C   UNL     1       6.053   3.838  13.588  0.00  0.00    +0.000 A 
ATOM      9  C   UNL     1       6.028   3.211  12.335  0.00  0.00    +0.000 A 
ATOM     10  C   UNL     1       6.915   3.655  11.347  0.00  0.00    +0.000 A 
ATOM     11  C   UNL     1       7.817   4.693  11.604  0.00  0.00    +0.000 A 
ATOM     12  C   UNL     1       7.835   5.350  12.839  0.00  0.00    +0.000 A 
ATOM     13  C   UNL     1       6.921   4.903  13.794  0.00  0.00    +0.000 A 
ATOM     14  N   UNL     1       6.627   5.328  15.061  0.00  0.00    +0.000 N 
ATOM     15  H   UNL     1       7.055   6.106  15.540  0.00  0.00    +0.000 HD
ENDBRANCH   5   6
BRANCH   1  20
ATOM     16  F   UNL     1       9.279   9.544  18.337  0.00  0.00    +0.000 F 
ATOM     17  C   UNL     1       8.371   8.568  18.241  0.00  0.00    +0.000 A 
ATOM     18  C   UNL     1       7.247   8.750  17.446  0.00  0.00    +0.000 A 
ATOM     19  C   UNL     1       6.287   7.740  17.365  0.00  0.00    +0.000 A 
ATOM     20  C   UNL     1       6.456   6.540  18.076  0.00  0.00    +0.000 A 
ATOM     21  C   UNL     1       7.629   6.354  18.826  0.00  0.00    +0.000 A 
ATOM     22  C   UNL     1       8.571   7.379  18.933  0.00  0.00    +0.000 A 
ENDBRANCH   1  20
BRANCH   3  23
ATOM     23  C   UNL     1       2.934   3.666  19.646  0.00  0.00    +0.000 A 
ATOM     24  C   UNL     1       1.548   3.862  19.536  0.00  0.00    +0.000 A 
ATOM     25  C   UNL     1       0.680   3.328  20.490  0.00  0.00    +0.000 A 
ATOM     26  C   UNL     1       1.190   2.600  21.561  0.00  0.00    +0.000 A 
ATOM     27  C   UNL     1       2.565   2.395  21.676  0.00  0.00    +0.000 A 
ATOM     28  C   UNL     1       3.440   2.920  20.719  0.00  0.00    +0.000 A 
ENDBRANCH   3  23
TORSDOF 3
ENDMDL
MODEL 6
REMARK VINA RESULT:      -7.7      4.042      8.273
REMARK  Name = 
REMARK  3 active torsions:
REMARK  status: ('A' for Active; 'I' for Inactive)
REMARK    1  A    between atoms: C_5  and  C_6
REMARK    2  A    between atoms: N_8  and  C_9
REMARK    3  A    between atoms: C_16  and  C_17
REMARK                            x       y       z     vdW  Elec       q    Type
REMARK                         _______ _______ _______ _____ _____    ______ ____
ROOT
ATOM      1  C   UNL     1       5.400   5.543  17.996  0.00  0.00    +0.000 A 
ATOM      2  N   UNL     1       4.655   5.273  19.076  0.00  0.00    +0.000 NA
ATOM      3  N   UNL     1       3.787   4.301  18.694  0.00  0.00    +0.000 N 
ATOM      4  C   UNL     1       3.907   4.019  17.355  0.00  0.00    +0.000 A 
ATOM      5  C   UNL     1       4.992   4.736  16.904  0.00  0.00    +0.000 A 
ENDROOT
BRANCH   5   6
ATOM      6  C   UNL     1       5.561   4.609  15.543  0.00  0.00    +0.000 A 
ATOM      7  N   UNL     1       6.505   5.388  15.055  0.00  0.00    +0.000 NA
ATOM      8  C   UNL     1       6.794   4.878  13.813  0.00  0.00    +0.000 A 
ATOM      9  C   UNL     1       7.781   5.257  12.894  0.00  0.00    +0.000 A 
ATOM     10  C   UNL     1       7.836   4.597  11.661  0.00  0.00    +0.000 A 
ATOM     11  C   UNL     1       6.921   3.588  11.343  0.00  0.00    +0.000 A 
ATOM     12  C   UNL     1       5.947   3.177  12.260  0.00  0.00    +0.000 A 
ATOM     13  C   UNL     1       5.934   3.834  13.490  0.00  0.00    +0.000 A 
ATOM     14  N   UNL     1       5.177   3.670  14.618  0.00  0.00    +0.000 N 
ATOM     15  H   UNL     1       4.454   2.978  14.752  0.00  0.00    +0.000 HD
ENDBRANCH   5   6
BRANCH   1  20
ATOM     16  F   UNL     1       9.278   9.566  18.316  0.00  0.00    +0.000 F 
ATOM     17  C   UNL     1       8.365   8.595  18.223  0.00  0.00    +0.000 A 
ATOM     18  C   UNL     1       7.231   8.789  17.444  0.00  0.00    +0.000 A 
ATOM     19  C   UNL     1       6.266   7.783  17.366  0.00  0.00    +0.000 A 
ATOM     20  C   UNL     1       6.439   6.576  18.064  0.00  0.00    +0.000 A 
ATOM     21  C   UNL     1       7.621   6.378  18.796  0.00  0.00    +0.000 A 
ATOM     22  C   UNL     1       8.568   7.398  18.901  0.00  0.00    +0.000 A 
ENDBRANCH   1  20
BRANCH   3  23
ATOM     23  C   UNL     1       2.950   3.675  19.660  0.00  0.00    +0.000 A 
ATOM     24  C   UNL     1       1.568   3.917  19.622  0.00  0.00    +0.000 A 
ATOM     25  C   UNL     1       0.726   3.364  20.588  0.00  0.00    +0.000 A 
ATOM     26  C   UNL     1       1.259   2.571  21.600  0.00  0.00    +0.000 A 
ATOM     27  C   UNL     1       2.630   2.319  21.642  0.00  0.00    +0.000 A 
ATOM     28  C   UNL     1       3.479   2.863  20.672  0.00  0.00    +0.000 A 
ENDBRANCH   3  23
TORSDOF 3
ENDMDL
MODEL 7
REMARK VINA RESULT:      -7.5      1.298      6.778
REMARK  Name = 
REMARK  3 active torsions:
REMARK  status: ('A' for Active; 'I' for Inactive)
REMARK    1  A    between atoms: C_5  and  C_6
REMARK    2  A    between atoms: N_8  and  C_9
REMARK    3  A    between atoms: C_16  and  C_17
REMARK                            x       y       z     vdW  Elec       q    Type
REMARK                         _______ _______ _______ _____ _____    ______ ____
ROOT
ATOM      1  C   UNL     1       2.011   6.774  19.389  0.00  0.00    +0.000 A 
ATOM      2  N   UNL     1       1.224   7.782  19.788  0.00  0.00    +0.000 NA
ATOM      3  N   UNL     1       1.591   8.856  19.042  0.00  0.00    +0.000 N 
ATOM      4  C   UNL     1       2.670   8.566  18.242  0.00  0.00    +0.000 A 
ATOM      5  C   UNL     1       2.901   7.216  18.378  0.00  0.00    +0.000 A 
ENDROOT
BRANCH   5   6
ATOM      6  C   UNL     1       3.889   6.459  17.575  0.00  0.00    +0.000 A 
ATOM      7  N   UNL     1       3.719   5.220  17.162  0.00  0.00    +0.000 NA
ATOM      8  C   UNL     1       4.820   4.939  16.390  0.00  0.00    +0.000 A 
ATOM      9  C   UNL     1       5.115   3.800  15.629  0.00  0.00    +0.000 A 
ATOM     10  C   UNL     1       6.343   3.743  14.959  0.00  0.00    +0.000 A 
ATOM     11  C   UNL     1       7.263   4.792  15.054  0.00  0.00    +0.000 A 
ATOM     12  C   UNL     1       6.973   5.949  15.785  0.00  0.00    +0.000 A 
ATOM     13  C   UNL     1       5.731   5.988  16.419  0.00  0.00    +0.000 A 
ATOM     14  N   UNL     1       5.102   6.951  17.161  0.00  0.00    +0.000 N 
ATOM     15  H   UNL     1       5.465   7.868  17.373  0.00  0.00    +0.000 HD
ENDBRANCH   5   6
BRANCH   1  20
ATOM     16  F   UNL     1       1.465   1.797  21.890  0.00  0.00    +0.000 F 
ATOM     17  C   UNL     1       1.612   2.976  21.278  0.00  0.00    +0.000 A 
ATOM     18  C   UNL     1       2.429   3.947  21.843  0.00  0.00    +0.000 A 
ATOM     19  C   UNL     1       2.563   5.187  21.217  0.00  0.00    +0.000 A 
ATOM     20  C   UNL     1       1.884   5.455  20.016  0.00  0.00    +0.000 A 
ATOM     21  C   UNL     1       1.110   4.437  19.432  0.00  0.00    +0.000 A 
ATOM     22  C   UNL     1       0.950   3.211  20.078  0.00  0.00    +0.000 A 
ENDBRANCH   1  20
BRANCH   3  23
ATOM     23  C   UNL     1       0.838  10.062  19.112  0.00  0.00    +0.000 A 
ATOM     24  C   UNL     1       1.436  11.262  18.698  0.00  0.00    +0.000 A 
ATOM     25  C   UNL     1       0.746  12.470  18.806  0.00  0.00    +0.000 A 
ATOM     26  C   UNL     1      -0.543  12.488  19.332  0.00  0.00    +0.000 A 
ATOM     27  C   UNL     1      -1.147  11.299  19.740  0.00  0.00    +0.000 A 
ATOM     28  C   UNL     1      -0.465  10.083  19.628  0.00  0.00    +0.000 A 
ENDBRANCH   3  23
TORSDOF 3
ENDMDL
MODEL 8
REMARK VINA RESULT:      -7.4      1.182      6.795
REMARK  Name = 
REMARK  3 active torsions:
REMARK  status: ('A' for Active; 'I' for Inactive)
REMARK    1  A    between atoms: C_5  and  C_6
REMARK    2  A    between atoms: N_8  and  C_9
REMARK    3  A    between atoms: C_16  and  C_17
REMARK                            x       y       z     vdW  Elec       q    Type
REMARK                         _______ _______ _______ _____ _____    ______ ____
ROOT
ATOM      1  C   UNL     1       1.908   6.656  19.643  0.00  0.00    +0.000 A 
ATOM      2  N   UNL     1       1.120   7.636  20.105  0.00  0.00    +0.000 NA
ATOM      3  N   UNL     1       1.443   8.742  19.386  0.00  0.00    +0.000 N 
ATOM      4  C   UNL     1       2.497   8.499  18.538  0.00  0.00    +0.000 A 
ATOM      5  C   UNL     1       2.755   7.150  18.618  0.00  0.00    +0.000 A 
ENDROOT
BRANCH   5   6
ATOM      6  C   UNL     1       3.725   6.440  17.754  0.00  0.00    +0.000 A 
ATOM      7  N   UNL     1       4.821   6.982  17.262  0.00  0.00    +0.000 NA
ATOM      8  C   UNL     1       5.465   5.967  16.599  0.00  0.00    +0.000 A 
ATOM      9  C   UNL     1       6.717   5.957  15.971  0.00  0.00    +0.000 A 
ATOM     10  C   UNL     1       7.130   4.790  15.318  0.00  0.00    +0.000 A 
ATOM     11  C   UNL     1       6.308   3.658  15.281  0.00  0.00    +0.000 A 
ATOM     12  C   UNL     1       5.068   3.640  15.928  0.00  0.00    +0.000 A 
ATOM     13  C   UNL     1       4.696   4.808  16.593  0.00  0.00    +0.000 A 
ATOM     14  N   UNL     1       3.606   5.132  17.355  0.00  0.00    +0.000 N 
ATOM     15  H   UNL     1       2.840   4.517  17.584  0.00  0.00    +0.000 HD
ENDBRANCH   5   6
BRANCH   1  20
ATOM     16  F   UNL     1       1.541   1.587  21.984  0.00  0.00    +0.000 F 
ATOM     17  C   UNL     1       1.644   2.788  21.408  0.00  0.00    +0.000 A 
ATOM     18  C   UNL     1       2.533   3.723  21.921  0.00  0.00    +0.000 A 
ATOM     19  C   UNL     1       2.622   4.987  21.335  0.00  0.00    +0.000 A 
ATOM     20  C   UNL     1       1.824   5.314  20.226  0.00  0.00    +0.000 A 
ATOM     21  C   UNL     1       0.976   4.333  19.687  0.00  0.00    +0.000 A 
ATOM     22  C   UNL     1       0.863   3.082  20.296  0.00  0.00    +0.000 A 
ENDBRANCH   1  20
BRANCH   3  23
ATOM     23  C   UNL     1       0.673   9.931  19.526  0.00  0.00    +0.000 A 
ATOM     24  C   UNL     1       0.763  10.664  20.720  0.00  0.00    +0.000 A 
ATOM     25  C   UNL     1      -0.020  11.803  20.911  0.00  0.00    +0.000 A 
ATOM     26  C   UNL     1      -0.900  12.215  19.915  0.00  0.00    +0.000 A 
ATOM     27  C   UNL     1      -0.991  11.498  18.723  0.00  0.00    +0.000 A 
ATOM     28  C   UNL     1      -0.204  10.359  18.520  0.00  0.00    +0.000 A 
ENDBRANCH   3  23
TORSDOF 3
ENDMDL
MODEL 9
REMARK VINA RESULT:      -7.4      3.676      6.342
REMARK  Name = 
REMARK  3 active torsions:
REMARK  status: ('A' for Active; 'I' for Inactive)
REMARK    1  A    between atoms: C_5  and  C_6
REMARK    2  A    between atoms: N_8  and  C_9
REMARK    3  A    between atoms: C_16  and  C_17
REMARK                            x       y       z     vdW  Elec       q    Type
REMARK                         _______ _______ _______ _____ _____    ______ ____
ROOT
ATOM      1  C   UNL     1       1.029   9.917  19.665  0.00  0.00    +0.000 A 
ATOM      2  N   UNL     1       1.275   8.611  19.499  0.00  0.00    +0.000 NA
ATOM      3  N   UNL     1       2.117   8.524  18.436  0.00  0.00    +0.000 N 
ATOM      4  C   UNL     1       2.331   9.755  17.864  0.00  0.00    +0.000 A 
ATOM      5  C   UNL     1       1.718  10.675  18.684  0.00  0.00    +0.000 A 
ENDROOT
BRANCH   5   6
ATOM      6  C   UNL     1       1.829  12.142  18.511  0.00  0.00    +0.000 A 
ATOM      7  N   UNL     1       0.868  12.998  18.790  0.00  0.00    +0.000 NA
ATOM      8  C   UNL     1       1.411  14.240  18.570  0.00  0.00    +0.000 A 
ATOM      9  C   UNL     1       0.866  15.511  18.796  0.00  0.00    +0.000 A 
ATOM     10  C   UNL     1       1.620  16.636  18.438  0.00  0.00    +0.000 A 
ATOM     11  C   UNL     1       2.884  16.499  17.856  0.00  0.00    +0.000 A 
ATOM     12  C   UNL     1       3.456  15.238  17.650  0.00  0.00    +0.000 A 
ATOM     13  C   UNL     1       2.693  14.138  18.042  0.00  0.00    +0.000 A 
ATOM     14  N   UNL     1       2.941  12.792  18.038  0.00  0.00    +0.000 N 
ATOM     15  H   UNL     1       3.795  12.348  17.736  0.00  0.00    +0.000 HD
ENDBRANCH   5   6
BRANCH   1  20
ATOM     16  F   UNL     1      -2.303  11.670  23.805  0.00  0.00    +0.000 F 
ATOM     17  C   UNL     1      -1.524  11.236  22.810  0.00  0.00    +0.000 A 
ATOM     18  C   UNL     1      -0.547  10.284  23.066  0.00  0.00    +0.000 A 
ATOM     19  C   UNL     1       0.282   9.848  22.031  0.00  0.00    +0.000 A 
ATOM     20  C   UNL     1       0.129  10.362  20.732  0.00  0.00    +0.000 A 
ATOM     21  C   UNL     1      -0.905  11.280  20.484  0.00  0.00    +0.000 A 
ATOM     22  C   UNL     1      -1.710  11.740  21.527  0.00  0.00    +0.000 A 
ENDBRANCH   1  20
BRANCH   3  23
ATOM     23  C   UNL     1       2.699   7.272  18.090  0.00  0.00    +0.000 A 
ATOM     24  C   UNL     1       3.938   7.257  17.430  0.00  0.00    +0.000 A 
ATOM     25  C   UNL     1       4.509   6.050  17.027  0.00  0.00    +0.000 A 
ATOM     26  C   UNL     1       3.846   4.851  17.275  0.00  0.00    +0.000 A 
ATOM     27  C   UNL     1       2.618   4.856  17.936  0.00  0.00    +0.000 A 
ATOM     28  C   UNL     1       2.043   6.062  18.351  0.00  0.00    +0.000 A 
ENDBRANCH   3  23
TORSDOF 3
ENDMDL
