MODEL 1
REMARK VINA RESULT:      -7.9      0.000      0.000
REMARK  Name = 
REMARK  6 active torsions:
REMARK  status: ('A' for Active; 'I' for Inactive)
REMARK    1  A    between atoms: C_2  and  C_3
REMARK    2  A    between atoms: C_3  and  C_26
REMARK    3  A    between atoms: C_4  and  C_5
REMARK    4  A    between atoms: C_7  and  N_8
REMARK    5  A    between atoms: C_11  and  N_12
REMARK    6  A    between atoms: C_19  and  N_20
REMARK                            x       y       z     vdW  Elec       q    Type
REMARK                         _______ _______ _______ _____ _____    ______ ____
ROOT
ATOM      1  C   UNL     1       0.613  11.636  19.662  0.00  0.00    +0.000 A 
ATOM      2  C   UNL     1       1.548  12.390  20.380  0.00  0.00    +0.000 A 
ATOM      3  C   UNL     1       1.448  13.781  20.411  0.00  0.00    +0.000 A 
ATOM      4  C   UNL     1       0.469  14.483  19.694  0.00  0.00    +0.000 A 
ATOM      5  C   UNL     1      -0.488  13.655  19.039  0.00  0.00    +0.000 A 
ATOM      6  C   UNL     1      -0.487  12.236  19.017  0.00  0.00    +0.000 A 
ENDROOT
BRANCH   4   7
ATOM      7  N   UNL     1       0.398  15.858  19.546  0.00  0.00    +0.000 N 
ATOM      8  C   UNL     1      -0.644  16.688  20.180  0.00  0.00    +0.000 C 
ATOM      9  C   UNL     1      -1.289  17.593  19.119  0.00  0.00    +0.000 C 
ATOM     10  O   UNL     1      -0.307  18.430  18.488  0.00  0.00    +0.000 OA
ATOM     11  C   UNL     1       0.690  17.624  17.840  0.00  0.00    +0.000 C 
ATOM     12  C   UNL     1       1.395  16.672  18.820  0.00  0.00    +0.000 C 
ENDBRANCH   4   7
BRANCH   6  13
ATOM     13  N   UNL     1      -1.555  11.549  18.435  0.00  0.00    +0.000 N 
ATOM     14  C   UNL     1      -1.346  10.270  17.715  0.00  0.00    +0.000 C 
ATOM     15  C   UNL     1      -2.358  10.156  16.560  0.00  0.00    +0.000 C 
ATOM     16  O   UNL     1      -3.707  10.213  17.046  0.00  0.00    +0.000 OA
ATOM     17  C   UNL     1      -3.935  11.472  17.693  0.00  0.00    +0.000 C 
ATOM     18  C   UNL     1      -2.965  11.710  18.866  0.00  0.00    +0.000 C 
ENDBRANCH   6  13
BRANCH   3  19
ATOM     19  N   UNL     1       2.385  14.432  21.305  0.00  0.00    +0.000 N 
ATOM     20  O   UNL     1       3.569  14.489  20.940  0.00  0.00    +0.000 OA
ATOM     21  O   UNL     1       1.952  14.836  22.396  0.00  0.00    +0.000 OA
ENDBRANCH   3  19
BRANCH   1  23
ATOM     22  C   UNL     1       0.945   9.346  20.582  0.00  0.00    +0.000 C 
ATOM     23  C   UNL     1       0.947  10.222  19.547  0.00  0.00    +0.000 C 
BRANCH  22  24
ATOM     24  C   UNL     1       1.547   8.098  20.238  0.00  0.00    +0.000 A 
ATOM     25  N   UNL     1       2.168   7.845  19.094  0.00  0.00    +0.000 NA
ATOM     26  C   UNL     1       2.540   6.542  19.119  0.00  0.00    +0.000 A 
ATOM     27  C   UNL     1       3.180   5.795  18.118  0.00  0.00    +0.000 A 
ATOM     28  C   UNL     1       3.434   4.446  18.361  0.00  0.00    +0.000 A 
ATOM     29  C   UNL     1       3.066   3.868  19.579  0.00  0.00    +0.000 A 
ATOM     30  C   UNL     1       2.440   4.615  20.596  0.00  0.00    +0.000 A 
ATOM     31  C   UNL     1       2.185   5.962  20.327  0.00  0.00    +0.000 A 
ATOM     32  N   UNL     1       1.587   6.984  21.045  0.00  0.00    +0.000 N 
ATOM     33  H   UNL     1       1.223   6.903  21.982  0.00  0.00    +0.000 HD
ENDBRANCH  22  24
BRANCH  22  35
ATOM     34  N   UNL     1      -0.022  10.303  23.007  0.00  0.00    +0.000 NA
ATOM     35  C   UNL     1       0.416   9.869  21.908  0.00  0.00    +0.000 C 
ENDBRANCH  22  35
ENDBRANCH   1  23
TORSDOF 6
ENDMDL
MODEL 2
REMARK VINA RESULT:      -7.8      3.078      4.653
REMARK  Name = 
REMARK  6 active torsions:
REMARK  status: ('A' for Active; 'I' for Inactive)
REMARK    1  A    between atoms: C_2  and  C_3
REMARK    2  A    between atoms: C_3  and  C_26
REMARK    3  A    between atoms: C_4  and  C_5
REMARK    4  A    between atoms: C_7  and  N_8
REMARK    5  A    between atoms: C_11  and  N_12
REMARK    6  A    between atoms: C_19  and  N_20
REMARK                            x       y       z     vdW  Elec       q    Type
REMARK                         _______ _______ _______ _____ _____    ______ ____
ROOT
ATOM      1  C   UNL     1      -0.338  11.641  21.006  0.00  0.00    +0.000 A 
ATOM      2  C   UNL     1      -1.573  11.480  21.642  0.00  0.00    +0.000 A 
ATOM      3  C   UNL     1      -2.147  12.545  22.336  0.00  0.00    +0.000 A 
ATOM      4  C   UNL     1      -1.504  13.783  22.484  0.00  0.00    +0.000 A 
ATOM      5  C   UNL     1      -0.282  13.901  21.759  0.00  0.00    +0.000 A 
ATOM      6  C   UNL     1       0.328  12.883  20.981  0.00  0.00    +0.000 A 
ENDROOT
BRANCH   4   7
ATOM      7  N   UNL     1      -1.929  14.831  23.282  0.00  0.00    +0.000 N 
ATOM      8  C   UNL     1      -1.435  15.057  24.653  0.00  0.00    +0.000 C 
ATOM      9  C   UNL     1      -2.630  15.229  25.603  0.00  0.00    +0.000 C 
ATOM     10  O   UNL     1      -3.464  16.324  25.191  0.00  0.00    +0.000 OA
ATOM     11  C   UNL     1      -3.975  16.089  23.870  0.00  0.00    +0.000 C 
ATOM     12  C   UNL     1      -2.852  15.896  22.837  0.00  0.00    +0.000 C 
ENDBRANCH   4   7
BRANCH   6  13
ATOM     13  N   UNL     1       1.466  13.174  20.225  0.00  0.00    +0.000 N 
ATOM     14  C   UNL     1       2.747  13.542  20.875  0.00  0.00    +0.000 C 
ATOM     15  C   UNL     1       3.509  14.540  19.985  0.00  0.00    +0.000 C 
ATOM     16  O   UNL     1       3.776  13.982  18.690  0.00  0.00    +0.000 OA
ATOM     17  C   UNL     1       2.539  13.677  18.030  0.00  0.00    +0.000 C 
ATOM     18  C   UNL     1       1.675  12.691  18.838  0.00  0.00    +0.000 C 
ENDBRANCH   6  13
BRANCH   3  19
ATOM     19  N   UNL     1      -3.489  12.295  22.822  0.00  0.00    +0.000 N 
ATOM     20  O   UNL     1      -3.604  11.914  23.996  0.00  0.00    +0.000 OA
ATOM     21  O   UNL     1      -4.425  12.423  22.017  0.00  0.00    +0.000 OA
ENDBRANCH   3  19
BRANCH   1  23
ATOM     22  C   UNL     1       0.704   9.394  21.267  0.00  0.00    +0.000 C 
ATOM     23  C   UNL     1       0.237  10.404  20.492  0.00  0.00    +0.000 C 
BRANCH  22  24
ATOM     24  C   UNL     1       1.432   8.424  20.515  0.00  0.00    +0.000 A 
ATOM     25  N   UNL     1       1.925   8.621  19.300  0.00  0.00    +0.000 NA
ATOM     26  C   UNL     1       2.486   7.454  18.901  0.00  0.00    +0.000 A 
ATOM     27  C   UNL     1       3.091   7.148  17.672  0.00  0.00    +0.000 A 
ATOM     28  C   UNL     1       3.572   5.854  17.476  0.00  0.00    +0.000 A 
ATOM     29  C   UNL     1       3.461   4.900  18.491  0.00  0.00    +0.000 A 
ATOM     30  C   UNL     1       2.874   5.204  19.735  0.00  0.00    +0.000 A 
ATOM     31  C   UNL     1       2.387   6.503  19.905  0.00  0.00    +0.000 A 
ATOM     32  N   UNL     1       1.745   7.156  20.944  0.00  0.00    +0.000 N 
ATOM     33  H   UNL     1       1.527   6.750  21.841  0.00  0.00    +0.000 HD
ENDBRANCH  22  24
BRANCH  22  35
ATOM     34  N   UNL     1       0.267   9.636  24.003  0.00  0.00    +0.000 NA
ATOM     35  C   UNL     1       0.465   9.527  22.763  0.00  0.00    +0.000 C 
ENDBRANCH  22  35
ENDBRANCH   1  23
TORSDOF 6
ENDMDL
MODEL 3
REMARK VINA RESULT:      -7.8      0.489      1.152
REMARK  Name = 
REMARK  6 active torsions:
REMARK  status: ('A' for Active; 'I' for Inactive)
REMARK    1  A    between atoms: C_2  and  C_3
REMARK    2  A    between atoms: C_3  and  C_26
REMARK    3  A    between atoms: C_4  and  C_5
REMARK    4  A    between atoms: C_7  and  N_8
REMARK    5  A    between atoms: C_11  and  N_12
REMARK    6  A    between atoms: C_19  and  N_20
REMARK                            x       y       z     vdW  Elec       q    Type
REMARK                         _______ _______ _______ _____ _____    ______ ____
ROOT
ATOM      1  C   UNL     1       0.649  11.593  19.597  0.00  0.00    +0.000 A 
ATOM      2  C   UNL     1       1.593  12.346  20.302  0.00  0.00    +0.000 A 
ATOM      3  C   UNL     1       1.506  13.738  20.317  0.00  0.00    +0.000 A 
ATOM      4  C   UNL     1       0.531  14.441  19.594  0.00  0.00    +0.000 A 
ATOM      5  C   UNL     1      -0.435  13.613  18.952  0.00  0.00    +0.000 A 
ATOM      6  C   UNL     1      -0.447  12.195  18.948  0.00  0.00    +0.000 A 
ENDROOT
BRANCH   4   7
ATOM      7  N   UNL     1       0.472  15.814  19.430  0.00  0.00    +0.000 N 
ATOM      8  C   UNL     1       1.436  16.576  18.613  0.00  0.00    +0.000 C 
ATOM      9  C   UNL     1       1.984  17.751  19.438  0.00  0.00    +0.000 C 
ATOM     10  O   UNL     1       0.922  18.612  19.879  0.00  0.00    +0.000 OA
ATOM     11  C   UNL     1       0.001  17.882  20.703  0.00  0.00    +0.000 C 
ATOM     12  C   UNL     1      -0.604  16.673  19.970  0.00  0.00    +0.000 C 
ENDBRANCH   4   7
BRANCH   6  13
ATOM     13  N   UNL     1      -1.524  11.510  18.378  0.00  0.00    +0.000 N 
ATOM     14  C   UNL     1      -1.321  10.248  17.627  0.00  0.00    +0.000 C 
ATOM     15  C   UNL     1      -2.360  10.149  16.494  0.00  0.00    +0.000 C 
ATOM     16  O   UNL     1      -3.697  10.185  17.014  0.00  0.00    +0.000 OA
ATOM     17  C   UNL     1      -3.920  11.428  17.692  0.00  0.00    +0.000 C 
ATOM     18  C   UNL     1      -2.924  11.650  18.846  0.00  0.00    +0.000 C 
ENDBRANCH   6  13
BRANCH   3  19
ATOM     19  N   UNL     1       2.452  14.392  21.200  0.00  0.00    +0.000 N 
ATOM     20  O   UNL     1       2.030  14.763  22.306  0.00  0.00    +0.000 OA
ATOM     21  O   UNL     1       3.600  14.586  20.771  0.00  0.00    +0.000 OA
ENDBRANCH   3  19
BRANCH   1  23
ATOM     22  C   UNL     1       0.977   9.314  20.547  0.00  0.00    +0.000 C 
ATOM     23  C   UNL     1       0.969  10.174  19.498  0.00  0.00    +0.000 C 
BRANCH  22  24
ATOM     24  C   UNL     1       1.563   8.055  20.212  0.00  0.00    +0.000 A 
ATOM     25  N   UNL     1       2.219   7.799  19.089  0.00  0.00    +0.000 NA
ATOM     26  C   UNL     1       2.561   6.488  19.114  0.00  0.00    +0.000 A 
ATOM     27  C   UNL     1       3.220   5.736  18.130  0.00  0.00    +0.000 A 
ATOM     28  C   UNL     1       3.435   4.379  18.369  0.00  0.00    +0.000 A 
ATOM     29  C   UNL     1       3.012   3.799  19.568  0.00  0.00    +0.000 A 
ATOM     30  C   UNL     1       2.367   4.551  20.569  0.00  0.00    +0.000 A 
ATOM     31  C   UNL     1       2.151   5.906  20.304  0.00  0.00    +0.000 A 
ATOM     32  N   UNL     1       1.550   6.935  21.010  0.00  0.00    +0.000 N 
ATOM     33  H   UNL     1       1.152   6.854  21.932  0.00  0.00    +0.000 HD
ENDBRANCH  22  24
BRANCH  22  35
ATOM     34  N   UNL     1       0.055  10.316  22.972  0.00  0.00    +0.000 NA
ATOM     35  C   UNL     1       0.474   9.861  21.872  0.00  0.00    +0.000 C 
ENDBRANCH  22  35
ENDBRANCH   1  23
TORSDOF 6
ENDMDL
MODEL 4
REMARK VINA RESULT:      -7.7      3.104      4.792
REMARK  Name = 
REMARK  6 active torsions:
REMARK  status: ('A' for Active; 'I' for Inactive)
REMARK    1  A    between atoms: C_2  and  C_3
REMARK    2  A    between atoms: C_3  and  C_26
REMARK    3  A    between atoms: C_4  and  C_5
REMARK    4  A    between atoms: C_7  and  N_8
REMARK    5  A    between atoms: C_11  and  N_12
REMARK    6  A    between atoms: C_19  and  N_20
REMARK                            x       y       z     vdW  Elec       q    Type
REMARK                         _______ _______ _______ _____ _____    ______ ____
ROOT
ATOM      1  C   UNL     1      -0.387  11.708  20.955  0.00  0.00    +0.000 A 
ATOM      2  C   UNL     1      -1.628  11.541  21.577  0.00  0.00    +0.000 A 
ATOM      3  C   UNL     1      -2.192  12.589  22.305  0.00  0.00    +0.000 A 
ATOM      4  C   UNL     1      -1.534  13.813  22.499  0.00  0.00    +0.000 A 
ATOM      5  C   UNL     1      -0.307  13.940  21.785  0.00  0.00    +0.000 A 
ATOM      6  C   UNL     1       0.295  12.942  20.976  0.00  0.00    +0.000 A 
ENDROOT
BRANCH   4   7
ATOM      7  N   UNL     1      -1.951  14.838  23.330  0.00  0.00    +0.000 N 
ATOM      8  C   UNL     1      -1.438  15.030  24.700  0.00  0.00    +0.000 C 
ATOM      9  C   UNL     1      -2.621  15.173  25.670  0.00  0.00    +0.000 C 
ATOM     10  O   UNL     1      -3.463  16.276  25.299  0.00  0.00    +0.000 OA
ATOM     11  C   UNL     1      -3.992  16.075  23.979  0.00  0.00    +0.000 C 
ATOM     12  C   UNL     1      -2.883  15.912  22.927  0.00  0.00    +0.000 C 
ENDBRANCH   4   7
BRANCH   6  13
ATOM     13  N   UNL     1       1.441  13.244  20.237  0.00  0.00    +0.000 N 
ATOM     14  C   UNL     1       2.724  13.567  20.907  0.00  0.00    +0.000 C 
ATOM     15  C   UNL     1       3.506  14.587  20.059  0.00  0.00    +0.000 C 
ATOM     16  O   UNL     1       3.771  14.073  18.745  0.00  0.00    +0.000 OA
ATOM     17  C   UNL     1       2.534  13.813  18.069  0.00  0.00    +0.000 C 
ATOM     18  C   UNL     1       1.650  12.810  18.834  0.00  0.00    +0.000 C 
ENDBRANCH   6  13
BRANCH   3  19
ATOM     19  N   UNL     1      -3.541  12.340  22.774  0.00  0.00    +0.000 N 
ATOM     20  O   UNL     1      -3.671  11.970  23.951  0.00  0.00    +0.000 OA
ATOM     21  O   UNL     1      -4.466  12.458  21.955  0.00  0.00    +0.000 OA
ENDBRANCH   3  19
BRANCH   1  23
ATOM     22  C   UNL     1       0.660   9.457  21.145  0.00  0.00    +0.000 C 
ATOM     23  C   UNL     1       0.175  10.482  20.402  0.00  0.00    +0.000 C 
BRANCH  22  24
ATOM     24  C   UNL     1       1.370   8.503  20.355  0.00  0.00    +0.000 A 
ATOM     25  N   UNL     1       1.645   7.262  20.731  0.00  0.00    +0.000 NA
ATOM     26  C   UNL     1       2.383   6.698  19.743  0.00  0.00    +0.000 A 
ATOM     27  C   UNL     1       2.955   5.417  19.700  0.00  0.00    +0.000 A 
ATOM     28  C   UNL     1       3.710   5.068  18.581  0.00  0.00    +0.000 A 
ATOM     29  C   UNL     1       3.873   5.975  17.530  0.00  0.00    +0.000 A 
ATOM     30  C   UNL     1       3.286   7.255  17.557  0.00  0.00    +0.000 A 
ATOM     31  C   UNL     1       2.544   7.589  18.693  0.00  0.00    +0.000 A 
ATOM     32  N   UNL     1       1.855   8.724  19.086  0.00  0.00    +0.000 N 
ATOM     33  H   UNL     1       1.759   9.566  18.541  0.00  0.00    +0.000 HD
ENDBRANCH  22  24
BRANCH  22  35
ATOM     34  N   UNL     1       0.289   9.642  23.895  0.00  0.00    +0.000 NA
ATOM     35  C   UNL     1       0.457   9.558  22.648  0.00  0.00    +0.000 C 
ENDBRANCH  22  35
ENDBRANCH   1  23
TORSDOF 6
ENDMDL
MODEL 5
REMARK VINA RESULT:      -7.7      0.326      1.032
REMARK  Name = 
REMARK  6 active torsions:
REMARK  status: ('A' for Active; 'I' for Inactive)
REMARK    1  A    between atoms: C_2  and  C_3
REMARK    2  A    between atoms: C_3  and  C_26
REMARK    3  A    between atoms: C_4  and  C_5
REMARK    4  A    between atoms: C_7  and  N_8
REMARK    5  A    between atoms: C_11  and  N_12
REMARK    6  A    between atoms: C_19  and  N_20
REMARK                            x       y       z     vdW  Elec       q    Type
REMARK                         _______ _______ _______ _____ _____    ______ ____
ROOT
ATOM      1  C   UNL     1       0.615  11.594  19.643  0.00  0.00    +0.000 A 
ATOM      2  C   UNL     1       1.563  12.337  20.355  0.00  0.00    +0.000 A 
ATOM      3  C   UNL     1       1.517  13.730  20.336  0.00  0.00    +0.000 A 
ATOM      4  C   UNL     1       0.582  14.444  19.573  0.00  0.00    +0.000 A 
ATOM      5  C   UNL     1      -0.393  13.631  18.925  0.00  0.00    +0.000 A 
ATOM      6  C   UNL     1      -0.447  12.213  18.952  0.00  0.00    +0.000 A 
ENDROOT
BRANCH   4   7
ATOM      7  N   UNL     1       0.568  15.815  19.376  0.00  0.00    +0.000 N 
ATOM      8  C   UNL     1      -0.542  16.684  19.811  0.00  0.00    +0.000 C 
ATOM      9  C   UNL     1      -0.987  17.567  18.635  0.00  0.00    +0.000 C 
ATOM     10  O   UNL     1       0.103  18.364  18.145  0.00  0.00    +0.000 OA
ATOM     11  C   UNL     1       1.171  17.519  17.689  0.00  0.00    +0.000 C 
ATOM     12  C   UNL     1       1.687  16.585  18.796  0.00  0.00    +0.000 C 
ENDBRANCH   4   7
BRANCH   6  13
ATOM     13  N   UNL     1      -1.529  11.547  18.371  0.00  0.00    +0.000 N 
ATOM     14  C   UNL     1      -1.336  10.299  17.595  0.00  0.00    +0.000 C 
ATOM     15  C   UNL     1      -2.377  10.229  16.462  0.00  0.00    +0.000 C 
ATOM     16  O   UNL     1      -3.713  10.264  16.984  0.00  0.00    +0.000 OA
ATOM     17  C   UNL     1      -3.927  11.495  17.687  0.00  0.00    +0.000 C 
ATOM     18  C   UNL     1      -2.928  11.688  18.844  0.00  0.00    +0.000 C 
ENDBRANCH   6  13
BRANCH   3  19
ATOM     19  N   UNL     1       2.459  14.376  21.228  0.00  0.00    +0.000 N 
ATOM     20  O   UNL     1       3.636  14.460  20.845  0.00  0.00    +0.000 OA
ATOM     21  O   UNL     1       2.040  14.750  22.335  0.00  0.00    +0.000 OA
ENDBRANCH   3  19
BRANCH   1  23
ATOM     22  C   UNL     1       0.851   9.330  20.652  0.00  0.00    +0.000 C 
ATOM     23  C   UNL     1       0.895  10.165  19.584  0.00  0.00    +0.000 C 
BRANCH  22  24
ATOM     24  C   UNL     1       1.408   8.048  20.360  0.00  0.00    +0.000 A 
ATOM     25  N   UNL     1       1.183   6.946  21.063  0.00  0.00    +0.000 NA
ATOM     26  C   UNL     1       1.934   5.960  20.514  0.00  0.00    +0.000 A 
ATOM     27  C   UNL     1       2.076   4.629  20.936  0.00  0.00    +0.000 A 
ATOM     28  C   UNL     1       2.942   3.799  20.226  0.00  0.00    +0.000 A 
ATOM     29  C   UNL     1       3.635   4.290  19.116  0.00  0.00    +0.000 A 
ATOM     30  C   UNL     1       3.484   5.618  18.674  0.00  0.00    +0.000 A 
ATOM     31  C   UNL     1       2.621   6.436  19.408  0.00  0.00    +0.000 A 
ATOM     32  N   UNL     1       2.239   7.763  19.302  0.00  0.00    +0.000 N 
ATOM     33  H   UNL     1       2.547   8.403  18.586  0.00  0.00    +0.000 HD
ENDBRANCH  22  24
BRANCH  22  35
ATOM     34  N   UNL     1      -0.098  10.415  23.030  0.00  0.00    +0.000 NA
ATOM     35  C   UNL     1       0.333   9.923  21.951  0.00  0.00    +0.000 C 
ENDBRANCH  22  35
ENDBRANCH   1  23
TORSDOF 6
ENDMDL
MODEL 6
REMARK VINA RESULT:      -7.6      0.578      1.537
REMARK  Name = 
REMARK  6 active torsions:
REMARK  status: ('A' for Active; 'I' for Inactive)
REMARK    1  A    between atoms: C_2  and  C_3
REMARK    2  A    between atoms: C_3  and  C_26
REMARK    3  A    between atoms: C_4  and  C_5
REMARK    4  A    between atoms: C_7  and  N_8
REMARK    5  A    between atoms: C_11  and  N_12
REMARK    6  A    between atoms: C_19  and  N_20
REMARK                            x       y       z     vdW  Elec       q    Type
REMARK                         _______ _______ _______ _____ _____    ______ ____
ROOT
ATOM      1  C   UNL     1       0.603  11.512  19.643  0.00  0.00    +0.000 A 
ATOM      2  C   UNL     1       1.545  12.258  20.359  0.00  0.00    +0.000 A 
ATOM      3  C   UNL     1       1.497  13.652  20.336  0.00  0.00    +0.000 A 
ATOM      4  C   UNL     1       0.566  14.362  19.563  0.00  0.00    +0.000 A 
ATOM      5  C   UNL     1      -0.403  13.544  18.912  0.00  0.00    +0.000 A 
ATOM      6  C   UNL     1      -0.455  12.127  18.943  0.00  0.00    +0.000 A 
ENDROOT
BRANCH   4   7
ATOM      7  N   UNL     1       0.550  15.731  19.363  0.00  0.00    +0.000 N 
ATOM      8  C   UNL     1       1.566  16.446  18.567  0.00  0.00    +0.000 C 
ATOM      9  C   UNL     1       2.113  17.627  19.382  0.00  0.00    +0.000 C 
ATOM     10  O   UNL     1       1.059  18.527  19.760  0.00  0.00    +0.000 OA
ATOM     11  C   UNL     1       0.086  17.843  20.565  0.00  0.00    +0.000 C 
ATOM     12  C   UNL     1      -0.522  16.631  19.839  0.00  0.00    +0.000 C 
ENDBRANCH   4   7
BRANCH   6  13
ATOM     13  N   UNL     1      -1.531  11.457  18.355  0.00  0.00    +0.000 N 
ATOM     14  C   UNL     1      -1.333  10.197  17.600  0.00  0.00    +0.000 C 
ATOM     15  C   UNL     1      -2.358  10.116  16.454  0.00  0.00    +0.000 C 
ATOM     16  O   UNL     1      -3.702  10.163  16.957  0.00  0.00    +0.000 OA
ATOM     17  C   UNL     1      -3.920  11.405  17.639  0.00  0.00    +0.000 C 
ATOM     18  C   UNL     1      -2.936  11.610  18.807  0.00  0.00    +0.000 C 
ENDBRANCH   6  13
BRANCH   3  19
ATOM     19  N   UNL     1       2.432  14.302  21.232  0.00  0.00    +0.000 N 
ATOM     20  O   UNL     1       1.986  14.711  22.315  0.00  0.00    +0.000 OA
ATOM     21  O   UNL     1       3.597  14.456  20.834  0.00  0.00    +0.000 OA
ENDBRANCH   3  19
BRANCH   1  23
ATOM     22  C   UNL     1       0.876   9.258  20.666  0.00  0.00    +0.000 C 
ATOM     23  C   UNL     1       0.886  10.083  19.590  0.00  0.00    +0.000 C 
BRANCH  22  24
ATOM     24  C   UNL     1       1.427   7.975  20.372  0.00  0.00    +0.000 A 
ATOM     25  N   UNL     1       1.188   6.870  21.064  0.00  0.00    +0.000 NA
ATOM     26  C   UNL     1       1.940   5.883  20.517  0.00  0.00    +0.000 A 
ATOM     27  C   UNL     1       2.069   4.549  20.930  0.00  0.00    +0.000 A 
ATOM     28  C   UNL     1       2.938   3.718  20.224  0.00  0.00    +0.000 A 
ATOM     29  C   UNL     1       3.647   4.213  19.125  0.00  0.00    +0.000 A 
ATOM     30  C   UNL     1       3.509   5.545  18.692  0.00  0.00    +0.000 A 
ATOM     31  C   UNL     1       2.642   6.363  19.422  0.00  0.00    +0.000 A 
ATOM     32  N   UNL     1       2.269   7.693  19.321  0.00  0.00    +0.000 N 
ATOM     33  H   UNL     1       2.590   8.336  18.614  0.00  0.00    +0.000 HD
ENDBRANCH  22  24
BRANCH  22  35
ATOM     34  N   UNL     1      -0.010  10.364  23.060  0.00  0.00    +0.000 NA
ATOM     35  C   UNL     1       0.392   9.863  21.974  0.00  0.00    +0.000 C 
ENDBRANCH  22  35
ENDBRANCH   1  23
TORSDOF 6
ENDMDL
MODEL 7
REMARK VINA RESULT:      -7.5      3.256      5.203
REMARK  Name = 
REMARK  6 active torsions:
REMARK  status: ('A' for Active; 'I' for Inactive)
REMARK    1  A    between atoms: C_2  and  C_3
REMARK    2  A    between atoms: C_3  and  C_26
REMARK    3  A    between atoms: C_4  and  C_5
REMARK    4  A    between atoms: C_7  and  N_8
REMARK    5  A    between atoms: C_11  and  N_12
REMARK    6  A    between atoms: C_19  and  N_20
REMARK                            x       y       z     vdW  Elec       q    Type
REMARK                         _______ _______ _______ _____ _____    ______ ____
ROOT
ATOM      1  C   UNL     1      -0.263  12.382  21.414  0.00  0.00    +0.000 A 
ATOM      2  C   UNL     1      -1.491  11.967  21.937  0.00  0.00    +0.000 A 
ATOM      3  C   UNL     1      -2.262  12.848  22.695  0.00  0.00    +0.000 A 
ATOM      4  C   UNL     1      -1.830  14.143  23.018  0.00  0.00    +0.000 A 
ATOM      5  C   UNL     1      -0.603  14.524  22.400  0.00  0.00    +0.000 A 
ATOM      6  C   UNL     1       0.201  13.704  21.567  0.00  0.00    +0.000 A 
ENDROOT
BRANCH   4   7
ATOM      7  N   UNL     1      -2.458  15.017  23.888  0.00  0.00    +0.000 N 
ATOM      8  C   UNL     1      -3.537  15.935  23.477  0.00  0.00    +0.000 C 
ATOM      9  C   UNL     1      -3.203  17.358  23.950  0.00  0.00    +0.000 C 
ATOM     10  O   UNL     1      -3.033  17.402  25.375  0.00  0.00    +0.000 OA
ATOM     11  C   UNL     1      -1.960  16.536  25.775  0.00  0.00    +0.000 C 
ATOM     12  C   UNL     1      -2.194  15.080  25.341  0.00  0.00    +0.000 C 
ENDBRANCH   4   7
BRANCH   6  13
ATOM     13  N   UNL     1       1.321  14.246  20.931  0.00  0.00    +0.000 N 
ATOM     14  C   UNL     1       1.226  14.821  19.567  0.00  0.00    +0.000 C 
ATOM     15  C   UNL     1       2.549  14.585  18.815  0.00  0.00    +0.000 C 
ATOM     16  O   UNL     1       3.653  15.184  19.509  0.00  0.00    +0.000 OA
ATOM     17  C   UNL     1       3.788  14.591  20.808  0.00  0.00    +0.000 C 
ATOM     18  C   UNL     1       2.512  14.751  21.657  0.00  0.00    +0.000 C 
ENDBRANCH   6  13
BRANCH   3  19
ATOM     19  N   UNL     1      -3.574  12.346  23.053  0.00  0.00    +0.000 N 
ATOM     20  O   UNL     1      -4.468  12.437  22.199  0.00  0.00    +0.000 OA
ATOM     21  O   UNL     1      -3.729  11.913  24.206  0.00  0.00    +0.000 OA
ENDBRANCH   3  19
BRANCH   1  23
ATOM     22  C   UNL     1       0.387  10.875  19.540  0.00  0.00    +0.000 C 
ATOM     23  C   UNL     1       0.526  11.311  20.817  0.00  0.00    +0.000 C 
BRANCH  22  24
ATOM     24  C   UNL     1       1.103   9.664  19.300  0.00  0.00    +0.000 A 
ATOM     25  N   UNL     1       1.156   8.635  20.135  0.00  0.00    +0.000 NA
ATOM     26  C   UNL     1       1.981   7.712  19.583  0.00  0.00    +0.000 A 
ATOM     27  C   UNL     1       2.392   6.479  20.110  0.00  0.00    +0.000 A 
ATOM     28  C   UNL     1       3.283   5.706  19.366  0.00  0.00    +0.000 A 
ATOM     29  C   UNL     1       3.736   6.154  18.123  0.00  0.00    +0.000 A 
ATOM     30  C   UNL     1       3.313   7.382  17.577  0.00  0.00    +0.000 A 
ATOM     31  C   UNL     1       2.430   8.146  18.345  0.00  0.00    +0.000 A 
ATOM     32  N   UNL     1       1.826   9.379  18.164  0.00  0.00    +0.000 N 
ATOM     33  H   UNL     1       1.929   9.965  17.351  0.00  0.00    +0.000 HD
ENDBRANCH  22  24
BRANCH  22  35
ATOM     34  N   UNL     1      -1.343  12.330  17.921  0.00  0.00    +0.000 NA
ATOM     35  C   UNL     1      -0.558  11.670  18.655  0.00  0.00    +0.000 C 
ENDBRANCH  22  35
ENDBRANCH   1  23
TORSDOF 6
ENDMDL
MODEL 8
REMARK VINA RESULT:      -7.5      3.304      5.097
REMARK  Name = 
REMARK  6 active torsions:
REMARK  status: ('A' for Active; 'I' for Inactive)
REMARK    1  A    between atoms: C_2  and  C_3
REMARK    2  A    between atoms: C_3  and  C_26
REMARK    3  A    between atoms: C_4  and  C_5
REMARK    4  A    between atoms: C_7  and  N_8
REMARK    5  A    between atoms: C_11  and  N_12
REMARK    6  A    between atoms: C_19  and  N_20
REMARK                            x       y       z     vdW  Elec       q    Type
REMARK                         _______ _______ _______ _____ _____    ______ ____
ROOT
ATOM      1  C   UNL     1      -0.376  12.347  21.606  0.00  0.00    +0.000 A 
ATOM      2  C   UNL     1      -1.604  11.943  22.138  0.00  0.00    +0.000 A 
ATOM      3  C   UNL     1      -2.393  12.850  22.845  0.00  0.00    +0.000 A 
ATOM      4  C   UNL     1      -1.979  14.165  23.107  0.00  0.00    +0.000 A 
ATOM      5  C   UNL     1      -0.751  14.530  22.483  0.00  0.00    +0.000 A 
ATOM      6  C   UNL     1       0.071  13.680  21.699  0.00  0.00    +0.000 A 
ENDROOT
BRANCH   4   7
ATOM      7  N   UNL     1      -2.625  15.073  23.928  0.00  0.00    +0.000 N 
ATOM      8  C   UNL     1      -3.745  15.920  23.475  0.00  0.00    +0.000 C 
ATOM      9  C   UNL     1      -3.457  17.383  23.845  0.00  0.00    +0.000 C 
ATOM     10  O   UNL     1      -3.267  17.531  25.261  0.00  0.00    +0.000 OA
ATOM     11  C   UNL     1      -2.156  16.734  25.698  0.00  0.00    +0.000 C 
ATOM     12  C   UNL     1      -2.342  15.244  25.368  0.00  0.00    +0.000 C 
ENDBRANCH   4   7
BRANCH   6  13
ATOM     13  N   UNL     1       1.191  14.204  21.047  0.00  0.00    +0.000 N 
ATOM     14  C   UNL     1       1.089  14.770  19.681  0.00  0.00    +0.000 C 
ATOM     15  C   UNL     1       2.401  14.513  18.917  0.00  0.00    +0.000 C 
ATOM     16  O   UNL     1       3.520  15.103  19.595  0.00  0.00    +0.000 OA
ATOM     17  C   UNL     1       3.660  14.518  20.897  0.00  0.00    +0.000 C 
ATOM     18  C   UNL     1       2.396  14.699  21.757  0.00  0.00    +0.000 C 
ENDBRANCH   6  13
BRANCH   3  19
ATOM     19  N   UNL     1      -3.702  12.351  23.215  0.00  0.00    +0.000 N 
ATOM     20  O   UNL     1      -4.599  12.428  22.362  0.00  0.00    +0.000 OA
ATOM     21  O   UNL     1      -3.852  11.934  24.374  0.00  0.00    +0.000 OA
ENDBRANCH   3  19
BRANCH   1  23
ATOM     22  C   UNL     1       0.358  10.804  19.794  0.00  0.00    +0.000 C 
ATOM     23  C   UNL     1       0.432  11.258  21.070  0.00  0.00    +0.000 C 
BRANCH  22  24
ATOM     24  C   UNL     1       1.071   9.581  19.612  0.00  0.00    +0.000 A 
ATOM     25  N   UNL     1       1.751   9.255  18.521  0.00  0.00    +0.000 NA
ATOM     26  C   UNL     1       2.227   7.999  18.706  0.00  0.00    +0.000 A 
ATOM     27  C   UNL     1       2.961   7.201  17.815  0.00  0.00    +0.000 A 
ATOM     28  C   UNL     1       3.315   5.914  18.218  0.00  0.00    +0.000 A 
ATOM     29  C   UNL     1       2.953   5.448  19.484  0.00  0.00    +0.000 A 
ATOM     30  C   UNL     1       2.232   6.249  20.392  0.00  0.00    +0.000 A 
ATOM     31  C   UNL     1       1.878   7.531  19.963  0.00  0.00    +0.000 A 
ATOM     32  N   UNL     1       1.173   8.573  20.542  0.00  0.00    +0.000 N 
ATOM     33  H   UNL     1       0.784   8.567  21.473  0.00  0.00    +0.000 HD
ENDBRANCH  22  24
BRANCH  22  35
ATOM     34  N   UNL     1      -1.261  12.255  18.060  0.00  0.00    +0.000 NA
ATOM     35  C   UNL     1      -0.526  11.597  18.846  0.00  0.00    +0.000 C 
ENDBRANCH  22  35
ENDBRANCH   1  23
TORSDOF 6
ENDMDL
MODEL 9
REMARK VINA RESULT:      -7.5      2.718      4.573
REMARK  Name = 
REMARK  6 active torsions:
REMARK  status: ('A' for Active; 'I' for Inactive)
REMARK    1  A    between atoms: C_2  and  C_3
REMARK    2  A    between atoms: C_3  and  C_26
REMARK    3  A    between atoms: C_4  and  C_5
REMARK    4  A    between atoms: C_7  and  N_8
REMARK    5  A    between atoms: C_11  and  N_12
REMARK    6  A    between atoms: C_19  and  N_20
REMARK                            x       y       z     vdW  Elec       q    Type
REMARK                         _______ _______ _______ _____ _____    ______ ____
ROOT
ATOM      1  C   UNL     1      -0.888  12.017  19.980  0.00  0.00    +0.000 A 
ATOM      2  C   UNL     1      -2.263  11.872  20.184  0.00  0.00    +0.000 A 
ATOM      3  C   UNL     1      -3.022  12.953  20.631  0.00  0.00    +0.000 A 
ATOM      4  C   UNL     1      -2.452  14.194  20.952  0.00  0.00    +0.000 A 
ATOM      5  C   UNL     1      -1.061  14.294  20.659  0.00  0.00    +0.000 A 
ATOM      6  C   UNL     1      -0.240  13.258  20.144  0.00  0.00    +0.000 A 
ENDROOT
BRANCH   4   7
ATOM      7  N   UNL     1      -3.104  15.261  21.545  0.00  0.00    +0.000 N 
ATOM      8  C   UNL     1      -3.148  15.474  23.004  0.00  0.00    +0.000 C 
ATOM      9  C   UNL     1      -4.604  15.695  23.442  0.00  0.00    +0.000 C 
ATOM     10  O   UNL     1      -5.183  16.819  22.762  0.00  0.00    +0.000 OA
ATOM     11  C   UNL     1      -5.174  16.600  21.343  0.00  0.00    +0.000 C 
ATOM     12  C   UNL     1      -3.756  16.359  20.800  0.00  0.00    +0.000 C 
ENDBRANCH   4   7
BRANCH   6  13
ATOM     13  N   UNL     1       1.085  13.531  19.791  0.00  0.00    +0.000 N 
ATOM     14  C   UNL     1       2.193  13.328  20.754  0.00  0.00    +0.000 C 
ATOM     15  C   UNL     1       3.294  14.375  20.502  0.00  0.00    +0.000 C 
ATOM     16  O   UNL     1       3.802  14.280  19.163  0.00  0.00    +0.000 OA
ATOM     17  C   UNL     1       2.747  14.533  18.226  0.00  0.00    +0.000 C 
ATOM     18  C   UNL     1       1.572  13.551  18.390  0.00  0.00    +0.000 C 
ENDBRANCH   6  13
BRANCH   3  19
ATOM     19  N   UNL     1      -4.452  12.715  20.662  0.00  0.00    +0.000 N 
ATOM     20  O   UNL     1      -5.087  12.950  19.623  0.00  0.00    +0.000 OA
ATOM     21  O   UNL     1      -4.950  12.348  21.737  0.00  0.00    +0.000 OA
ENDBRANCH   3  19
BRANCH   1  23
ATOM     22  C   UNL     1       0.295   9.935  20.663  0.00  0.00    +0.000 C 
ATOM     23  C   UNL     1      -0.187  10.768  19.708  0.00  0.00    +0.000 C 
BRANCH  22  24
ATOM     24  C   UNL     1       1.146   8.924  20.122  0.00  0.00    +0.000 A 
ATOM     25  N   UNL     1       1.716   8.973  18.926  0.00  0.00    +0.000 NA
ATOM     26  C   UNL     1       2.387   7.809  18.754  0.00  0.00    +0.000 A 
ATOM     27  C   UNL     1       3.105   7.369  17.631  0.00  0.00    +0.000 A 
ATOM     28  C   UNL     1       3.690   6.105  17.673  0.00  0.00    +0.000 A 
ATOM     29  C   UNL     1       3.569   5.311  18.817  0.00  0.00    +0.000 A 
ATOM     30  C   UNL     1       2.867   5.752  19.955  0.00  0.00    +0.000 A 
ATOM     31  C   UNL     1       2.278   7.017  19.886  0.00  0.00    +0.000 A 
ATOM     32  N   UNL     1       1.514   7.766  20.766  0.00  0.00    +0.000 N 
ATOM     33  H   UNL     1       1.256   7.485  21.699  0.00  0.00    +0.000 HD
ENDBRANCH  22  24
BRANCH  22  35
ATOM     34  N   UNL     1      -0.358  10.563  23.292  0.00  0.00    +0.000 NA
ATOM     35  C   UNL     1      -0.062  10.278  22.100  0.00  0.00    +0.000 C 
ENDBRANCH  22  35
ENDBRANCH   1  23
TORSDOF 6
ENDMDL
