MODEL 1
REMARK VINA RESULT:      -8.7      0.000      0.000
REMARK  Name = 
REMARK  4 active torsions:
REMARK  status: ('A' for Active; 'I' for Inactive)
REMARK    1  A    between atoms: C_1  and  N_2
REMARK    2  A    between atoms: C_3  and  C_5
REMARK    3  A    between atoms: C_10  and  C_12
REMARK    4  A    between atoms: C_21  and  C_22
REMARK                            x       y       z     vdW  Elec       q    Type
REMARK                         _______ _______ _______ _____ _____    ______ ____
ROOT
ATOM      1  C   UNL     1       2.698   7.809  17.873  0.00  0.00    +0.000 A 
ATOM      2  C   UNL     1       3.967   7.710  17.293  0.00  0.00    +0.000 A 
ATOM      3  C   UNL     1       4.547   6.459  17.037  0.00  0.00    +0.000 A 
ATOM      4  C   UNL     1       3.820   5.314  17.402  0.00  0.00    +0.000 A 
ATOM      5  N   UNL     1       4.171   3.981  17.335  0.00  0.00    +0.000 N 
ATOM      6  C   UNL     1       3.201   3.216  17.927  0.00  0.00    +0.000 A 
ATOM      7  C   UNL     1       2.153   4.048  18.275  0.00  0.00    +0.000 A 
ATOM      8  C   UNL     1       2.551   5.380  17.968  0.00  0.00    +0.000 A 
ATOM      9  C   UNL     1       1.974   6.646  18.187  0.00  0.00    +0.000 A 
ATOM     10  C   UNL     1       0.924   3.522  18.957  0.00  0.00    +0.000 C 
ATOM     11  C   UNL     1       0.820   4.004  20.405  0.00  0.00    +0.000 C 
ATOM     12  C   UNL     1       0.908   1.969  18.896  0.00  0.00    +0.000 C 
ATOM     13  N   UNL     1       2.222   1.331  18.950  0.00  0.00    +0.000 N 
ATOM     14  C   UNL     1       3.287   1.810  18.217  0.00  0.00    +0.000 C 
ATOM     15  O   UNL     1       4.225   1.092  17.894  0.00  0.00    +0.000 OA
ATOM     16  H   UNL     1       5.053   3.617  17.001  0.00  0.00    +0.000 HD
ATOM     17  H   UNL     1       2.276   0.339  19.138  0.00  0.00    +0.000 HD
ENDROOT
BRANCH   1  23
ATOM     18  C   UNL     1       0.101  12.342  20.220  0.00  0.00    +0.000 A 
ATOM     19  C   UNL     1      -0.100  11.841  21.494  0.00  0.00    +0.000 A 
ATOM     20  S   UNL     1       0.316  10.179  21.552  0.00  0.00    +0.000 S 
ATOM     21  C   UNL     1       0.795  10.263  19.916  0.00  0.00    +0.000 A 
ATOM     22  N   UNL     1       1.343   9.105  19.431  0.00  0.00    +0.000 N 
ATOM     23  C   UNL     1       2.103   9.116  18.284  0.00  0.00    +0.000 C 
ATOM     24  O   UNL     1       2.372  10.102  17.606  0.00  0.00    +0.000 OA
ATOM     25  N   UNL     1       0.612  11.409  19.312  0.00  0.00    +0.000 NA
ATOM     26  H   UNL     1       1.323   8.304  20.041  0.00  0.00    +0.000 HD
BRANCH  18  29
ATOM     27  C   UNL     1       0.801  15.741  18.826  0.00  0.00    +0.000 C 
ATOM     28  N   UNL     1       0.892  14.379  19.280  0.00  0.00    +0.000 N 
ATOM     29  C   UNL     1      -0.183  13.725  19.832  0.00  0.00    +0.000 C 
ATOM     30  O   UNL     1      -1.288  14.242  19.989  0.00  0.00    +0.000 OA
ATOM     31  H   UNL     1       1.781  13.885  19.289  0.00  0.00    +0.000 HD
ENDBRANCH  18  29
ENDBRANCH   1  23
TORSDOF 2
ENDMDL
MODEL 2
REMARK VINA RESULT:      -8.4      7.643     11.855
REMARK  Name = 
REMARK  4 active torsions:
REMARK  status: ('A' for Active; 'I' for Inactive)
REMARK    1  A    between atoms: C_1  and  N_2
REMARK    2  A    between atoms: C_3  and  C_5
REMARK    3  A    between atoms: C_10  and  C_12
REMARK    4  A    between atoms: C_21  and  C_22
REMARK                            x       y       z     vdW  Elec       q    Type
REMARK                         _______ _______ _______ _____ _____    ______ ____
ROOT
ATOM      1  C   UNL     1       8.849  10.381  18.982  0.00  0.00    +0.000 A 
ATOM      2  C   UNL     1       9.006  10.348  20.371  0.00  0.00    +0.000 A 
ATOM      3  C   UNL     1       9.582  11.425  21.059  0.00  0.00    +0.000 A 
ATOM      4  C   UNL     1      10.014  12.528  20.303  0.00  0.00    +0.000 A 
ATOM      5  N   UNL     1      10.670  13.674  20.699  0.00  0.00    +0.000 N 
ATOM      6  C   UNL     1      11.014  14.417  19.601  0.00  0.00    +0.000 A 
ATOM      7  C   UNL     1      10.472  13.805  18.486  0.00  0.00    +0.000 A 
ATOM      8  C   UNL     1       9.860  12.596  18.921  0.00  0.00    +0.000 A 
ATOM      9  C   UNL     1       9.250  11.516  18.254  0.00  0.00    +0.000 A 
ATOM     10  C   UNL     1      10.672  14.364  17.107  0.00  0.00    +0.000 C 
ATOM     11  C   UNL     1      11.571  13.472  16.251  0.00  0.00    +0.000 C 
ATOM     12  C   UNL     1      11.257  15.802  17.198  0.00  0.00    +0.000 C 
ATOM     13  N   UNL     1      12.158  16.036  18.325  0.00  0.00    +0.000 N 
ATOM     14  C   UNL     1      11.862  15.578  19.592  0.00  0.00    +0.000 C 
ATOM     15  O   UNL     1      12.328  16.104  20.595  0.00  0.00    +0.000 OA
ATOM     16  H   UNL     1      10.955  13.897  21.644  0.00  0.00    +0.000 HD
ATOM     17  H   UNL     1      12.739  16.863  18.322  0.00  0.00    +0.000 HD
ENDROOT
BRANCH   1  23
ATOM     18  C   UNL     1       7.164   5.369  16.783  0.00  0.00    +0.000 A 
ATOM     19  C   UNL     1       7.057   4.643  17.956  0.00  0.00    +0.000 A 
ATOM     20  S   UNL     1       7.671   5.548  19.275  0.00  0.00    +0.000 S 
ATOM     21  C   UNL     1       7.968   6.853  18.214  0.00  0.00    +0.000 A 
ATOM     22  N   UNL     1       8.433   7.984  18.831  0.00  0.00    +0.000 N 
ATOM     23  C   UNL     1       8.366   9.205  18.199  0.00  0.00    +0.000 C 
ATOM     24  O   UNL     1       7.903   9.415  17.083  0.00  0.00    +0.000 OA
ATOM     25  N   UNL     1       7.707   6.647  16.949  0.00  0.00    +0.000 NA
ATOM     26  H   UNL     1       8.643   7.911  19.813  0.00  0.00    +0.000 HD
BRANCH  18  29
ATOM     27  C   UNL     1       7.361   4.814  13.089  0.00  0.00    +0.000 C 
ATOM     28  N   UNL     1       7.596   5.226  14.447  0.00  0.00    +0.000 N 
ATOM     29  C   UNL     1       6.751   4.867  15.470  0.00  0.00    +0.000 C 
ATOM     30  O   UNL     1       5.740   4.185  15.311  0.00  0.00    +0.000 OA
ATOM     31  H   UNL     1       8.346   5.871  14.680  0.00  0.00    +0.000 HD
ENDBRANCH  18  29
ENDBRANCH   1  23
TORSDOF 2
ENDMDL
MODEL 3
REMARK VINA RESULT:      -8.3      3.192      9.224
REMARK  Name = 
REMARK  4 active torsions:
REMARK  status: ('A' for Active; 'I' for Inactive)
REMARK    1  A    between atoms: C_1  and  N_2
REMARK    2  A    between atoms: C_3  and  C_5
REMARK    3  A    between atoms: C_10  and  C_12
REMARK    4  A    between atoms: C_21  and  C_22
REMARK                            x       y       z     vdW  Elec       q    Type
REMARK                         _______ _______ _______ _____ _____    ______ ____
ROOT
ATOM      1  C   UNL     1       1.086   8.729  20.580  0.00  0.00    +0.000 A 
ATOM      2  C   UNL     1       1.231   8.510  21.954  0.00  0.00    +0.000 A 
ATOM      3  C   UNL     1       0.494   9.255  22.885  0.00  0.00    +0.000 A 
ATOM      4  C   UNL     1      -0.378  10.240  22.392  0.00  0.00    +0.000 A 
ATOM      5  N   UNL     1      -1.159  11.155  23.068  0.00  0.00    +0.000 N 
ATOM      6  C   UNL     1      -1.746  12.013  22.177  0.00  0.00    +0.000 A 
ATOM      7  C   UNL     1      -1.440  11.578  20.900  0.00  0.00    +0.000 A 
ATOM      8  C   UNL     1      -0.554  10.472  21.030  0.00  0.00    +0.000 A 
ATOM      9  C   UNL     1       0.174   9.691  20.112  0.00  0.00    +0.000 A 
ATOM     10  C   UNL     1      -1.927  12.309  19.683  0.00  0.00    +0.000 C 
ATOM     11  C   UNL     1      -0.786  12.994  18.929  0.00  0.00    +0.000 C 
ATOM     12  C   UNL     1      -3.014  13.345  20.086  0.00  0.00    +0.000 C 
ATOM     13  N   UNL     1      -2.833  13.956  21.401  0.00  0.00    +0.000 N 
ATOM     14  C   UNL     1      -2.480  13.205  22.503  0.00  0.00    +0.000 C 
ATOM     15  O   UNL     1      -2.743  13.568  23.643  0.00  0.00    +0.000 OA
ATOM     16  H   UNL     1      -1.215  11.257  24.072  0.00  0.00    +0.000 HD
ATOM     17  H   UNL     1      -3.364  14.785  21.632  0.00  0.00    +0.000 HD
ENDROOT
BRANCH   1  23
ATOM     18  C   UNL     1       4.460   5.434  17.331  0.00  0.00    +0.000 A 
ATOM     19  C   UNL     1       4.353   4.249  18.039  0.00  0.00    +0.000 A 
ATOM     20  S   UNL     1       3.509   4.508  19.508  0.00  0.00    +0.000 S 
ATOM     21  C   UNL     1       3.287   6.143  19.068  0.00  0.00    +0.000 A 
ATOM     22  N   UNL     1       2.520   6.862  19.947  0.00  0.00    +0.000 N 
ATOM     23  C   UNL     1       1.947   8.054  19.564  0.00  0.00    +0.000 C 
ATOM     24  O   UNL     1       2.040   8.577  18.458  0.00  0.00    +0.000 OA
ATOM     25  N   UNL     1       3.844   6.527  17.949  0.00  0.00    +0.000 NA
ATOM     26  H   UNL     1       2.248   6.396  20.797  0.00  0.00    +0.000 HD
BRANCH  18  29
ATOM     27  C   UNL     1       6.334   4.286  14.304  0.00  0.00    +0.000 C 
ATOM     28  N   UNL     1       5.638   4.367  15.561  0.00  0.00    +0.000 N 
ATOM     29  C   UNL     1       5.149   5.557  16.045  0.00  0.00    +0.000 C 
ATOM     30  O   UNL     1       5.270   6.631  15.459  0.00  0.00    +0.000 OA
ATOM     31  H   UNL     1       5.566   3.560  16.176  0.00  0.00    +0.000 HD
ENDBRANCH  18  29
ENDBRANCH   1  23
TORSDOF 2
ENDMDL
MODEL 4
REMARK VINA RESULT:      -8.2      3.063      9.377
REMARK  Name = 
REMARK  4 active torsions:
REMARK  status: ('A' for Active; 'I' for Inactive)
REMARK    1  A    between atoms: C_1  and  N_2
REMARK    2  A    between atoms: C_3  and  C_5
REMARK    3  A    between atoms: C_10  and  C_12
REMARK    4  A    between atoms: C_21  and  C_22
REMARK                            x       y       z     vdW  Elec       q    Type
REMARK                         _______ _______ _______ _____ _____    ______ ____
ROOT
ATOM      1  C   UNL     1       1.084   8.822  20.288  0.00  0.00    +0.000 A 
ATOM      2  C   UNL     1       0.718   8.271  21.521  0.00  0.00    +0.000 A 
ATOM      3  C   UNL     1       0.004   9.023  22.463  0.00  0.00    +0.000 A 
ATOM      4  C   UNL     1      -0.314  10.352  22.136  0.00  0.00    +0.000 A 
ATOM      5  N   UNL     1      -0.935  11.328  22.887  0.00  0.00    +0.000 N 
ATOM      6  C   UNL     1      -0.914  12.519  22.211  0.00  0.00    +0.000 A 
ATOM      7  C   UNL     1      -0.380  12.288  20.957  0.00  0.00    +0.000 A 
ATOM      8  C   UNL     1       0.024  10.924  20.913  0.00  0.00    +0.000 A 
ATOM      9  C   UNL     1       0.715  10.140  19.968  0.00  0.00    +0.000 A 
ATOM     10  C   UNL     1      -0.208  13.396  19.959  0.00  0.00    +0.000 C 
ATOM     11  C   UNL     1       1.265  13.727  19.717  0.00  0.00    +0.000 C 
ATOM     12  C   UNL     1      -0.981  14.660  20.432  0.00  0.00    +0.000 C 
ATOM     13  N   UNL     1      -1.033  14.850  21.881  0.00  0.00    +0.000 N 
ATOM     14  C   UNL     1      -1.296  13.801  22.737  0.00  0.00    +0.000 C 
ATOM     15  O   UNL     1      -1.771  13.980  23.852  0.00  0.00    +0.000 OA
ATOM     16  H   UNL     1      -1.264  11.223  23.838  0.00  0.00    +0.000 HD
ATOM     17  H   UNL     1      -1.319  15.749  22.245  0.00  0.00    +0.000 HD
ENDROOT
BRANCH   1  23
ATOM     18  C   UNL     1       4.520   5.400  17.242  0.00  0.00    +0.000 A 
ATOM     19  C   UNL     1       4.434   4.258  18.020  0.00  0.00    +0.000 A 
ATOM     20  S   UNL     1       3.583   4.589  19.470  0.00  0.00    +0.000 S 
ATOM     21  C   UNL     1       3.332   6.191  18.933  0.00  0.00    +0.000 A 
ATOM     22  N   UNL     1       2.551   6.947  19.767  0.00  0.00    +0.000 N 
ATOM     23  C   UNL     1       1.957   8.103  19.314  0.00  0.00    +0.000 C 
ATOM     24  O   UNL     1       2.043   8.561  18.179  0.00  0.00    +0.000 OA
ATOM     25  N   UNL     1       3.884   6.517  17.793  0.00  0.00    +0.000 NA
ATOM     26  H   UNL     1       2.287   6.528  20.643  0.00  0.00    +0.000 HD
BRANCH  18  29
ATOM     27  C   UNL     1       6.333   4.092  14.243  0.00  0.00    +0.000 C 
ATOM     28  N   UNL     1       5.647   4.236  15.500  0.00  0.00    +0.000 N 
ATOM     29  C   UNL     1       5.208   5.458  15.950  0.00  0.00    +0.000 C 
ATOM     30  O   UNL     1       5.370   6.509  15.334  0.00  0.00    +0.000 OA
ATOM     31  H   UNL     1       5.544   3.450  16.137  0.00  0.00    +0.000 HD
ENDBRANCH  18  29
ENDBRANCH   1  23
TORSDOF 2
ENDMDL
MODEL 5
REMARK VINA RESULT:      -8.2      3.468      9.038
REMARK  Name = 
REMARK  4 active torsions:
REMARK  status: ('A' for Active; 'I' for Inactive)
REMARK    1  A    between atoms: C_1  and  N_2
REMARK    2  A    between atoms: C_3  and  C_5
REMARK    3  A    between atoms: C_10  and  C_12
REMARK    4  A    between atoms: C_21  and  C_22
REMARK                            x       y       z     vdW  Elec       q    Type
REMARK                         _______ _______ _______ _____ _____    ______ ____
ROOT
ATOM      1  C   UNL     1       0.771   9.684  18.984  0.00  0.00    +0.000 A 
ATOM      2  C   UNL     1       1.005  10.458  20.125  0.00  0.00    +0.000 A 
ATOM      3  C   UNL     1       0.013  11.306  20.637  0.00  0.00    +0.000 A 
ATOM      4  C   UNL     1      -1.213  11.366  19.955  0.00  0.00    +0.000 A 
ATOM      5  N   UNL     1      -2.321  12.153  20.187  0.00  0.00    +0.000 N 
ATOM      6  C   UNL     1      -3.239  11.973  19.186  0.00  0.00    +0.000 A 
ATOM      7  C   UNL     1      -2.773  10.968  18.357  0.00  0.00    +0.000 A 
ATOM      8  C   UNL     1      -1.480  10.599  18.824  0.00  0.00    +0.000 A 
ATOM      9  C   UNL     1      -0.480   9.730  18.345  0.00  0.00    +0.000 A 
ATOM     10  C   UNL     1      -3.544  10.527  17.147  0.00  0.00    +0.000 C 
ATOM     11  C   UNL     1      -2.842  10.917  15.846  0.00  0.00    +0.000 C 
ATOM     12  C   UNL     1      -4.981  11.117  17.190  0.00  0.00    +0.000 C 
ATOM     13  N   UNL     1      -5.093  12.438  17.806  0.00  0.00    +0.000 N 
ATOM     14  C   UNL     1      -4.433  12.745  18.978  0.00  0.00    +0.000 C 
ATOM     15  O   UNL     1      -4.828  13.629  19.729  0.00  0.00    +0.000 OA
ATOM     16  H   UNL     1      -2.414  12.843  20.921  0.00  0.00    +0.000 HD
ATOM     17  H   UNL     1      -5.941  12.970  17.671  0.00  0.00    +0.000 HD
ENDROOT
BRANCH   1  23
ATOM     18  C   UNL     1       4.616   5.884  17.093  0.00  0.00    +0.000 A 
ATOM     19  C   UNL     1       4.107   4.745  17.691  0.00  0.00    +0.000 A 
ATOM     20  S   UNL     1       2.835   5.154  18.764  0.00  0.00    +0.000 S 
ATOM     21  C   UNL     1       3.004   6.791  18.308  0.00  0.00    +0.000 A 
ATOM     22  N   UNL     1       2.076   7.628  18.868  0.00  0.00    +0.000 N 
ATOM     23  C   UNL     1       1.841   8.874  18.330  0.00  0.00    +0.000 C 
ATOM     24  O   UNL     1       2.393   9.348  17.342  0.00  0.00    +0.000 OA
ATOM     25  N   UNL     1       3.971   7.066  17.471  0.00  0.00    +0.000 NA
ATOM     26  H   UNL     1       1.458   7.227  19.554  0.00  0.00    +0.000 HD
BRANCH  18  29
ATOM     27  C   UNL     1       6.672   4.696  14.203  0.00  0.00    +0.000 C 
ATOM     28  N   UNL     1       5.672   4.857  15.226  0.00  0.00    +0.000 N 
ATOM     29  C   UNL     1       5.730   5.879  16.142  0.00  0.00    +0.000 C 
ATOM     30  O   UNL     1       6.627   6.720  16.169  0.00  0.00    +0.000 OA
ATOM     31  H   UNL     1       4.939   4.165  15.358  0.00  0.00    +0.000 HD
ENDBRANCH  18  29
ENDBRANCH   1  23
TORSDOF 2
ENDMDL
MODEL 6
REMARK VINA RESULT:      -8.0      3.021      9.290
REMARK  Name = 
REMARK  4 active torsions:
REMARK  status: ('A' for Active; 'I' for Inactive)
REMARK    1  A    between atoms: C_1  and  N_2
REMARK    2  A    between atoms: C_3  and  C_5
REMARK    3  A    between atoms: C_10  and  C_12
REMARK    4  A    between atoms: C_21  and  C_22
REMARK                            x       y       z     vdW  Elec       q    Type
REMARK                         _______ _______ _______ _____ _____    ______ ____
ROOT
ATOM      1  C   UNL     1       1.962   8.315  19.123  0.00  0.00    +0.000 A 
ATOM      2  C   UNL     1       1.610   7.827  20.385  0.00  0.00    +0.000 A 
ATOM      3  C   UNL     1       0.866   8.609  21.280  0.00  0.00    +0.000 A 
ATOM      4  C   UNL     1       0.506   9.904  20.872  0.00  0.00    +0.000 A 
ATOM      5  N   UNL     1      -0.151  10.902  21.562  0.00  0.00    +0.000 N 
ATOM      6  C   UNL     1      -0.168  12.050  20.816  0.00  0.00    +0.000 A 
ATOM      7  C   UNL     1       0.379  11.763  19.578  0.00  0.00    +0.000 A 
ATOM      8  C   UNL     1       0.830  10.413  19.618  0.00  0.00    +0.000 A 
ATOM      9  C   UNL     1       1.550   9.598  18.723  0.00  0.00    +0.000 A 
ATOM     10  C   UNL     1       0.517  12.814  18.516  0.00  0.00    +0.000 C 
ATOM     11  C   UNL     1       1.979  13.180  18.258  0.00  0.00    +0.000 C 
ATOM     12  C   UNL     1      -0.300  14.077  18.911  0.00  0.00    +0.000 C 
ATOM     13  N   UNL     1      -0.365  14.352  20.345  0.00  0.00    +0.000 N 
ATOM     14  C   UNL     1      -0.596  13.348  21.262  0.00  0.00    +0.000 C 
ATOM     15  O   UNL     1      -1.081  13.578  22.363  0.00  0.00    +0.000 OA
ATOM     16  H   UNL     1      -0.481  10.843  22.516  0.00  0.00    +0.000 HD
ATOM     17  H   UNL     1      -0.682  15.260  20.654  0.00  0.00    +0.000 HD
ENDROOT
BRANCH   1  23
ATOM     18  C   UNL     1       5.290   4.712  16.165  0.00  0.00    +0.000 A 
ATOM     19  C   UNL     1       4.904   3.523  16.760  0.00  0.00    +0.000 A 
ATOM     20  S   UNL     1       3.888   3.833  18.105  0.00  0.00    +0.000 S 
ATOM     21  C   UNL     1       3.975   5.503  17.760  0.00  0.00    +0.000 A 
ATOM     22  N   UNL     1       3.193   6.285  18.568  0.00  0.00    +0.000 N 
ATOM     23  C   UNL     1       2.864   7.568  18.196  0.00  0.00    +0.000 C 
ATOM     24  O   UNL     1       3.203   8.128  17.157  0.00  0.00    +0.000 OA
ATOM     25  N   UNL     1       4.750   5.854  16.766  0.00  0.00    +0.000 NA
ATOM     26  H   UNL     1       2.727   5.823  19.332  0.00  0.00    +0.000 HD
BRANCH  18  29
ATOM     27  C   UNL     1       6.558   3.932  12.734  0.00  0.00    +0.000 C 
ATOM     28  N   UNL     1       5.812   3.978  13.964  0.00  0.00    +0.000 N 
ATOM     29  C   UNL     1       6.181   4.794  15.006  0.00  0.00    +0.000 C 
ATOM     30  O   UNL     1       7.165   5.530  14.979  0.00  0.00    +0.000 OA
ATOM     31  H   UNL     1       5.037   3.341  14.134  0.00  0.00    +0.000 HD
ENDBRANCH  18  29
ENDBRANCH   1  23
TORSDOF 2
ENDMDL
MODEL 7
REMARK VINA RESULT:      -8.0      2.776      9.360
REMARK  Name = 
REMARK  4 active torsions:
REMARK  status: ('A' for Active; 'I' for Inactive)
REMARK    1  A    between atoms: C_1  and  N_2
REMARK    2  A    between atoms: C_3  and  C_5
REMARK    3  A    between atoms: C_10  and  C_12
REMARK    4  A    between atoms: C_21  and  C_22
REMARK                            x       y       z     vdW  Elec       q    Type
REMARK                         _______ _______ _______ _____ _____    ______ ____
ROOT
ATOM      1  C   UNL     1       1.418   8.492  19.998  0.00  0.00    +0.000 A 
ATOM      2  C   UNL     1       0.866   8.173  21.243  0.00  0.00    +0.000 A 
ATOM      3  C   UNL     1       0.059   9.090  21.931  0.00  0.00    +0.000 A 
ATOM      4  C   UNL     1      -0.159  10.344  21.337  0.00  0.00    +0.000 A 
ATOM      5  N   UNL     1      -0.839  11.446  21.813  0.00  0.00    +0.000 N 
ATOM      6  C   UNL     1      -0.679  12.498  20.951  0.00  0.00    +0.000 A 
ATOM      7  C   UNL     1       0.011  12.042  19.844  0.00  0.00    +0.000 A 
ATOM      8  C   UNL     1       0.365  10.686  20.094  0.00  0.00    +0.000 A 
ATOM      9  C   UNL     1       1.148   9.738  19.406  0.00  0.00    +0.000 A 
ATOM     10  C   UNL     1       0.361  12.954  18.704  0.00  0.00    +0.000 C 
ATOM     11  C   UNL     1       1.865  13.216  18.619  0.00  0.00    +0.000 C 
ATOM     12  C   UNL     1      -0.419  14.292  18.837  0.00  0.00    +0.000 C 
ATOM     13  N   UNL     1      -0.662  14.736  20.209  0.00  0.00    +0.000 N 
ATOM     14  C   UNL     1      -1.080  13.859  21.187  0.00  0.00    +0.000 C 
ATOM     15  O   UNL     1      -1.696  14.239  22.176  0.00  0.00    +0.000 OA
ATOM     16  H   UNL     1      -1.299  11.515  22.711  0.00  0.00    +0.000 HD
ATOM     17  H   UNL     1      -0.960  15.689  20.369  0.00  0.00    +0.000 HD
ENDROOT
BRANCH   1  23
ATOM     18  C   UNL     1       4.940   4.440  18.005  0.00  0.00    +0.000 A 
ATOM     19  C   UNL     1       4.480   3.367  18.749  0.00  0.00    +0.000 A 
ATOM     20  S   UNL     1       3.348   3.899  19.922  0.00  0.00    +0.000 S 
ATOM     21  C   UNL     1       3.498   5.488  19.316  0.00  0.00    +0.000 A 
ATOM     22  N   UNL     1       2.658   6.395  19.906  0.00  0.00    +0.000 N 
ATOM     23  C   UNL     1       2.388   7.600  19.297  0.00  0.00    +0.000 C 
ATOM     24  O   UNL     1       2.832   7.978  18.217  0.00  0.00    +0.000 OA
ATOM     25  N   UNL     1       4.367   5.667  18.355  0.00  0.00    +0.000 NA
ATOM     26  H   UNL     1       2.115   6.069  20.688  0.00  0.00    +0.000 HD
BRANCH  18  29
ATOM     27  C   UNL     1       6.216   3.972  14.521  0.00  0.00    +0.000 C 
ATOM     28  N   UNL     1       5.395   4.099  15.695  0.00  0.00    +0.000 N 
ATOM     29  C   UNL     1       5.936   4.325  16.938  0.00  0.00    +0.000 C 
ATOM     30  O   UNL     1       7.144   4.427  17.146  0.00  0.00    +0.000 OA
ATOM     31  H   UNL     1       4.391   3.936  15.657  0.00  0.00    +0.000 HD
ENDBRANCH  18  29
ENDBRANCH   1  23
TORSDOF 2
ENDMDL
MODEL 8
REMARK VINA RESULT:      -8.0      2.773      9.538
REMARK  Name = 
REMARK  4 active torsions:
REMARK  status: ('A' for Active; 'I' for Inactive)
REMARK    1  A    between atoms: C_1  and  N_2
REMARK    2  A    between atoms: C_3  and  C_5
REMARK    3  A    between atoms: C_10  and  C_12
REMARK    4  A    between atoms: C_21  and  C_22
REMARK                            x       y       z     vdW  Elec       q    Type
REMARK                         _______ _______ _______ _____ _____    ______ ____
ROOT
ATOM      1  C   UNL     1       0.838   8.788  20.917  0.00  0.00    +0.000 A 
ATOM      2  C   UNL     1       0.250   8.547  22.163  0.00  0.00    +0.000 A 
ATOM      3  C   UNL     1      -0.499   9.539  22.812  0.00  0.00    +0.000 A 
ATOM      4  C   UNL     1      -0.621  10.786  22.177  0.00  0.00    +0.000 A 
ATOM      5  N   UNL     1      -1.226  11.947  22.610  0.00  0.00    +0.000 N 
ATOM      6  C   UNL     1      -0.983  12.959  21.719  0.00  0.00    +0.000 A 
ATOM      7  C   UNL     1      -0.313  12.421  20.636  0.00  0.00    +0.000 A 
ATOM      8  C   UNL     1      -0.059  11.052  20.932  0.00  0.00    +0.000 A 
ATOM      9  C   UNL     1       0.663  10.031  20.284  0.00  0.00    +0.000 A 
ATOM     10  C   UNL     1       0.114  13.271  19.475  0.00  0.00    +0.000 C 
ATOM     11  C   UNL     1       1.633  13.424  19.403  0.00  0.00    +0.000 C 
ATOM     12  C   UNL     1      -0.572  14.664  19.556  0.00  0.00    +0.000 C 
ATOM     13  N   UNL     1      -0.799  15.166  20.911  0.00  0.00    +0.000 N 
ATOM     14  C   UNL     1      -1.289  14.350  21.909  0.00  0.00    +0.000 C 
ATOM     15  O   UNL     1      -1.888  14.803  22.877  0.00  0.00    +0.000 OA
ATOM     16  H   UNL     1      -1.691  12.076  23.499  0.00  0.00    +0.000 HD
ATOM     17  H   UNL     1      -1.031  16.141  21.037  0.00  0.00    +0.000 HD
ENDROOT
BRANCH   1  23
ATOM     18  C   UNL     1       4.032   4.415  19.053  0.00  0.00    +0.000 A 
ATOM     19  C   UNL     1       3.416   3.387  19.744  0.00  0.00    +0.000 A 
ATOM     20  S   UNL     1       2.275   4.017  20.857  0.00  0.00    +0.000 S 
ATOM     21  C   UNL     1       2.629   5.590  20.296  0.00  0.00    +0.000 A 
ATOM     22  N   UNL     1       1.853   6.573  20.854  0.00  0.00    +0.000 N 
ATOM     23  C   UNL     1       1.751   7.809  20.256  0.00  0.00    +0.000 C 
ATOM     24  O   UNL     1       2.299   8.154  19.214  0.00  0.00    +0.000 OA
ATOM     25  N   UNL     1       3.571   5.691  19.394  0.00  0.00    +0.000 NA
ATOM     26  H   UNL     1       1.231   6.293  21.594  0.00  0.00    +0.000 HD
BRANCH  18  29
ATOM     27  C   UNL     1       7.473   4.517  17.591  0.00  0.00    +0.000 C 
ATOM     28  N   UNL     1       6.319   4.644  18.441  0.00  0.00    +0.000 N 
ATOM     29  C   UNL     1       5.076   4.212  18.046  0.00  0.00    +0.000 C 
ATOM     30  O   UNL     1       4.849   3.698  16.952  0.00  0.00    +0.000 OA
ATOM     31  H   UNL     1       6.370   5.141  19.327  0.00  0.00    +0.000 HD
ENDBRANCH  18  29
ENDBRANCH   1  23
TORSDOF 2
ENDMDL
MODEL 9
REMARK VINA RESULT:      -7.9      1.012      1.022
REMARK  Name = 
REMARK  4 active torsions:
REMARK  status: ('A' for Active; 'I' for Inactive)
REMARK    1  A    between atoms: C_1  and  N_2
REMARK    2  A    between atoms: C_3  and  C_5
REMARK    3  A    between atoms: C_10  and  C_12
REMARK    4  A    between atoms: C_21  and  C_22
REMARK                            x       y       z     vdW  Elec       q    Type
REMARK                         _______ _______ _______ _____ _____    ______ ____
ROOT
ATOM      1  C   UNL     1       2.386   8.059  18.194  0.00  0.00    +0.000 A 
ATOM      2  C   UNL     1       3.609   8.097  17.517  0.00  0.00    +0.000 A 
ATOM      3  C   UNL     1       4.246   6.916  17.111  0.00  0.00    +0.000 A 
ATOM      4  C   UNL     1       3.625   5.696  17.426  0.00  0.00    +0.000 A 
ATOM      5  N   UNL     1       4.053   4.401  17.218  0.00  0.00    +0.000 N 
ATOM      6  C   UNL     1       3.184   3.523  17.809  0.00  0.00    +0.000 A 
ATOM      7  C   UNL     1       2.116   4.248  18.304  0.00  0.00    +0.000 A 
ATOM      8  C   UNL     1       2.402   5.626  18.087  0.00  0.00    +0.000 A 
ATOM      9  C   UNL     1       1.764   6.826  18.457  0.00  0.00    +0.000 A 
ATOM     10  C   UNL     1       0.980   3.582  19.025  0.00  0.00    +0.000 C 
ATOM     11  C   UNL     1       0.959   3.935  20.512  0.00  0.00    +0.000 C 
ATOM     12  C   UNL     1       1.058   2.042  18.829  0.00  0.00    +0.000 C 
ATOM     13  N   UNL     1       2.411   1.496  18.732  0.00  0.00    +0.000 N 
ATOM     14  C   UNL     1       3.382   2.108  17.968  0.00  0.00    +0.000 C 
ATOM     15  O   UNL     1       4.337   1.486  17.516  0.00  0.00    +0.000 OA
ATOM     16  H   UNL     1       4.928   4.129  16.790  0.00  0.00    +0.000 HD
ATOM     17  H   UNL     1       2.543   0.498  18.827  0.00  0.00    +0.000 HD
ENDROOT
BRANCH   1  23
ATOM     18  C   UNL     1      -0.326  12.182  21.099  0.00  0.00    +0.000 A 
ATOM     19  C   UNL     1      -0.429  11.551  22.326  0.00  0.00    +0.000 A 
ATOM     20  S   UNL     1       0.082   9.920  22.201  0.00  0.00    +0.000 S 
ATOM     21  C   UNL     1       0.464  10.187  20.559  0.00  0.00    +0.000 A 
ATOM     22  N   UNL     1       1.049   9.116  19.937  0.00  0.00    +0.000 N 
ATOM     23  C   UNL     1       1.742   9.281  18.759  0.00  0.00    +0.000 C 
ATOM     24  O   UNL     1       1.918  10.343  18.169  0.00  0.00    +0.000 OA
ATOM     25  N   UNL     1       0.184  11.372  20.080  0.00  0.00    +0.000 NA
ATOM     26  H   UNL     1       1.107   8.261  20.465  0.00  0.00    +0.000 HD
BRANCH  18  29
ATOM     27  C   UNL     1      -0.637  15.838  21.824  0.00  0.00    +0.000 C 
ATOM     28  N   UNL     1      -0.356  14.428  21.882  0.00  0.00    +0.000 N 
ATOM     29  C   UNL     1      -0.709  13.576  20.863  0.00  0.00    +0.000 C 
ATOM     30  O   UNL     1      -1.289  13.939  19.842  0.00  0.00    +0.000 OA
ATOM     31  H   UNL     1       0.032  14.002  22.720  0.00  0.00    +0.000 HD
ENDBRANCH  18  29
ENDBRANCH   1  23
TORSDOF 2
ENDMDL
