MODEL 1
REMARK VINA RESULT:      -9.9      0.000      0.000
REMARK  Name = 
REMARK  4 active torsions:
REMARK  status: ('A' for Active; 'I' for Inactive)
REMARK    1  A    between atoms: C_1  and  S_2
REMARK    2  A    between atoms: S_2  and  C_5
REMARK    3  A    between atoms: C_11  and  O_12
REMARK    4  A    between atoms: O_12  and  C_13
REMARK                            x       y       z     vdW  Elec       q    Type
REMARK                         _______ _______ _______ _____ _____    ______ ____
ROOT
ATOM      1  C   UNL     1       2.112   7.224  19.994  0.00  0.00    +0.000 A 
ATOM      2  C   UNL     1       1.413   6.219  20.659  0.00  0.00    +0.000 A 
ATOM      3  C   UNL     1       1.707   4.879  20.399  0.00  0.00    +0.000 A 
ATOM      4  C   UNL     1       2.640   4.507  19.449  0.00  0.00    +0.000 A 
ATOM      5  N   UNL     1       2.864   3.197  19.284  0.00  0.00    +0.000 NA
ATOM      6  C   UNL     1       3.753   2.863  18.355  0.00  0.00    +0.000 A 
ATOM      7  N   UNL     1       4.425   3.705  17.576  0.00  0.00    +0.000 NA
ATOM      8  C   UNL     1       4.206   5.027  17.752  0.00  0.00    +0.000 A 
ATOM      9  N   UNL     1       4.957   5.923  16.952  0.00  0.00    +0.000 N 
ATOM     10  C   UNL     1       5.698   5.479  15.831  0.00  0.00    +0.000 A 
ATOM     11  C   UNL     1       5.099   4.678  14.860  0.00  0.00    +0.000 A 
ATOM     12  C   UNL     1       5.872   4.149  13.837  0.00  0.00    +0.000 A 
ATOM     13  C   UNL     1       7.207   4.473  13.800  0.00  0.00    +0.000 A 
ATOM     14  N   UNL     1       7.766   5.305  14.701  0.00  0.00    +0.000 NA
ATOM     15  N   UNL     1       7.001   5.818  15.720  0.00  0.00    +0.000 NA
ATOM     16  C   UNL     1       3.296   5.507  18.710  0.00  0.00    +0.000 A 
ATOM     17  C   UNL     1       3.000   6.875  18.974  0.00  0.00    +0.000 A 
ATOM     18  H   UNL     1       5.598   6.454  17.538  0.00  0.00    +0.000 HD
ENDROOT
BRANCH   1  19
ATOM     19  O   UNL     1       1.987   8.570  20.279  0.00  0.00    +0.000 OA
BRANCH  19  26
ATOM     20  C   UNL     1      -0.023   9.847  20.559  0.00  0.00    +0.000 A 
ATOM     21  C   UNL     1      -1.037  10.669  20.039  0.00  0.00    +0.000 A 
ATOM     22  C   UNL     1      -1.118  10.898  18.666  0.00  0.00    +0.000 A 
ATOM     23  C   UNL     1      -0.223  10.264  17.813  0.00  0.00    +0.000 A 
ATOM     24  C   UNL     1       0.776   9.445  18.336  0.00  0.00    +0.000 A 
ATOM     25  F   UNL     1       1.570   8.808  17.465  0.00  0.00    +0.000 F 
ATOM     26  C   UNL     1       0.948   9.288  19.720  0.00  0.00    +0.000 A 
BRANCH  20  28
ATOM     27  C   UNL     1      -1.025  10.774  23.014  0.00  0.00    +0.000 C 
ATOM     28  S   UNL     1      -0.052   9.475  22.295  0.00  0.00    +0.000 S 
ATOM     29  O   UNL     1       1.301   9.650  22.792  0.00  0.00    +0.000 OA
ATOM     30  O   UNL     1      -0.735   8.209  22.463  0.00  0.00    +0.000 OA
ENDBRANCH  20  28
ENDBRANCH  19  26
ENDBRANCH   1  19
TORSDOF 3
ENDMDL
MODEL 2
REMARK VINA RESULT:      -9.4      1.587      1.965
REMARK  Name = 
REMARK  4 active torsions:
REMARK  status: ('A' for Active; 'I' for Inactive)
REMARK    1  A    between atoms: C_1  and  S_2
REMARK    2  A    between atoms: S_2  and  C_5
REMARK    3  A    between atoms: C_11  and  O_12
REMARK    4  A    between atoms: O_12  and  C_13
REMARK                            x       y       z     vdW  Elec       q    Type
REMARK                         _______ _______ _______ _____ _____    ______ ____
ROOT
ATOM      1  C   UNL     1       1.369   8.975  19.591  0.00  0.00    +0.000 A 
ATOM      2  C   UNL     1       0.742   8.245  20.599  0.00  0.00    +0.000 A 
ATOM      3  C   UNL     1       1.168   6.948  20.885  0.00  0.00    +0.000 A 
ATOM      4  C   UNL     1       2.167   6.329  20.157  0.00  0.00    +0.000 A 
ATOM      5  N   UNL     1       2.517   5.088  20.520  0.00  0.00    +0.000 NA
ATOM      6  C   UNL     1       3.468   4.509  19.796  0.00  0.00    +0.000 A 
ATOM      7  N   UNL     1       4.089   5.042  18.748  0.00  0.00    +0.000 NA
ATOM      8  C   UNL     1       3.742   6.299  18.390  0.00  0.00    +0.000 A 
ATOM      9  N   UNL     1       4.436   6.880  17.302  0.00  0.00    +0.000 N 
ATOM     10  C   UNL     1       5.258   6.110  16.444  0.00  0.00    +0.000 A 
ATOM     11  C   UNL     1       4.773   4.938  15.867  0.00  0.00    +0.000 A 
ATOM     12  C   UNL     1       5.630   4.131  15.133  0.00  0.00    +0.000 A 
ATOM     13  C   UNL     1       6.929   4.546  14.970  0.00  0.00    +0.000 A 
ATOM     14  N   UNL     1       7.375   5.716  15.471  0.00  0.00    +0.000 NA
ATOM     15  N   UNL     1       6.527   6.507  16.207  0.00  0.00    +0.000 NA
ATOM     16  C   UNL     1       2.755   7.021  19.084  0.00  0.00    +0.000 A 
ATOM     17  C   UNL     1       2.324   8.346  18.790  0.00  0.00    +0.000 A 
ATOM     18  H   UNL     1       5.003   7.659  17.631  0.00  0.00    +0.000 HD
ENDROOT
BRANCH   1  19
ATOM     19  O   UNL     1       1.109  10.305  19.325  0.00  0.00    +0.000 OA
BRANCH  19  26
ATOM     20  C   UNL     1      -0.770  11.596  20.067  0.00  0.00    +0.000 A 
ATOM     21  C   UNL     1      -2.058  12.119  19.860  0.00  0.00    +0.000 A 
ATOM     22  C   UNL     1      -2.803  11.727  18.749  0.00  0.00    +0.000 A 
ATOM     23  C   UNL     1      -2.285  10.776  17.878  0.00  0.00    +0.000 A 
ATOM     24  C   UNL     1      -1.009  10.258  18.094  0.00  0.00    +0.000 A 
ATOM     25  F   UNL     1      -0.585   9.298  17.261  0.00  0.00    +0.000 F 
ATOM     26  C   UNL     1      -0.195  10.718  19.140  0.00  0.00    +0.000 A 
BRANCH  20  28
ATOM     27  C   UNL     1      -0.871  13.354  22.256  0.00  0.00    +0.000 C 
ATOM     28  S   UNL     1       0.076  12.018  21.569  0.00  0.00    +0.000 S 
ATOM     29  O   UNL     1       1.363  12.576  21.194  0.00  0.00    +0.000 OA
ATOM     30  O   UNL     1       0.004  10.872  22.453  0.00  0.00    +0.000 OA
ENDBRANCH  20  28
ENDBRANCH  19  26
ENDBRANCH   1  19
TORSDOF 3
ENDMDL
MODEL 3
REMARK VINA RESULT:      -9.0      1.734      2.545
REMARK  Name = 
REMARK  4 active torsions:
REMARK  status: ('A' for Active; 'I' for Inactive)
REMARK    1  A    between atoms: C_1  and  S_2
REMARK    2  A    between atoms: S_2  and  C_5
REMARK    3  A    between atoms: C_11  and  O_12
REMARK    4  A    between atoms: O_12  and  C_13
REMARK                            x       y       z     vdW  Elec       q    Type
REMARK                         _______ _______ _______ _____ _____    ______ ____
ROOT
ATOM      1  C   UNL     1       1.879   7.703  19.789  0.00  0.00    +0.000 A 
ATOM      2  C   UNL     1       1.278   6.762  20.623  0.00  0.00    +0.000 A 
ATOM      3  C   UNL     1       1.700   5.432  20.588  0.00  0.00    +0.000 A 
ATOM      4  C   UNL     1       2.666   4.995  19.701  0.00  0.00    +0.000 A 
ATOM      5  N   UNL     1       3.015   3.703  19.756  0.00  0.00    +0.000 NA
ATOM      6  C   UNL     1       3.934   3.304  18.884  0.00  0.00    +0.000 A 
ATOM      7  N   UNL     1       4.524   4.062  17.965  0.00  0.00    +0.000 NA
ATOM      8  C   UNL     1       4.179   5.368  17.919  0.00  0.00    +0.000 A 
ATOM      9  N   UNL     1       4.842   6.183  16.970  0.00  0.00    +0.000 N 
ATOM     10  C   UNL     1       5.626   5.629  15.929  0.00  0.00    +0.000 A 
ATOM     11  C   UNL     1       5.108   4.622  15.116  0.00  0.00    +0.000 A 
ATOM     12  C   UNL     1       5.931   4.004  14.185  0.00  0.00    +0.000 A 
ATOM     13  C   UNL     1       7.228   4.442  14.076  0.00  0.00    +0.000 A 
ATOM     14  N   UNL     1       7.704   5.464  14.816  0.00  0.00    +0.000 NA
ATOM     15  N   UNL     1       6.890   6.066  15.745  0.00  0.00    +0.000 NA
ATOM     16  C   UNL     1       3.225   5.915  18.796  0.00  0.00    +0.000 A 
ATOM     17  C   UNL     1       2.799   7.272  18.830  0.00  0.00    +0.000 A 
ATOM     18  H   UNL     1       5.428   6.864  17.449  0.00  0.00    +0.000 HD
ENDROOT
BRANCH   1  19
ATOM     19  O   UNL     1       1.625   9.059  19.845  0.00  0.00    +0.000 OA
BRANCH  19  26
ATOM     20  C   UNL     1      -0.249  10.386  20.536  0.00  0.00    +0.000 A 
ATOM     21  C   UNL     1      -1.137  10.831  21.530  0.00  0.00    +0.000 A 
ATOM     22  C   UNL     1      -0.921  10.495  22.865  0.00  0.00    +0.000 A 
ATOM     23  C   UNL     1       0.208   9.762  23.212  0.00  0.00    +0.000 A 
ATOM     24  C   UNL     1       1.087   9.330  22.221  0.00  0.00    +0.000 A 
ATOM     25  F   UNL     1       2.192   8.683  22.617  0.00  0.00    +0.000 F 
ATOM     26  C   UNL     1       0.833   9.560  20.860  0.00  0.00    +0.000 A 
BRANCH  20  28
ATOM     27  C   UNL     1      -1.999  11.898  18.941  0.00  0.00    +0.000 C 
ATOM     28  S   UNL     1      -0.491  10.962  18.875  0.00  0.00    +0.000 S 
ATOM     29  O   UNL     1      -0.766   9.796  18.054  0.00  0.00    +0.000 OA
ATOM     30  O   UNL     1       0.610  11.844  18.548  0.00  0.00    +0.000 OA
ENDBRANCH  20  28
ENDBRANCH  19  26
ENDBRANCH   1  19
TORSDOF 3
ENDMDL
MODEL 4
REMARK VINA RESULT:      -8.3      4.446      8.077
REMARK  Name = 
REMARK  4 active torsions:
REMARK  status: ('A' for Active; 'I' for Inactive)
REMARK    1  A    between atoms: C_1  and  S_2
REMARK    2  A    between atoms: S_2  and  C_5
REMARK    3  A    between atoms: C_11  and  O_12
REMARK    4  A    between atoms: O_12  and  C_13
REMARK                            x       y       z     vdW  Elec       q    Type
REMARK                         _______ _______ _______ _____ _____    ______ ____
ROOT
ATOM      1  C   UNL     1       2.390   6.979  19.081  0.00  0.00    +0.000 A 
ATOM      2  C   UNL     1       2.084   6.248  20.227  0.00  0.00    +0.000 A 
ATOM      3  C   UNL     1       1.337   6.838  21.249  0.00  0.00    +0.000 A 
ATOM      4  C   UNL     1       0.934   8.158  21.190  0.00  0.00    +0.000 A 
ATOM      5  N   UNL     1       0.206   8.628  22.212  0.00  0.00    +0.000 NA
ATOM      6  C   UNL     1      -0.157   9.903  22.140  0.00  0.00    +0.000 A 
ATOM      7  N   UNL     1       0.144  10.749  21.160  0.00  0.00    +0.000 NA
ATOM      8  C   UNL     1       0.869  10.271  20.124  0.00  0.00    +0.000 A 
ATOM      9  N   UNL     1       1.148  11.162  19.059  0.00  0.00    +0.000 N 
ATOM     10  C   UNL     1       0.931  12.556  19.177  0.00  0.00    +0.000 A 
ATOM     11  C   UNL     1       1.439  13.260  20.267  0.00  0.00    +0.000 A 
ATOM     12  C   UNL     1       1.110  14.598  20.431  0.00  0.00    +0.000 A 
ATOM     13  C   UNL     1       0.318  15.191  19.478  0.00  0.00    +0.000 A 
ATOM     14  N   UNL     1      -0.112  14.524  18.389  0.00  0.00    +0.000 NA
ATOM     15  N   UNL     1       0.205  13.196  18.235  0.00  0.00    +0.000 NA
ATOM     16  C   UNL     1       1.304   8.935  20.078  0.00  0.00    +0.000 A 
ATOM     17  C   UNL     1       2.064   8.336  19.033  0.00  0.00    +0.000 A 
ATOM     18  H   UNL     1       0.662  10.858  18.218  0.00  0.00    +0.000 HD
ENDROOT
BRANCH   1  19
ATOM     19  O   UNL     1       3.005   6.445  17.966  0.00  0.00    +0.000 OA
BRANCH  19  26
ATOM     20  C   UNL     1       4.430   4.517  18.044  0.00  0.00    +0.000 A 
ATOM     21  C   UNL     1       4.609   3.124  18.051  0.00  0.00    +0.000 A 
ATOM     22  C   UNL     1       3.525   2.277  17.830  0.00  0.00    +0.000 A 
ATOM     23  C   UNL     1       2.277   2.821  17.549  0.00  0.00    +0.000 A 
ATOM     24  C   UNL     1       2.109   4.205  17.537  0.00  0.00    +0.000 A 
ATOM     25  F   UNL     1       0.902   4.676  17.197  0.00  0.00    +0.000 F 
ATOM     26  C   UNL     1       3.159   5.076  17.866  0.00  0.00    +0.000 A 
BRANCH  20  28
ATOM     27  C   UNL     1       7.174   4.601  17.450  0.00  0.00    +0.000 C 
ATOM     28  S   UNL     1       5.867   5.550  18.187  0.00  0.00    +0.000 S 
ATOM     29  O   UNL     1       6.180   5.652  19.601  0.00  0.00    +0.000 OA
ATOM     30  O   UNL     1       5.634   6.743  17.401  0.00  0.00    +0.000 OA
ENDBRANCH  20  28
ENDBRANCH  19  26
ENDBRANCH   1  19
TORSDOF 3
ENDMDL
MODEL 5
REMARK VINA RESULT:      -8.2      2.517      3.246
REMARK  Name = 
REMARK  4 active torsions:
REMARK  status: ('A' for Active; 'I' for Inactive)
REMARK    1  A    between atoms: C_1  and  S_2
REMARK    2  A    between atoms: S_2  and  C_5
REMARK    3  A    between atoms: C_11  and  O_12
REMARK    4  A    between atoms: O_12  and  C_13
REMARK                            x       y       z     vdW  Elec       q    Type
REMARK                         _______ _______ _______ _____ _____    ______ ____
ROOT
ATOM      1  C   UNL     1       1.009   9.362  19.273  0.00  0.00    +0.000 A 
ATOM      2  C   UNL     1       0.418   8.754  20.379  0.00  0.00    +0.000 A 
ATOM      3  C   UNL     1       0.912   7.536  20.849  0.00  0.00    +0.000 A 
ATOM      4  C   UNL     1       1.944   6.872  20.214  0.00  0.00    +0.000 A 
ATOM      5  N   UNL     1       2.359   5.717  20.752  0.00  0.00    +0.000 NA
ATOM      6  C   UNL     1       3.342   5.090  20.116  0.00  0.00    +0.000 A 
ATOM      7  N   UNL     1       3.936   5.497  18.998  0.00  0.00    +0.000 NA
ATOM      8  C   UNL     1       3.524   6.668  18.463  0.00  0.00    +0.000 A 
ATOM      9  N   UNL     1       4.190   7.121  17.299  0.00  0.00    +0.000 N 
ATOM     10  C   UNL     1       5.055   6.279  16.559  0.00  0.00    +0.000 A 
ATOM     11  C   UNL     1       4.634   5.011  16.161  0.00  0.00    +0.000 A 
ATOM     12  C   UNL     1       5.536   4.153  15.548  0.00  0.00    +0.000 A 
ATOM     13  C   UNL     1       6.812   4.609  15.320  0.00  0.00    +0.000 A 
ATOM     14  N   UNL     1       7.193   5.861  15.643  0.00  0.00    +0.000 NA
ATOM     15  N   UNL     1       6.302   6.704  16.261  0.00  0.00    +0.000 NA
ATOM     16  C   UNL     1       2.499   7.431  19.049  0.00  0.00    +0.000 A 
ATOM     17  C   UNL     1       1.998   8.674  18.567  0.00  0.00    +0.000 A 
ATOM     18  H   UNL     1       4.714   7.969  17.509  0.00  0.00    +0.000 HD
ENDROOT
BRANCH   1  19
ATOM     19  O   UNL     1       0.680  10.623  18.817  0.00  0.00    +0.000 OA
BRANCH  19  26
ATOM     20  C   UNL     1      -1.309  11.765  19.519  0.00  0.00    +0.000 A 
ATOM     21  C   UNL     1      -1.996  12.584  20.430  0.00  0.00    +0.000 A 
ATOM     22  C   UNL     1      -1.309  13.200  21.475  0.00  0.00    +0.000 A 
ATOM     23  C   UNL     1       0.068  13.041  21.576  0.00  0.00    +0.000 A 
ATOM     24  C   UNL     1       0.743  12.232  20.664  0.00  0.00    +0.000 A 
ATOM     25  F   UNL     1       2.077  12.167  20.770  0.00  0.00    +0.000 F 
ATOM     26  C   UNL     1       0.060  11.513  19.672  0.00  0.00    +0.000 A 
BRANCH  20  28
ATOM     27  C   UNL     1      -3.882  11.637  18.398  0.00  0.00    +0.000 C 
ATOM     28  S   UNL     1      -2.204  11.123  18.126  0.00  0.00    +0.000 S 
ATOM     29  O   UNL     1      -2.192   9.675  18.242  0.00  0.00    +0.000 OA
ATOM     30  O   UNL     1      -1.688  11.766  16.936  0.00  0.00    +0.000 OA
ENDBRANCH  20  28
ENDBRANCH  19  26
ENDBRANCH   1  19
TORSDOF 3
ENDMDL
MODEL 6
REMARK VINA RESULT:      -8.1      4.287      7.522
REMARK  Name = 
REMARK  4 active torsions:
REMARK  status: ('A' for Active; 'I' for Inactive)
REMARK    1  A    between atoms: C_1  and  S_2
REMARK    2  A    between atoms: S_2  and  C_5
REMARK    3  A    between atoms: C_11  and  O_12
REMARK    4  A    between atoms: O_12  and  C_13
REMARK                            x       y       z     vdW  Elec       q    Type
REMARK                         _______ _______ _______ _____ _____    ______ ____
ROOT
ATOM      1  C   UNL     1       5.374   3.875  18.912  0.00  0.00    +0.000 A 
ATOM      2  C   UNL     1       4.972   2.613  19.347  0.00  0.00    +0.000 A 
ATOM      3  C   UNL     1       3.703   2.441  19.902  0.00  0.00    +0.000 A 
ATOM      4  C   UNL     1       2.839   3.503  20.094  0.00  0.00    +0.000 A 
ATOM      5  N   UNL     1       1.637   3.232  20.619  0.00  0.00    +0.000 NA
ATOM      6  C   UNL     1       0.830   4.270  20.808  0.00  0.00    +0.000 A 
ATOM      7  N   UNL     1       1.110   5.541  20.535  0.00  0.00    +0.000 NA
ATOM      8  C   UNL     1       2.320   5.810  19.994  0.00  0.00    +0.000 A 
ATOM      9  N   UNL     1       2.598   7.158  19.662  0.00  0.00    +0.000 N 
ATOM     10  C   UNL     1       1.782   8.222  20.116  0.00  0.00    +0.000 A 
ATOM     11  C   UNL     1       1.453   8.332  21.465  0.00  0.00    +0.000 A 
ATOM     12  C   UNL     1       0.551   9.305  21.872  0.00  0.00    +0.000 A 
ATOM     13  C   UNL     1       0.043  10.156  20.920  0.00  0.00    +0.000 A 
ATOM     14  N   UNL     1       0.420  10.090  19.627  0.00  0.00    +0.000 NA
ATOM     15  N   UNL     1       1.303   9.118  19.225  0.00  0.00    +0.000 NA
ATOM     16  C   UNL     1       3.259   4.796  19.737  0.00  0.00    +0.000 A 
ATOM     17  C   UNL     1       4.552   4.975  19.168  0.00  0.00    +0.000 A 
ATOM     18  H   UNL     1       2.675   7.255  18.651  0.00  0.00    +0.000 HD
ENDROOT
BRANCH   1  19
ATOM     19  O   UNL     1       6.550   4.119  18.232  0.00  0.00    +0.000 OA
BRANCH  19  26
ATOM     20  C   UNL     1       6.581   6.175  16.997  0.00  0.00    +0.000 A 
ATOM     21  C   UNL     1       6.933   7.530  16.879  0.00  0.00    +0.000 A 
ATOM     22  C   UNL     1       7.750   8.128  17.837  0.00  0.00    +0.000 A 
ATOM     23  C   UNL     1       8.257   7.360  18.879  0.00  0.00    +0.000 A 
ATOM     24  C   UNL     1       7.908   6.015  18.985  0.00  0.00    +0.000 A 
ATOM     25  F   UNL     1       8.476   5.308  19.971  0.00  0.00    +0.000 F 
ATOM     26  C   UNL     1       6.999   5.418  18.098  0.00  0.00    +0.000 A 
BRANCH  20  28
ATOM     27  C   UNL     1       6.766   4.226  14.982  0.00  0.00    +0.000 C 
ATOM     28  S   UNL     1       5.659   5.428  15.676  0.00  0.00    +0.000 S 
ATOM     29  O   UNL     1       5.468   6.447  14.659  0.00  0.00    +0.000 OA
ATOM     30  O   UNL     1       4.518   4.754  16.260  0.00  0.00    +0.000 OA
ENDBRANCH  20  28
ENDBRANCH  19  26
ENDBRANCH   1  19
TORSDOF 3
ENDMDL
MODEL 7
REMARK VINA RESULT:      -8.1      4.393      7.628
REMARK  Name = 
REMARK  4 active torsions:
REMARK  status: ('A' for Active; 'I' for Inactive)
REMARK    1  A    between atoms: C_1  and  S_2
REMARK    2  A    between atoms: S_2  and  C_5
REMARK    3  A    between atoms: C_11  and  O_12
REMARK    4  A    between atoms: O_12  and  C_13
REMARK                            x       y       z     vdW  Elec       q    Type
REMARK                         _______ _______ _______ _____ _____    ______ ____
ROOT
ATOM      1  C   UNL     1       5.479   3.832  18.911  0.00  0.00    +0.000 A 
ATOM      2  C   UNL     1       5.073   2.605  19.433  0.00  0.00    +0.000 A 
ATOM      3  C   UNL     1       3.789   2.467  19.964  0.00  0.00    +0.000 A 
ATOM      4  C   UNL     1       2.913   3.532  20.045  0.00  0.00    +0.000 A 
ATOM      5  N   UNL     1       1.698   3.294  20.555  0.00  0.00    +0.000 NA
ATOM      6  C   UNL     1       0.879   4.337  20.636  0.00  0.00    +0.000 A 
ATOM      7  N   UNL     1       1.159   5.584  20.271  0.00  0.00    +0.000 NA
ATOM      8  C   UNL     1       2.382   5.819  19.746  0.00  0.00    +0.000 A 
ATOM      9  N   UNL     1       2.662   7.140  19.315  0.00  0.00    +0.000 N 
ATOM     10  C   UNL     1       1.825   8.229  19.659  0.00  0.00    +0.000 A 
ATOM     11  C   UNL     1       1.456   8.444  20.985  0.00  0.00    +0.000 A 
ATOM     12  C   UNL     1       0.536   9.438  21.286  0.00  0.00    +0.000 A 
ATOM     13  C   UNL     1       0.051  10.205  20.255  0.00  0.00    +0.000 A 
ATOM     14  N   UNL     1       0.466  10.040  18.983  0.00  0.00    +0.000 NA
ATOM     15  N   UNL     1       1.368   9.047  18.686  0.00  0.00    +0.000 NA
ATOM     16  C   UNL     1       3.335   4.797  19.597  0.00  0.00    +0.000 A 
ATOM     17  C   UNL     1       4.643   4.942  19.054  0.00  0.00    +0.000 A 
ATOM     18  H   UNL     1       2.767   7.157  18.303  0.00  0.00    +0.000 HD
ENDROOT
BRANCH   1  19
ATOM     19  O   UNL     1       6.674   4.032  18.248  0.00  0.00    +0.000 OA
BRANCH  19  26
ATOM     20  C   UNL     1       7.163   5.951  16.895  0.00  0.00    +0.000 A 
ATOM     21  C   UNL     1       7.579   7.287  16.767  0.00  0.00    +0.000 A 
ATOM     22  C   UNL     1       8.068   7.978  17.873  0.00  0.00    +0.000 A 
ATOM     23  C   UNL     1       8.193   7.321  19.091  0.00  0.00    +0.000 A 
ATOM     24  C   UNL     1       7.784   5.994  19.209  0.00  0.00    +0.000 A 
ATOM     25  F   UNL     1       7.986   5.390  20.388  0.00  0.00    +0.000 F 
ATOM     26  C   UNL     1       7.185   5.310  18.140  0.00  0.00    +0.000 A 
BRANCH  20  28
ATOM     27  C   UNL     1       5.034   5.636  15.090  0.00  0.00    +0.000 C 
ATOM     28  S   UNL     1       6.685   5.075  15.428  0.00  0.00    +0.000 S 
ATOM     29  O   UNL     1       6.578   3.671  15.783  0.00  0.00    +0.000 OA
ATOM     30  O   UNL     1       7.565   5.493  14.357  0.00  0.00    +0.000 OA
ENDBRANCH  20  28
ENDBRANCH  19  26
ENDBRANCH   1  19
TORSDOF 3
ENDMDL
MODEL 8
REMARK VINA RESULT:      -7.7      2.551      2.938
REMARK  Name = 
REMARK  4 active torsions:
REMARK  status: ('A' for Active; 'I' for Inactive)
REMARK    1  A    between atoms: C_1  and  S_2
REMARK    2  A    between atoms: S_2  and  C_5
REMARK    3  A    between atoms: C_11  and  O_12
REMARK    4  A    between atoms: O_12  and  C_13
REMARK                            x       y       z     vdW  Elec       q    Type
REMARK                         _______ _______ _______ _____ _____    ______ ____
ROOT
ATOM      1  C   UNL     1       0.945   9.388  18.979  0.00  0.00    +0.000 A 
ATOM      2  C   UNL     1       0.394   8.849  20.139  0.00  0.00    +0.000 A 
ATOM      3  C   UNL     1       0.941   7.691  20.695  0.00  0.00    +0.000 A 
ATOM      4  C   UNL     1       1.988   7.017  20.095  0.00  0.00    +0.000 A 
ATOM      5  N   UNL     1       2.455   5.925  20.715  0.00  0.00    +0.000 NA
ATOM      6  C   UNL     1       3.451   5.286  20.112  0.00  0.00    +0.000 A 
ATOM      7  N   UNL     1       4.012   5.624  18.956  0.00  0.00    +0.000 NA
ATOM      8  C   UNL     1       3.548   6.733  18.338  0.00  0.00    +0.000 A 
ATOM      9  N   UNL     1       4.179   7.116  17.129  0.00  0.00    +0.000 N 
ATOM     10  C   UNL     1       5.063   6.250  16.442  0.00  0.00    +0.000 A 
ATOM     11  C   UNL     1       4.685   4.941  16.153  0.00  0.00    +0.000 A 
ATOM     12  C   UNL     1       5.610   4.070  15.593  0.00  0.00    +0.000 A 
ATOM     13  C   UNL     1       6.863   4.553  15.307  0.00  0.00    +0.000 A 
ATOM     14  N   UNL     1       7.201   5.840  15.524  0.00  0.00    +0.000 NA
ATOM     15  N   UNL     1       6.288   6.696  16.089  0.00  0.00    +0.000 NA
ATOM     16  C   UNL     1       2.503   7.502  18.880  0.00  0.00    +0.000 A 
ATOM     17  C   UNL     1       1.949   8.684  18.312  0.00  0.00    +0.000 A 
ATOM     18  H   UNL     1       4.673   7.997  17.262  0.00  0.00    +0.000 HD
ENDROOT
BRANCH   1  19
ATOM     19  O   UNL     1       0.561  10.597  18.431  0.00  0.00    +0.000 OA
BRANCH  19  26
ATOM     20  C   UNL     1       0.288  12.511  19.850  0.00  0.00    +0.000 A 
ATOM     21  C   UNL     1       0.807  13.654  20.480  0.00  0.00    +0.000 A 
ATOM     22  C   UNL     1       2.095  14.096  20.182  0.00  0.00    +0.000 A 
ATOM     23  C   UNL     1       2.840  13.429  19.216  0.00  0.00    +0.000 A 
ATOM     24  C   UNL     1       2.316  12.300  18.591  0.00  0.00    +0.000 A 
ATOM     25  F   UNL     1       3.051  11.735  17.622  0.00  0.00    +0.000 F 
ATOM     26  C   UNL     1       1.068  11.770  18.953  0.00  0.00    +0.000 A 
BRANCH  20  28
ATOM     27  C   UNL     1      -2.207  13.622  20.504  0.00  0.00    +0.000 C 
ATOM     28  S   UNL     1      -1.405  12.076  20.159  0.00  0.00    +0.000 S 
ATOM     29  O   UNL     1      -1.432  11.313  21.394  0.00  0.00    +0.000 OA
ATOM     30  O   UNL     1      -1.946  11.514  18.939  0.00  0.00    +0.000 OA
ENDBRANCH  20  28
ENDBRANCH  19  26
ENDBRANCH   1  19
TORSDOF 3
ENDMDL
MODEL 9
REMARK VINA RESULT:      -7.4      6.170     10.063
REMARK  Name = 
REMARK  4 active torsions:
REMARK  status: ('A' for Active; 'I' for Inactive)
REMARK    1  A    between atoms: C_1  and  S_2
REMARK    2  A    between atoms: S_2  and  C_5
REMARK    3  A    between atoms: C_11  and  O_12
REMARK    4  A    between atoms: O_12  and  C_13
REMARK                            x       y       z     vdW  Elec       q    Type
REMARK                         _______ _______ _______ _____ _____    ______ ____
ROOT
ATOM      1  C   UNL     1      -0.886  10.755  18.455  0.00  0.00    +0.000 A 
ATOM      2  C   UNL     1      -1.255  10.072  17.298  0.00  0.00    +0.000 A 
ATOM      3  C   UNL     1      -2.548  10.210  16.791  0.00  0.00    +0.000 A 
ATOM      4  C   UNL     1      -3.508  10.966  17.436  0.00  0.00    +0.000 A 
ATOM      5  N   UNL     1      -4.716  11.051  16.861  0.00  0.00    +0.000 NA
ATOM      6  C   UNL     1      -5.626  11.771  17.507  0.00  0.00    +0.000 A 
ATOM      7  N   UNL     1      -5.451  12.397  18.667  0.00  0.00    +0.000 NA
ATOM      8  C   UNL     1      -4.229  12.320  19.239  0.00  0.00    +0.000 A 
ATOM      9  N   UNL     1      -4.033  13.026  20.451  0.00  0.00    +0.000 N 
ATOM     10  C   UNL     1      -5.117  13.564  21.185  0.00  0.00    +0.000 A 
ATOM     11  C   UNL     1      -6.216  12.768  21.504  0.00  0.00    +0.000 A 
ATOM     12  C   UNL     1      -7.323  13.343  22.113  0.00  0.00    +0.000 A 
ATOM     13  C   UNL     1      -7.273  14.683  22.414  0.00  0.00    +0.000 A 
ATOM     14  N   UNL     1      -6.180  15.432  22.167  0.00  0.00    +0.000 NA
ATOM     15  N   UNL     1      -5.090  14.863  21.554  0.00  0.00    +0.000 NA
ATOM     16  C   UNL     1      -3.178  11.597  18.648  0.00  0.00    +0.000 A 
ATOM     17  C   UNL     1      -1.859  11.459  19.168  0.00  0.00    +0.000 A 
ATOM     18  H   UNL     1      -3.371  13.786  20.303  0.00  0.00    +0.000 HD
ENDROOT
BRANCH   1  19
ATOM     19  O   UNL     1       0.400  10.787  18.957  0.00  0.00    +0.000 OA
BRANCH  19  26
ATOM     20  C   UNL     1       1.029   9.095  20.535  0.00  0.00    +0.000 A 
ATOM     21  C   UNL     1       1.591   7.843  20.832  0.00  0.00    +0.000 A 
ATOM     22  C   UNL     1       2.227   7.106  19.834  0.00  0.00    +0.000 A 
ATOM     23  C   UNL     1       2.349   7.644  18.558  0.00  0.00    +0.000 A 
ATOM     24  C   UNL     1       1.793   8.890  18.274  0.00  0.00    +0.000 A 
ATOM     25  F   UNL     1       1.995   9.389  17.046  0.00  0.00    +0.000 F 
ATOM     26  C   UNL     1       1.052   9.601  19.230  0.00  0.00    +0.000 A 
BRANCH  20  28
ATOM     27  C   UNL     1       0.992   9.277  23.338  0.00  0.00    +0.000 C 
ATOM     28  S   UNL     1       0.359  10.053  21.872  0.00  0.00    +0.000 S 
ATOM     29  O   UNL     1      -1.077   9.833  21.877  0.00  0.00    +0.000 OA
ATOM     30  O   UNL     1       0.894  11.394  21.766  0.00  0.00    +0.000 OA
ENDBRANCH  20  28
ENDBRANCH  19  26
ENDBRANCH   1  19
TORSDOF 3
ENDMDL
