MODEL 1
REMARK VINA RESULT:      -8.5      0.000      0.000
REMARK  Name = 
REMARK  14 active torsions:
REMARK  status: ('A' for Active; 'I' for Inactive)
REMARK    1  A    between atoms: C_1  and  C_2
REMARK    2  A    between atoms: C_4  and  C_5
REMARK    3  A    between atoms: N_7  and  C_8
REMARK    4  A    between atoms: C_8  and  C_9
REMARK    5  A    between atoms: C_8  and  C_16
REMARK    6  A    between atoms: C_9  and  C_10
REMARK    7  A    between atoms: C_16  and  O_17
REMARK    8  A    between atoms: C_16  and  C_18
REMARK    9  A    between atoms: C_18  and  N_19
REMARK   10  A    between atoms: N_19  and  C_20
REMARK   11  A    between atoms: C_20  and  C_21
REMARK   12  A    between atoms: C_20  and  C_22
REMARK   13  A    between atoms: C_20  and  C_23
REMARK   14  A    between atoms: N_30  and  C_31
REMARK                            x       y       z     vdW  Elec       q    Type
REMARK                         _______ _______ _______ _____ _____    ______ ____
ROOT
ATOM      1  C   UNL     1       3.692   6.747  18.400  0.00  0.00    +0.000 C 
ENDROOT
BRANCH   1   4
ATOM      2  C   UNL     1       5.663   5.947  17.093  0.00  0.00    +0.000 C 
ATOM      3  O   UNL     1       6.422   6.116  18.044  0.00  0.00    +0.000 OA
ATOM      4  N   UNL     1       4.326   6.252  17.162  0.00  0.00    +0.000 N 
ATOM      5  H   UNL     1       3.785   6.038  16.327  0.00  0.00    +0.000 HD
BRANCH   2   9
ATOM      6  C   UNL     1       5.645   3.381  12.733  0.00  0.00    +0.000 C 
ATOM      7  C   UNL     1       6.047   4.168  13.925  0.00  0.00    +0.000 A 
ATOM      8  C   UNL     1       5.420   4.310  15.138  0.00  0.00    +0.000 A 
ATOM      9  C   UNL     1       6.130   5.320  15.837  0.00  0.00    +0.000 A 
ATOM     10  N   UNL     1       7.231   5.687  15.149  0.00  0.00    +0.000 NA
ATOM     11  N   UNL     1       7.148   4.984  13.989  0.00  0.00    +0.000 N 
ATOM     12  C   UNL     1       8.097   5.210  12.920  0.00  0.00    +0.000 C 
ENDBRANCH   2   9
ENDBRANCH   1   4
BRANCH   1  13
ATOM     13  C   UNL     1       3.548   5.607  19.437  0.00  0.00    +0.000 C 
BRANCH  13  14
ATOM     14  C   UNL     1       2.631   4.431  19.163  0.00  0.00    +0.000 A 
ATOM     15  C   UNL     1       2.898   3.430  18.222  0.00  0.00    +0.000 A 
ATOM     16  C   UNL     1       2.104   2.283  18.153  0.00  0.00    +0.000 A 
ATOM     17  C   UNL     1       1.014   2.132  19.003  0.00  0.00    +0.000 A 
ATOM     18  C   UNL     1       0.688   3.150  19.894  0.00  0.00    +0.000 A 
ATOM     19  C   UNL     1       1.485   4.295  19.967  0.00  0.00    +0.000 A 
ENDBRANCH  13  14
ENDBRANCH   1  13
BRANCH   1  20
ATOM     20  C   UNL     1       2.391   7.592  18.163  0.00  0.00    +0.000 C 
BRANCH  20  21
ATOM     21  O   UNL     1       2.621   8.612  17.176  0.00  0.00    +0.000 OA
ATOM     22  H   UNL     1       3.211   8.244  16.491  0.00  0.00    +0.000 HD
ENDBRANCH  20  21
BRANCH  20  23
ATOM     23  C   UNL     1       1.851   8.275  19.459  0.00  0.00    +0.000 C 
BRANCH  23  24
ATOM     24  N   UNL     1       1.389   9.644  19.187  0.00  0.00    +0.000 NA
ATOM     25  H   UNL     1       1.188   9.746  18.194  0.00  0.00    +0.000 HD
BRANCH  24  26
ATOM     26  C   UNL     1       0.253  10.189  19.965  0.00  0.00    +0.000 C 
ATOM     27  C   UNL     1      -0.181   9.168  21.044  0.00  0.00    +0.000 C 
ATOM     28  C   UNL     1       0.639  11.512  20.655  0.00  0.00    +0.000 C 
BRANCH  26  29
ATOM     29  C   UNL     1      -0.922  10.489  18.995  0.00  0.00    +0.000 A 
ATOM     30  C   UNL     1      -1.038   9.871  17.735  0.00  0.00    +0.000 A 
ATOM     31  C   UNL     1      -2.076  10.192  16.853  0.00  0.00    +0.000 A 
ATOM     32  C   UNL     1      -3.038  11.128  17.217  0.00  0.00    +0.000 A 
ATOM     33  C   UNL     1      -2.975  11.725  18.471  0.00  0.00    +0.000 A 
ATOM     34  C   UNL     1      -1.937  11.401  19.353  0.00  0.00    +0.000 A 
ENDBRANCH  26  29
ENDBRANCH  24  26
ENDBRANCH  23  24
ENDBRANCH  20  23
ENDBRANCH   1  20
TORSDOF 10
ENDMDL
MODEL 2
REMARK VINA RESULT:      -8.2      2.059      8.339
REMARK  Name = 
REMARK  14 active torsions:
REMARK  status: ('A' for Active; 'I' for Inactive)
REMARK    1  A    between atoms: C_1  and  C_2
REMARK    2  A    between atoms: C_4  and  C_5
REMARK    3  A    between atoms: N_7  and  C_8
REMARK    4  A    between atoms: C_8  and  C_9
REMARK    5  A    between atoms: C_8  and  C_16
REMARK    6  A    between atoms: C_9  and  C_10
REMARK    7  A    between atoms: C_16  and  O_17
REMARK    8  A    between atoms: C_16  and  C_18
REMARK    9  A    between atoms: C_18  and  N_19
REMARK   10  A    between atoms: N_19  and  C_20
REMARK   11  A    between atoms: C_20  and  C_21
REMARK   12  A    between atoms: C_20  and  C_22
REMARK   13  A    between atoms: C_20  and  C_23
REMARK   14  A    between atoms: N_30  and  C_31
REMARK                            x       y       z     vdW  Elec       q    Type
REMARK                         _______ _______ _______ _____ _____    ______ ____
ROOT
ATOM      1  C   UNL     1       2.797   6.388  17.923  0.00  0.00    +0.000 C 
ENDROOT
BRANCH   1   4
ATOM      2  C   UNL     1       1.881   8.627  18.543  0.00  0.00    +0.000 C 
ATOM      3  O   UNL     1       2.078   9.072  17.415  0.00  0.00    +0.000 OA
ATOM      4  N   UNL     1       2.224   7.344  18.892  0.00  0.00    +0.000 N 
ATOM      5  H   UNL     1       1.982   7.070  19.842  0.00  0.00    +0.000 HD
BRANCH   2   9
ATOM      6  C   UNL     1      -0.199   9.970  22.955  0.00  0.00    +0.000 C 
ATOM      7  C   UNL     1       0.276   9.944  21.550  0.00  0.00    +0.000 A 
ATOM      8  C   UNL     1       0.611   8.877  20.754  0.00  0.00    +0.000 A 
ATOM      9  C   UNL     1       1.179   9.424  19.575  0.00  0.00    +0.000 A 
ATOM     10  N   UNL     1       1.073  10.768  19.577  0.00  0.00    +0.000 NA
ATOM     11  N   UNL     1       0.534  11.057  20.791  0.00  0.00    +0.000 N 
ATOM     12  C   UNL     1       0.385  12.430  21.223  0.00  0.00    +0.000 C 
ENDBRANCH   2   9
ENDBRANCH   1   4
BRANCH   1  13
ATOM     13  C   UNL     1       1.826   5.208  17.677  0.00  0.00    +0.000 C 
BRANCH  13  14
ATOM     14  C   UNL     1       1.619   4.149  18.741  0.00  0.00    +0.000 A 
ATOM     15  C   UNL     1       1.615   2.773  18.490  0.00  0.00    +0.000 A 
ATOM     16  C   UNL     1       1.604   1.853  19.541  0.00  0.00    +0.000 A 
ATOM     17  C   UNL     1       1.567   2.294  20.858  0.00  0.00    +0.000 A 
ATOM     18  C   UNL     1       1.495   3.657  21.128  0.00  0.00    +0.000 A 
ATOM     19  C   UNL     1       1.512   4.578  20.077  0.00  0.00    +0.000 A 
ENDBRANCH  13  14
ENDBRANCH   1  13
BRANCH   1  20
ATOM     20  C   UNL     1       4.278   5.971  18.230  0.00  0.00    +0.000 C 
BRANCH  20  21
ATOM     21  O   UNL     1       4.592   6.196  19.615  0.00  0.00    +0.000 OA
ATOM     22  H   UNL     1       4.878   7.124  19.715  0.00  0.00    +0.000 HD
ENDBRANCH  20  21
BRANCH  20  23
ATOM     23  C   UNL     1       5.329   6.730  17.359  0.00  0.00    +0.000 C 
BRANCH  23  24
ATOM     24  N   UNL     1       5.443   6.132  16.020  0.00  0.00    +0.000 NA
ATOM     25  H   UNL     1       5.935   6.774  15.401  0.00  0.00    +0.000 HD
BRANCH  24  26
ATOM     26  C   UNL     1       6.035   4.782  15.883  0.00  0.00    +0.000 C 
ATOM     27  C   UNL     1       7.227   4.630  16.858  0.00  0.00    +0.000 C 
ATOM     28  C   UNL     1       4.995   3.688  16.189  0.00  0.00    +0.000 C 
BRANCH  26  29
ATOM     29  C   UNL     1       6.504   4.587  14.414  0.00  0.00    +0.000 A 
ATOM     30  C   UNL     1       7.532   5.360  13.841  0.00  0.00    +0.000 A 
ATOM     31  C   UNL     1       7.907   5.205  12.502  0.00  0.00    +0.000 A 
ATOM     32  C   UNL     1       7.274   4.257  11.705  0.00  0.00    +0.000 A 
ATOM     33  C   UNL     1       6.284   3.450  12.253  0.00  0.00    +0.000 A 
ATOM     34  C   UNL     1       5.913   3.604  13.594  0.00  0.00    +0.000 A 
ENDBRANCH  26  29
ENDBRANCH  24  26
ENDBRANCH  23  24
ENDBRANCH  20  23
ENDBRANCH   1  20
TORSDOF 10
ENDMDL
MODEL 3
REMARK VINA RESULT:      -8.1      0.864      1.242
REMARK  Name = 
REMARK  14 active torsions:
REMARK  status: ('A' for Active; 'I' for Inactive)
REMARK    1  A    between atoms: C_1  and  C_2
REMARK    2  A    between atoms: C_4  and  C_5
REMARK    3  A    between atoms: N_7  and  C_8
REMARK    4  A    between atoms: C_8  and  C_9
REMARK    5  A    between atoms: C_8  and  C_16
REMARK    6  A    between atoms: C_9  and  C_10
REMARK    7  A    between atoms: C_16  and  O_17
REMARK    8  A    between atoms: C_16  and  C_18
REMARK    9  A    between atoms: C_18  and  N_19
REMARK   10  A    between atoms: N_19  and  C_20
REMARK   11  A    between atoms: C_20  and  C_21
REMARK   12  A    between atoms: C_20  and  C_22
REMARK   13  A    between atoms: C_20  and  C_23
REMARK   14  A    between atoms: N_30  and  C_31
REMARK                            x       y       z     vdW  Elec       q    Type
REMARK                         _______ _______ _______ _____ _____    ______ ____
ROOT
ATOM      1  C   UNL     1       3.967   6.364  18.571  0.00  0.00    +0.000 C 
ENDROOT
BRANCH   1   4
ATOM      2  C   UNL     1       5.900   5.667  17.154  0.00  0.00    +0.000 C 
ATOM      3  O   UNL     1       6.678   5.727  18.102  0.00  0.00    +0.000 OA
ATOM      4  N   UNL     1       4.571   5.986  17.278  0.00  0.00    +0.000 N 
ATOM      5  H   UNL     1       4.011   5.864  16.436  0.00  0.00    +0.000 HD
BRANCH   2   9
ATOM      6  C   UNL     1       5.804   3.397  12.633  0.00  0.00    +0.000 C 
ATOM      7  C   UNL     1       6.219   4.133  13.853  0.00  0.00    +0.000 A 
ATOM      8  C   UNL     1       5.659   4.146  15.106  0.00  0.00    +0.000 A 
ATOM      9  C   UNL     1       6.335   5.161  15.832  0.00  0.00    +0.000 A 
ATOM     10  N   UNL     1       7.360   5.657  15.110  0.00  0.00    +0.000 NA
ATOM     11  N   UNL     1       7.259   5.026  13.911  0.00  0.00    +0.000 N 
ATOM     12  C   UNL     1       8.121   5.395  12.809  0.00  0.00    +0.000 C 
ENDBRANCH   2   9
ENDBRANCH   1   4
BRANCH   1  13
ATOM     13  C   UNL     1       4.040   5.190  19.576  0.00  0.00    +0.000 C 
BRANCH  13  14
ATOM     14  C   UNL     1       3.008   4.080  19.536  0.00  0.00    +0.000 A 
ATOM     15  C   UNL     1       1.944   3.964  20.438  0.00  0.00    +0.000 A 
ATOM     16  C   UNL     1       0.929   3.027  20.231  0.00  0.00    +0.000 A 
ATOM     17  C   UNL     1       0.977   2.172  19.136  0.00  0.00    +0.000 A 
ATOM     18  C   UNL     1       2.064   2.220  18.270  0.00  0.00    +0.000 A 
ATOM     19  C   UNL     1       3.076   3.161  18.473  0.00  0.00    +0.000 A 
ENDBRANCH  13  14
ENDBRANCH   1  13
BRANCH   1  20
ATOM     20  C   UNL     1       2.556   7.042  18.449  0.00  0.00    +0.000 C 
BRANCH  20  21
ATOM     21  O   UNL     1       1.730   6.328  17.513  0.00  0.00    +0.000 OA
ATOM     22  H   UNL     1       0.801   6.415  17.800  0.00  0.00    +0.000 HD
ENDBRANCH  20  21
BRANCH  20  23
ATOM     23  C   UNL     1       2.623   8.536  18.004  0.00  0.00    +0.000 C 
BRANCH  23  24
ATOM     24  N   UNL     1       1.278   9.092  17.797  0.00  0.00    +0.000 NA
ATOM     25  H   UNL     1       0.602   8.333  17.727  0.00  0.00    +0.000 HD
BRANCH  24  26
ATOM     26  C   UNL     1       0.764  10.106  18.747  0.00  0.00    +0.000 C 
ATOM     27  C   UNL     1       0.857   9.565  20.193  0.00  0.00    +0.000 C 
ATOM     28  C   UNL     1       1.572  11.415  18.649  0.00  0.00    +0.000 C 
BRANCH  26  29
ATOM     29  C   UNL     1      -0.710  10.435  18.381  0.00  0.00    +0.000 A 
ATOM     30  C   UNL     1      -1.388   9.792  17.328  0.00  0.00    +0.000 A 
ATOM     31  C   UNL     1      -2.699  10.138  16.981  0.00  0.00    +0.000 A 
ATOM     32  C   UNL     1      -3.373  11.124  17.693  0.00  0.00    +0.000 A 
ATOM     33  C   UNL     1      -2.745  11.747  18.765  0.00  0.00    +0.000 A 
ATOM     34  C   UNL     1      -1.435  11.399  19.113  0.00  0.00    +0.000 A 
ENDBRANCH  26  29
ENDBRANCH  24  26
ENDBRANCH  23  24
ENDBRANCH  20  23
ENDBRANCH   1  20
TORSDOF 10
ENDMDL
MODEL 4
REMARK VINA RESULT:      -8.0      3.839      7.327
REMARK  Name = 
REMARK  14 active torsions:
REMARK  status: ('A' for Active; 'I' for Inactive)
REMARK    1  A    between atoms: C_1  and  C_2
REMARK    2  A    between atoms: C_4  and  C_5
REMARK    3  A    between atoms: N_7  and  C_8
REMARK    4  A    between atoms: C_8  and  C_9
REMARK    5  A    between atoms: C_8  and  C_16
REMARK    6  A    between atoms: C_9  and  C_10
REMARK    7  A    between atoms: C_16  and  O_17
REMARK    8  A    between atoms: C_16  and  C_18
REMARK    9  A    between atoms: C_18  and  N_19
REMARK   10  A    between atoms: N_19  and  C_20
REMARK   11  A    between atoms: C_20  and  C_21
REMARK   12  A    between atoms: C_20  and  C_22
REMARK   13  A    between atoms: C_20  and  C_23
REMARK   14  A    between atoms: N_30  and  C_31
REMARK                            x       y       z     vdW  Elec       q    Type
REMARK                         _______ _______ _______ _____ _____    ______ ____
ROOT
ATOM      1  C   UNL     1       7.268   5.994  16.759  0.00  0.00    +0.000 C 
ENDROOT
BRANCH   1   4
ATOM      2  C   UNL     1       8.187   7.786  18.235  0.00  0.00    +0.000 C 
ATOM      3  O   UNL     1       8.477   6.979  19.114  0.00  0.00    +0.000 OA
ATOM      4  N   UNL     1       7.571   7.406  17.068  0.00  0.00    +0.000 N 
ATOM      5  H   UNL     1       7.411   8.151  16.395  0.00  0.00    +0.000 HD
BRANCH   2   9
ATOM      6  C   UNL     1       8.177  12.801  17.565  0.00  0.00    +0.000 C 
ATOM      7  C   UNL     1       8.502  11.418  17.995  0.00  0.00    +0.000 A 
ATOM      8  C   UNL     1       8.160  10.216  17.426  0.00  0.00    +0.000 A 
ATOM      9  C   UNL     1       8.564   9.213  18.344  0.00  0.00    +0.000 A 
ATOM     10  N   UNL     1       9.252   9.757  19.368  0.00  0.00    +0.000 NA
ATOM     11  N   UNL     1       9.188  11.096  19.138  0.00  0.00    +0.000 N 
ATOM     12  C   UNL     1       9.710  12.036  20.106  0.00  0.00    +0.000 C 
ENDBRANCH   2   9
ENDBRANCH   1   4
BRANCH   1  13
ATOM     13  C   UNL     1       6.147   5.892  15.698  0.00  0.00    +0.000 C 
BRANCH  13  14
ATOM     14  C   UNL     1       6.326   5.018  14.473  0.00  0.00    +0.000 A 
ATOM     15  C   UNL     1       5.392   4.070  14.040  0.00  0.00    +0.000 A 
ATOM     16  C   UNL     1       5.536   3.434  12.805  0.00  0.00    +0.000 A 
ATOM     17  C   UNL     1       6.632   3.714  11.997  0.00  0.00    +0.000 A 
ATOM     18  C   UNL     1       7.610   4.597  12.441  0.00  0.00    +0.000 A 
ATOM     19  C   UNL     1       7.463   5.237  13.674  0.00  0.00    +0.000 A 
ENDBRANCH  13  14
ENDBRANCH   1  13
BRANCH   1  20
ATOM     20  C   UNL     1       7.064   5.087  18.024  0.00  0.00    +0.000 C 
BRANCH  20  21
ATOM     21  O   UNL     1       8.084   4.077  18.095  0.00  0.00    +0.000 OA
ATOM     22  H   UNL     1       7.686   3.270  18.474  0.00  0.00    +0.000 HD
ENDBRANCH  20  21
BRANCH  20  23
ATOM     23  C   UNL     1       5.671   4.383  18.064  0.00  0.00    +0.000 C 
BRANCH  23  24
ATOM     24  N   UNL     1       4.662   5.233  18.713  0.00  0.00    +0.000 NA
ATOM     25  H   UNL     1       4.920   6.213  18.604  0.00  0.00    +0.000 HD
BRANCH  24  26
ATOM     26  C   UNL     1       3.237   5.067  18.346  0.00  0.00    +0.000 C 
ATOM     27  C   UNL     1       2.570   6.455  18.193  0.00  0.00    +0.000 C 
ATOM     28  C   UNL     1       3.094   4.294  17.021  0.00  0.00    +0.000 C 
BRANCH  26  29
ATOM     29  C   UNL     1       2.527   4.240  19.453  0.00  0.00    +0.000 A 
ATOM     30  C   UNL     1       2.709   4.500  20.825  0.00  0.00    +0.000 A 
ATOM     31  C   UNL     1       2.101   3.712  21.808  0.00  0.00    +0.000 A 
ATOM     32  C   UNL     1       1.278   2.652  21.443  0.00  0.00    +0.000 A 
ATOM     33  C   UNL     1       1.045   2.396  20.097  0.00  0.00    +0.000 A 
ATOM     34  C   UNL     1       1.652   3.186  19.115  0.00  0.00    +0.000 A 
ENDBRANCH  26  29
ENDBRANCH  24  26
ENDBRANCH  23  24
ENDBRANCH  20  23
ENDBRANCH   1  20
TORSDOF 10
ENDMDL
MODEL 5
REMARK VINA RESULT:      -8.0      0.936      1.351
REMARK  Name = 
REMARK  14 active torsions:
REMARK  status: ('A' for Active; 'I' for Inactive)
REMARK    1  A    between atoms: C_1  and  C_2
REMARK    2  A    between atoms: C_4  and  C_5
REMARK    3  A    between atoms: N_7  and  C_8
REMARK    4  A    between atoms: C_8  and  C_9
REMARK    5  A    between atoms: C_8  and  C_16
REMARK    6  A    between atoms: C_9  and  C_10
REMARK    7  A    between atoms: C_16  and  O_17
REMARK    8  A    between atoms: C_16  and  C_18
REMARK    9  A    between atoms: C_18  and  N_19
REMARK   10  A    between atoms: N_19  and  C_20
REMARK   11  A    between atoms: C_20  and  C_21
REMARK   12  A    between atoms: C_20  and  C_22
REMARK   13  A    between atoms: C_20  and  C_23
REMARK   14  A    between atoms: N_30  and  C_31
REMARK                            x       y       z     vdW  Elec       q    Type
REMARK                         _______ _______ _______ _____ _____    ______ ____
ROOT
ATOM      1  C   UNL     1       3.119   6.194  17.982  0.00  0.00    +0.000 C 
ENDROOT
BRANCH   1   4
ATOM      2  C   UNL     1       5.275   5.433  16.981  0.00  0.00    +0.000 C 
ATOM      3  O   UNL     1       5.802   5.318  18.084  0.00  0.00    +0.000 OA
ATOM      4  N   UNL     1       3.986   5.879  16.829  0.00  0.00    +0.000 N 
ATOM      5  H   UNL     1       3.640   5.899  15.872  0.00  0.00    +0.000 HD
BRANCH   2   9
ATOM      6  C   UNL     1       6.173   3.303  12.480  0.00  0.00    +0.000 C 
ATOM      7  C   UNL     1       6.300   4.039  13.762  0.00  0.00    +0.000 A 
ATOM      8  C   UNL     1       5.538   3.959  14.902  0.00  0.00    +0.000 A 
ATOM      9  C   UNL     1       5.975   5.012  15.746  0.00  0.00    +0.000 A 
ATOM     10  N   UNL     1       7.052   5.628  15.216  0.00  0.00    +0.000 NA
ATOM     11  N   UNL     1       7.219   5.027  14.009  0.00  0.00    +0.000 N 
ATOM     12  C   UNL     1       8.212   5.512  13.075  0.00  0.00    +0.000 C 
ENDBRANCH   2   9
ENDBRANCH   1   4
BRANCH   1  13
ATOM     13  C   UNL     1       2.058   5.086  18.190  0.00  0.00    +0.000 C 
BRANCH  13  14
ATOM     14  C   UNL     1       2.213   4.077  19.310  0.00  0.00    +0.000 A 
ATOM     15  C   UNL     1       3.352   3.287  19.504  0.00  0.00    +0.000 A 
ATOM     16  C   UNL     1       3.500   2.515  20.659  0.00  0.00    +0.000 A 
ATOM     17  C   UNL     1       2.499   2.498  21.624  0.00  0.00    +0.000 A 
ATOM     18  C   UNL     1       1.327   3.217  21.415  0.00  0.00    +0.000 A 
ATOM     19  C   UNL     1       1.181   3.994  20.263  0.00  0.00    +0.000 A 
ENDBRANCH  13  14
ENDBRANCH   1  13
BRANCH   1  20
ATOM     20  C   UNL     1       2.552   7.658  17.979  0.00  0.00    +0.000 C 
BRANCH  20  21
ATOM     21  O   UNL     1       3.575   8.597  17.608  0.00  0.00    +0.000 OA
ATOM     22  H   UNL     1       3.497   9.378  18.189  0.00  0.00    +0.000 HD
ENDBRANCH  20  21
BRANCH  20  23
ATOM     23  C   UNL     1       1.961   8.096  19.356  0.00  0.00    +0.000 C 
BRANCH  23  24
ATOM     24  N   UNL     1       1.522   9.499  19.326  0.00  0.00    +0.000 NA
ATOM     25  H   UNL     1       1.314   9.771  18.367  0.00  0.00    +0.000 HD
BRANCH  24  26
ATOM     26  C   UNL     1       0.404   9.923  20.200  0.00  0.00    +0.000 C 
ATOM     27  C   UNL     1      -0.072   8.727  21.059  0.00  0.00    +0.000 C 
ATOM     28  C   UNL     1       0.836  11.069  21.134  0.00  0.00    +0.000 C 
BRANCH  26  29
ATOM     29  C   UNL     1      -0.755  10.451  19.311  0.00  0.00    +0.000 A 
ATOM     30  C   UNL     1      -1.635  11.463  19.741  0.00  0.00    +0.000 A 
ATOM     31  C   UNL     1      -2.704  11.891  18.946  0.00  0.00    +0.000 A 
ATOM     32  C   UNL     1      -2.910  11.330  17.691  0.00  0.00    +0.000 A 
ATOM     33  C   UNL     1      -2.034  10.358  17.221  0.00  0.00    +0.000 A 
ATOM     34  C   UNL     1      -0.963   9.933  18.015  0.00  0.00    +0.000 A 
ENDBRANCH  26  29
ENDBRANCH  24  26
ENDBRANCH  23  24
ENDBRANCH  20  23
ENDBRANCH   1  20
TORSDOF 10
ENDMDL
MODEL 6
REMARK VINA RESULT:      -7.9      1.742      8.394
REMARK  Name = 
REMARK  14 active torsions:
REMARK  status: ('A' for Active; 'I' for Inactive)
REMARK    1  A    between atoms: C_1  and  C_2
REMARK    2  A    between atoms: C_4  and  C_5
REMARK    3  A    between atoms: N_7  and  C_8
REMARK    4  A    between atoms: C_8  and  C_9
REMARK    5  A    between atoms: C_8  and  C_16
REMARK    6  A    between atoms: C_9  and  C_10
REMARK    7  A    between atoms: C_16  and  O_17
REMARK    8  A    between atoms: C_16  and  C_18
REMARK    9  A    between atoms: C_18  and  N_19
REMARK   10  A    between atoms: N_19  and  C_20
REMARK   11  A    between atoms: C_20  and  C_21
REMARK   12  A    between atoms: C_20  and  C_22
REMARK   13  A    between atoms: C_20  and  C_23
REMARK   14  A    between atoms: N_30  and  C_31
REMARK                            x       y       z     vdW  Elec       q    Type
REMARK                         _______ _______ _______ _____ _____    ______ ____
ROOT
ATOM      1  C   UNL     1       2.746   6.543  17.981  0.00  0.00    +0.000 C 
ENDROOT
BRANCH   1   4
ATOM      2  C   UNL     1       1.852   8.830  18.429  0.00  0.00    +0.000 C 
ATOM      3  O   UNL     1       1.982   9.163  17.254  0.00  0.00    +0.000 OA
ATOM      4  N   UNL     1       2.222   7.589  18.882  0.00  0.00    +0.000 N 
ATOM      5  H   UNL     1       2.036   7.408  19.866  0.00  0.00    +0.000 HD
BRANCH   2   9
ATOM      6  C   UNL     1      -0.991  12.527  20.391  0.00  0.00    +0.000 C 
ATOM      7  C   UNL     1      -0.067  11.380  20.208  0.00  0.00    +0.000 A 
ATOM      8  C   UNL     1       0.630  10.981  19.095  0.00  0.00    +0.000 A 
ATOM      9  C   UNL     1       1.204   9.724  19.416  0.00  0.00    +0.000 A 
ATOM     10  N   UNL     1       0.992   9.423  20.713  0.00  0.00    +0.000 NA
ATOM     11  N   UNL     1       0.208  10.437  21.166  0.00  0.00    +0.000 N 
ATOM     12  C   UNL     1      -0.344  10.401  22.503  0.00  0.00    +0.000 C 
ENDBRANCH   2   9
ENDBRANCH   1   4
BRANCH   1  13
ATOM     13  C   UNL     1       1.702   5.419  17.778  0.00  0.00    +0.000 C 
BRANCH  13  14
ATOM     14  C   UNL     1       1.661   4.230  18.718  0.00  0.00    +0.000 A 
ATOM     15  C   UNL     1       1.378   4.319  20.085  0.00  0.00    +0.000 A 
ATOM     16  C   UNL     1       1.176   3.169  20.851  0.00  0.00    +0.000 A 
ATOM     17  C   UNL     1       1.283   1.911  20.269  0.00  0.00    +0.000 A 
ATOM     18  C   UNL     1       1.638   1.800  18.928  0.00  0.00    +0.000 A 
ATOM     19  C   UNL     1       1.834   2.950  18.161  0.00  0.00    +0.000 A 
ENDBRANCH  13  14
ENDBRANCH   1  13
BRANCH   1  20
ATOM     20  C   UNL     1       4.190   6.045  18.343  0.00  0.00    +0.000 C 
BRANCH  20  21
ATOM     21  O   UNL     1       4.476   6.287  19.730  0.00  0.00    +0.000 OA
ATOM     22  H   UNL     1       5.166   5.655  20.013  0.00  0.00    +0.000 HD
ENDBRANCH  20  21
BRANCH  20  23
ATOM     23  C   UNL     1       5.310   6.716  17.486  0.00  0.00    +0.000 C 
BRANCH  23  24
ATOM     24  N   UNL     1       5.396   6.107  16.150  0.00  0.00    +0.000 NA
ATOM     25  H   UNL     1       5.844   6.758  15.507  0.00  0.00    +0.000 HD
BRANCH  24  26
ATOM     26  C   UNL     1       6.028   4.776  16.005  0.00  0.00    +0.000 C 
ATOM     27  C   UNL     1       7.253   4.672  16.946  0.00  0.00    +0.000 C 
ATOM     28  C   UNL     1       5.035   3.650  16.352  0.00  0.00    +0.000 C 
BRANCH  26  29
ATOM     29  C   UNL     1       6.460   4.584  14.525  0.00  0.00    +0.000 A 
ATOM     30  C   UNL     1       7.511   5.318  13.944  0.00  0.00    +0.000 A 
ATOM     31  C   UNL     1       7.852   5.168  12.595  0.00  0.00    +0.000 A 
ATOM     32  C   UNL     1       7.162   4.263  11.797  0.00  0.00    +0.000 A 
ATOM     33  C   UNL     1       6.147   3.492  12.352  0.00  0.00    +0.000 A 
ATOM     34  C   UNL     1       5.809   3.642  13.702  0.00  0.00    +0.000 A 
ENDBRANCH  26  29
ENDBRANCH  24  26
ENDBRANCH  23  24
ENDBRANCH  20  23
ENDBRANCH   1  20
TORSDOF 10
ENDMDL
MODEL 7
REMARK VINA RESULT:      -7.8      0.961      1.214
REMARK  Name = 
REMARK  14 active torsions:
REMARK  status: ('A' for Active; 'I' for Inactive)
REMARK    1  A    between atoms: C_1  and  C_2
REMARK    2  A    between atoms: C_4  and  C_5
REMARK    3  A    between atoms: N_7  and  C_8
REMARK    4  A    between atoms: C_8  and  C_9
REMARK    5  A    between atoms: C_8  and  C_16
REMARK    6  A    between atoms: C_9  and  C_10
REMARK    7  A    between atoms: C_16  and  O_17
REMARK    8  A    between atoms: C_16  and  C_18
REMARK    9  A    between atoms: C_18  and  N_19
REMARK   10  A    between atoms: N_19  and  C_20
REMARK   11  A    between atoms: C_20  and  C_21
REMARK   12  A    between atoms: C_20  and  C_22
REMARK   13  A    between atoms: C_20  and  C_23
REMARK   14  A    between atoms: N_30  and  C_31
REMARK                            x       y       z     vdW  Elec       q    Type
REMARK                         _______ _______ _______ _____ _____    ______ ____
ROOT
ATOM      1  C   UNL     1       3.132   6.827  18.459  0.00  0.00    +0.000 C 
ENDROOT
BRANCH   1   4
ATOM      2  C   UNL     1       5.216   6.028  17.340  0.00  0.00    +0.000 C 
ATOM      3  O   UNL     1       5.879   6.174  18.364  0.00  0.00    +0.000 OA
ATOM      4  N   UNL     1       3.882   6.345  17.281  0.00  0.00    +0.000 N 
ATOM      5  H   UNL     1       3.424   6.149  16.394  0.00  0.00    +0.000 HD
BRANCH   2   9
ATOM      6  C   UNL     1       5.620   3.473  12.992  0.00  0.00    +0.000 C 
ATOM      7  C   UNL     1       5.903   4.267  14.213  0.00  0.00    +0.000 A 
ATOM      8  C   UNL     1       5.176   4.390  15.372  0.00  0.00    +0.000 A 
ATOM      9  C   UNL     1       5.801   5.416  16.126  0.00  0.00    +0.000 A 
ATOM     10  N   UNL     1       6.944   5.814  15.530  0.00  0.00    +0.000 NA
ATOM     11  N   UNL     1       6.974   5.111  14.367  0.00  0.00    +0.000 N 
ATOM     12  C   UNL     1       8.001   5.364  13.379  0.00  0.00    +0.000 C 
ENDBRANCH   2   9
ENDBRANCH   1   4
BRANCH   1  13
ATOM     13  C   UNL     1       2.505   5.642  19.233  0.00  0.00    +0.000 C 
BRANCH  13  14
ATOM     14  C   UNL     1       2.929   4.218  18.933  0.00  0.00    +0.000 A 
ATOM     15  C   UNL     1       3.884   3.511  19.671  0.00  0.00    +0.000 A 
ATOM     16  C   UNL     1       4.090   2.147  19.454  0.00  0.00    +0.000 A 
ATOM     17  C   UNL     1       3.367   1.475  18.476  0.00  0.00    +0.000 A 
ATOM     18  C   UNL     1       2.466   2.176  17.680  0.00  0.00    +0.000 A 
ATOM     19  C   UNL     1       2.256   3.539  17.901  0.00  0.00    +0.000 A 
ENDBRANCH  13  14
ENDBRANCH   1  13
BRANCH   1  20
ATOM     20  C   UNL     1       2.149   8.012  18.155  0.00  0.00    +0.000 C 
BRANCH  20  21
ATOM     21  O   UNL     1       2.674   8.852  17.114  0.00  0.00    +0.000 OA
ATOM     22  H   UNL     1       3.605   8.601  16.961  0.00  0.00    +0.000 HD
ENDBRANCH  20  21
BRANCH  20  23
ATOM     23  C   UNL     1       1.848   8.903  19.401  0.00  0.00    +0.000 C 
BRANCH  23  24
ATOM     24  N   UNL     1       0.409   9.174  19.529  0.00  0.00    +0.000 NA
ATOM     25  H   UNL     1       0.058   8.758  20.390  0.00  0.00    +0.000 HD
BRANCH  24  26
ATOM     26  C   UNL     1      -0.071  10.572  19.440  0.00  0.00    +0.000 C 
ATOM     27  C   UNL     1      -0.445  11.089  20.849  0.00  0.00    +0.000 C 
ATOM     28  C   UNL     1       1.011  11.492  18.841  0.00  0.00    +0.000 C 
BRANCH  26  29
ATOM     29  C   UNL     1      -1.304  10.621  18.496  0.00  0.00    +0.000 A 
ATOM     30  C   UNL     1      -1.413   9.804  17.354  0.00  0.00    +0.000 A 
ATOM     31  C   UNL     1      -2.508   9.898  16.487  0.00  0.00    +0.000 A 
ATOM     32  C   UNL     1      -3.533  10.800  16.752  0.00  0.00    +0.000 A 
ATOM     33  C   UNL     1      -3.475  11.590  17.894  0.00  0.00    +0.000 A 
ATOM     34  C   UNL     1      -2.380  11.493  18.761  0.00  0.00    +0.000 A 
ENDBRANCH  26  29
ENDBRANCH  24  26
ENDBRANCH  23  24
ENDBRANCH  20  23
ENDBRANCH   1  20
TORSDOF 10
ENDMDL
MODEL 8
REMARK VINA RESULT:      -7.8      0.958      2.355
REMARK  Name = 
REMARK  14 active torsions:
REMARK  status: ('A' for Active; 'I' for Inactive)
REMARK    1  A    between atoms: C_1  and  C_2
REMARK    2  A    between atoms: C_4  and  C_5
REMARK    3  A    between atoms: N_7  and  C_8
REMARK    4  A    between atoms: C_8  and  C_9
REMARK    5  A    between atoms: C_8  and  C_16
REMARK    6  A    between atoms: C_9  and  C_10
REMARK    7  A    between atoms: C_16  and  O_17
REMARK    8  A    between atoms: C_16  and  C_18
REMARK    9  A    between atoms: C_18  and  N_19
REMARK   10  A    between atoms: N_19  and  C_20
REMARK   11  A    between atoms: C_20  and  C_21
REMARK   12  A    between atoms: C_20  and  C_22
REMARK   13  A    between atoms: C_20  and  C_23
REMARK   14  A    between atoms: N_30  and  C_31
REMARK                            x       y       z     vdW  Elec       q    Type
REMARK                         _______ _______ _______ _____ _____    ______ ____
ROOT
ATOM      1  C   UNL     1       3.701   6.867  18.436  0.00  0.00    +0.000 C 
ENDROOT
BRANCH   1   4
ATOM      2  C   UNL     1       5.657   6.066  17.107  0.00  0.00    +0.000 C 
ATOM      3  O   UNL     1       6.437   6.299  18.026  0.00  0.00    +0.000 OA
ATOM      4  N   UNL     1       4.314   6.335  17.202  0.00  0.00    +0.000 N 
ATOM      5  H   UNL     1       3.756   6.067  16.394  0.00  0.00    +0.000 HD
BRANCH   2   9
ATOM      6  C   UNL     1       5.563   3.415  12.798  0.00  0.00    +0.000 C 
ATOM      7  C   UNL     1       5.989   4.210  13.977  0.00  0.00    +0.000 A 
ATOM      8  C   UNL     1       5.361   4.400  15.183  0.00  0.00    +0.000 A 
ATOM      9  C   UNL     1       6.106   5.396  15.865  0.00  0.00    +0.000 A 
ATOM     10  N   UNL     1       7.223   5.707  15.177  0.00  0.00    +0.000 NA
ATOM     11  N   UNL     1       7.120   4.984  14.031  0.00  0.00    +0.000 N 
ATOM     12  C   UNL     1       8.082   5.153  12.963  0.00  0.00    +0.000 C 
ENDBRANCH   2   9
ENDBRANCH   1   4
BRANCH   1  13
ATOM     13  C   UNL     1       3.612   5.768  19.522  0.00  0.00    +0.000 C 
BRANCH  13  14
ATOM     14  C   UNL     1       2.516   4.722  19.468  0.00  0.00    +0.000 A 
ATOM     15  C   UNL     1       2.100   4.081  18.296  0.00  0.00    +0.000 A 
ATOM     16  C   UNL     1       1.218   2.999  18.347  0.00  0.00    +0.000 A 
ATOM     17  C   UNL     1       0.716   2.560  19.567  0.00  0.00    +0.000 A 
ATOM     18  C   UNL     1       1.058   3.232  20.735  0.00  0.00    +0.000 A 
ATOM     19  C   UNL     1       1.945   4.310  20.686  0.00  0.00    +0.000 A 
ENDBRANCH  13  14
ENDBRANCH   1  13
BRANCH   1  20
ATOM     20  C   UNL     1       2.374   7.671  18.200  0.00  0.00    +0.000 C 
BRANCH  20  21
ATOM     21  O   UNL     1       2.572   8.698  17.213  0.00  0.00    +0.000 OA
ATOM     22  H   UNL     1       3.409   8.513  16.745  0.00  0.00    +0.000 HD
ENDBRANCH  20  21
BRANCH  20  23
ATOM     23  C   UNL     1       1.814   8.337  19.496  0.00  0.00    +0.000 C 
BRANCH  23  24
ATOM     24  N   UNL     1       1.259   9.669  19.215  0.00  0.00    +0.000 NA
ATOM     25  H   UNL     1       1.057   9.751  18.220  0.00  0.00    +0.000 HD
BRANCH  24  26
ATOM     26  C   UNL     1       0.084  10.137  19.984  0.00  0.00    +0.000 C 
ATOM     27  C   UNL     1      -1.156  10.200  19.061  0.00  0.00    +0.000 C 
ATOM     28  C   UNL     1      -0.218   9.191  21.163  0.00  0.00    +0.000 C 
BRANCH  26  29
ATOM     29  C   UNL     1       0.396  11.540  20.575  0.00  0.00    +0.000 A 
ATOM     30  C   UNL     1      -0.438  12.162  21.524  0.00  0.00    +0.000 A 
ATOM     31  C   UNL     1      -0.167  13.448  22.006  0.00  0.00    +0.000 A 
ATOM     32  C   UNL     1       0.956  14.137  21.564  0.00  0.00    +0.000 A 
ATOM     33  C   UNL     1       1.821  13.533  20.659  0.00  0.00    +0.000 A 
ATOM     34  C   UNL     1       1.551  12.246  20.180  0.00  0.00    +0.000 A 
ENDBRANCH  26  29
ENDBRANCH  24  26
ENDBRANCH  23  24
ENDBRANCH  20  23
ENDBRANCH   1  20
TORSDOF 10
ENDMDL
MODEL 9
REMARK VINA RESULT:      -7.8      1.809      8.437
REMARK  Name = 
REMARK  14 active torsions:
REMARK  status: ('A' for Active; 'I' for Inactive)
REMARK    1  A    between atoms: C_1  and  C_2
REMARK    2  A    between atoms: C_4  and  C_5
REMARK    3  A    between atoms: N_7  and  C_8
REMARK    4  A    between atoms: C_8  and  C_9
REMARK    5  A    between atoms: C_8  and  C_16
REMARK    6  A    between atoms: C_9  and  C_10
REMARK    7  A    between atoms: C_16  and  O_17
REMARK    8  A    between atoms: C_16  and  C_18
REMARK    9  A    between atoms: C_18  and  N_19
REMARK   10  A    between atoms: N_19  and  C_20
REMARK   11  A    between atoms: C_20  and  C_21
REMARK   12  A    between atoms: C_20  and  C_22
REMARK   13  A    between atoms: C_20  and  C_23
REMARK   14  A    between atoms: N_30  and  C_31
REMARK                            x       y       z     vdW  Elec       q    Type
REMARK                         _______ _______ _______ _____ _____    ______ ____
ROOT
ATOM      1  C   UNL     1       3.020   6.881  18.458  0.00  0.00    +0.000 C 
ENDROOT
BRANCH   1   4
ATOM      2  C   UNL     1       1.576   8.905  18.679  0.00  0.00    +0.000 C 
ATOM      3  O   UNL     1       1.702   9.184  17.489  0.00  0.00    +0.000 OA
ATOM      4  N   UNL     1       2.201   7.823  19.246  0.00  0.00    +0.000 N 
ATOM      5  H   UNL     1       1.996   7.666  20.231  0.00  0.00    +0.000 HD
BRANCH   2   9
ATOM      6  C   UNL     1      -0.662  10.705  22.844  0.00  0.00    +0.000 C 
ATOM      7  C   UNL     1      -0.278  10.419  21.440  0.00  0.00    +0.000 A 
ATOM      8  C   UNL     1       0.408   9.352  20.915  0.00  0.00    +0.000 A 
ATOM      9  C   UNL     1       0.667   9.676  19.558  0.00  0.00    +0.000 A 
ATOM     10  N   UNL     1       0.048  10.825  19.218  0.00  0.00    +0.000 NA
ATOM     11  N   UNL     1      -0.506  11.260  20.380  0.00  0.00    +0.000 N 
ATOM     12  C   UNL     1      -1.155  12.552  20.448  0.00  0.00    +0.000 C 
ENDBRANCH   2   9
ENDBRANCH   1   4
BRANCH   1  13
ATOM     13  C   UNL     1       3.517   5.712  19.341  0.00  0.00    +0.000 C 
BRANCH  13  14
ATOM     14  C   UNL     1       2.839   4.358  19.276  0.00  0.00    +0.000 A 
ATOM     15  C   UNL     1       1.526   4.157  18.836  0.00  0.00    +0.000 A 
ATOM     16  C   UNL     1       1.030   2.868  18.627  0.00  0.00    +0.000 A 
ATOM     17  C   UNL     1       1.829   1.760  18.882  0.00  0.00    +0.000 A 
ATOM     18  C   UNL     1       3.112   1.936  19.391  0.00  0.00    +0.000 A 
ATOM     19  C   UNL     1       3.610   3.225  19.595  0.00  0.00    +0.000 A 
ENDBRANCH  13  14
ENDBRANCH   1  13
BRANCH   1  20
ATOM     20  C   UNL     1       4.130   7.568  17.586  0.00  0.00    +0.000 C 
BRANCH  20  21
ATOM     21  O   UNL     1       3.668   7.764  16.239  0.00  0.00    +0.000 OA
ATOM     22  H   UNL     1       3.324   6.912  15.909  0.00  0.00    +0.000 HD
ENDBRANCH  20  21
BRANCH  20  23
ATOM     23  C   UNL     1       5.465   6.761  17.535  0.00  0.00    +0.000 C 
BRANCH  23  24
ATOM     24  N   UNL     1       5.737   6.263  16.179  0.00  0.00    +0.000 NA
ATOM     25  H   UNL     1       6.440   6.850  15.734  0.00  0.00    +0.000 HD
BRANCH  24  26
ATOM     26  C   UNL     1       6.111   4.842  15.995  0.00  0.00    +0.000 C 
ATOM     27  C   UNL     1       7.334   4.503  16.880  0.00  0.00    +0.000 C 
ATOM     28  C   UNL     1       4.944   3.909  16.374  0.00  0.00    +0.000 C 
BRANCH  26  29
ATOM     29  C   UNL     1       6.439   4.599  14.495  0.00  0.00    +0.000 A 
ATOM     30  C   UNL     1       5.712   3.692  13.701  0.00  0.00    +0.000 A 
ATOM     31  C   UNL     1       6.055   3.449  12.366  0.00  0.00    +0.000 A 
ATOM     32  C   UNL     1       7.123   4.122  11.785  0.00  0.00    +0.000 A 
ATOM     33  C   UNL     1       7.834   5.056  12.531  0.00  0.00    +0.000 A 
ATOM     34  C   UNL     1       7.489   5.300  13.865  0.00  0.00    +0.000 A 
ENDBRANCH  26  29
ENDBRANCH  24  26
ENDBRANCH  23  24
ENDBRANCH  20  23
ENDBRANCH   1  20
TORSDOF 10
ENDMDL
