MODEL 1
REMARK VINA RESULT:      -6.7      0.000      0.000
REMARK  Name = 
REMARK  15 active torsions:
REMARK  status: ('A' for Active; 'I' for Inactive)
REMARK    1  A    between atoms: C_1  and  C_2
REMARK    2  A    between atoms: C_2  and  C_3
REMARK    3  A    between atoms: C_2  and  N_11
REMARK    4  A    between atoms: C_3  and  C_4
REMARK    5  A    between atoms: C_4  and  C_5
REMARK    6  A    between atoms: C_5  and  C_6
REMARK    7  A    between atoms: C_6  and  C_7
REMARK    8  A    between atoms: C_7  and  C_8
REMARK    9  A    between atoms: C_8  and  O_10
REMARK   10  A    between atoms: N_11  and  C_12
REMARK   11  A    between atoms: C_12  and  C_13
REMARK   12  A    between atoms: C_13  and  O_14
REMARK   13  A    between atoms: C_13  and  C_15
REMARK   14  A    between atoms: C_18  and  O_19
REMARK   15  A    between atoms: C_20  and  O_21
REMARK                            x       y       z     vdW  Elec       q    Type
REMARK                         _______ _______ _______ _____ _____    ______ ____
ROOT
ATOM      1  C   UNL     1       5.256   6.231  16.201  0.00  0.00    +0.000 C 
ENDROOT
BRANCH   1   2
ATOM      2  N   UNL     1       6.624   6.745  16.339  0.00  0.00    +0.000 NA
ATOM      3  H   UNL     1       7.289   6.041  16.015  0.00  0.00    +0.000 HD
BRANCH   2   5
ATOM      4  C   UNL     1       7.787   6.171  18.471  0.00  0.00    +0.000 C 
ATOM      5  C   UNL     1       6.941   7.193  17.700  0.00  0.00    +0.000 C 
BRANCH   5   6
ATOM      6  C   UNL     1       7.705   8.533  17.642  0.00  0.00    +0.000 C 
BRANCH   6   7
ATOM      7  C   UNL     1       8.850   8.629  18.654  0.00  0.00    +0.000 C 
BRANCH   7   8
ATOM      8  C   UNL     1       9.040  10.066  19.152  0.00  0.00    +0.000 C 
BRANCH   8   9
ATOM      9  C   UNL     1       8.994  11.044  17.980  0.00  0.00    +0.000 C 
BRANCH   9  10
ATOM     10  C   UNL     1       9.906  12.249  18.194  0.00  0.00    +0.000 C 
BRANCH  10  11
ATOM     11  C   UNL     1      11.323  11.816  18.490  0.00  0.00    +0.000 C 
ATOM     12  O   UNL     1      11.819  11.715  19.598  0.00  0.00    +0.000 OA
BRANCH  11  13
ATOM     13  O   UNL     1      12.024  11.534  17.367  0.00  0.00    +0.000 OA
ATOM     14  H   UNL     1      12.898  11.973  17.334  0.00  0.00    +0.000 HD
ENDBRANCH  11  13
ENDBRANCH  10  11
ENDBRANCH   9  10
ENDBRANCH   8   9
ENDBRANCH   7   8
ENDBRANCH   6   7
ENDBRANCH   5   6
ENDBRANCH   2   5
ENDBRANCH   1   2
BRANCH   1  15
ATOM     15  C   UNL     1       4.462   6.298  17.527  0.00  0.00    +0.000 C 
BRANCH  15  16
ATOM     16  C   UNL     1       3.641   5.039  17.727  0.00  0.00    +0.000 A 
ATOM     17  C   UNL     1       2.244   5.120  17.874  0.00  0.00    +0.000 A 
ATOM     18  C   UNL     1       1.476   3.971  18.092  0.00  0.00    +0.000 A 
ATOM     19  C   UNL     1       2.106   2.734  18.163  0.00  0.00    +0.000 A 
ATOM     20  C   UNL     1       3.486   2.644  18.019  0.00  0.00    +0.000 A 
ATOM     21  C   UNL     1       4.255   3.776  17.802  0.00  0.00    +0.000 A 
BRANCH  19  22
ATOM     22  O   UNL     1       1.412   1.577  18.376  0.00  0.00    +0.000 OA
ATOM     23  H   UNL     1       0.464   1.794  18.394  0.00  0.00    +0.000 HD
ENDBRANCH  19  22
BRANCH  20  24
ATOM     24  O   UNL     1       4.104   1.428  18.092  0.00  0.00    +0.000 OA
ATOM     25  H   UNL     1       4.836   1.566  18.721  0.00  0.00    +0.000 HD
ENDBRANCH  20  24
ENDBRANCH  15  16
BRANCH  15  26
ATOM     26  O   UNL     1       3.587   7.434  17.528  0.00  0.00    +0.000 OA
ATOM     27  H   UNL     1       2.700   7.115  17.757  0.00  0.00    +0.000 HD
ENDBRANCH  15  26
ENDBRANCH   1  15
TORSDOF 14
ENDMDL
MODEL 2
REMARK VINA RESULT:      -6.7      4.088      6.150
REMARK  Name = 
REMARK  15 active torsions:
REMARK  status: ('A' for Active; 'I' for Inactive)
REMARK    1  A    between atoms: C_1  and  C_2
REMARK    2  A    between atoms: C_2  and  C_3
REMARK    3  A    between atoms: C_2  and  N_11
REMARK    4  A    between atoms: C_3  and  C_4
REMARK    5  A    between atoms: C_4  and  C_5
REMARK    6  A    between atoms: C_5  and  C_6
REMARK    7  A    between atoms: C_6  and  C_7
REMARK    8  A    between atoms: C_7  and  C_8
REMARK    9  A    between atoms: C_8  and  O_10
REMARK   10  A    between atoms: N_11  and  C_12
REMARK   11  A    between atoms: C_12  and  C_13
REMARK   12  A    between atoms: C_13  and  O_14
REMARK   13  A    between atoms: C_13  and  C_15
REMARK   14  A    between atoms: C_18  and  O_19
REMARK   15  A    between atoms: C_20  and  O_21
REMARK                            x       y       z     vdW  Elec       q    Type
REMARK                         _______ _______ _______ _____ _____    ______ ____
ROOT
ATOM      1  C   UNL     1       4.907   6.869  17.079  0.00  0.00    +0.000 C 
ENDROOT
BRANCH   1   2
ATOM      2  N   UNL     1       6.185   7.260  17.687  0.00  0.00    +0.000 NA
ATOM      3  H   UNL     1       6.371   8.244  17.488  0.00  0.00    +0.000 HD
BRANCH   2   5
ATOM      4  C   UNL     1       7.600   5.295  18.291  0.00  0.00    +0.000 C 
ATOM      5  C   UNL     1       7.308   6.410  17.277  0.00  0.00    +0.000 C 
BRANCH   5   6
ATOM      6  C   UNL     1       7.005   5.772  15.905  0.00  0.00    +0.000 C 
BRANCH   6   7
ATOM      7  C   UNL     1       7.024   4.241  15.924  0.00  0.00    +0.000 C 
BRANCH   7   8
ATOM      8  C   UNL     1       5.715   3.656  15.384  0.00  0.00    +0.000 C 
BRANCH   8   9
ATOM      9  C   UNL     1       5.434   4.189  13.981  0.00  0.00    +0.000 C 
BRANCH   9  10
ATOM     10  C   UNL     1       6.325   3.541  12.925  0.00  0.00    +0.000 C 
BRANCH  10  11
ATOM     11  C   UNL     1       5.504   2.788  11.904  0.00  0.00    +0.000 C 
ATOM     12  O   UNL     1       5.840   1.763  11.339  0.00  0.00    +0.000 OA
BRANCH  11  13
ATOM     13  O   UNL     1       4.310   3.376  11.665  0.00  0.00    +0.000 OA
ATOM     14  H   UNL     1       4.298   4.333  11.873  0.00  0.00    +0.000 HD
ENDBRANCH  11  13
ENDBRANCH  10  11
ENDBRANCH   9  10
ENDBRANCH   8   9
ENDBRANCH   7   8
ENDBRANCH   6   7
ENDBRANCH   5   6
ENDBRANCH   2   5
ENDBRANCH   1   2
BRANCH   1  15
ATOM     15  C   UNL     1       3.774   6.727  18.123  0.00  0.00    +0.000 C 
BRANCH  15  16
ATOM     16  C   UNL     1       3.319   5.284  18.231  0.00  0.00    +0.000 A 
ATOM     17  C   UNL     1       1.985   4.940  17.947  0.00  0.00    +0.000 A 
ATOM     18  C   UNL     1       1.540   3.619  18.073  0.00  0.00    +0.000 A 
ATOM     19  C   UNL     1       2.433   2.638  18.486  0.00  0.00    +0.000 A 
ATOM     20  C   UNL     1       3.753   2.968  18.769  0.00  0.00    +0.000 A 
ATOM     21  C   UNL     1       4.203   4.273  18.646  0.00  0.00    +0.000 A 
BRANCH  19  22
ATOM     22  O   UNL     1       2.060   1.331  18.630  0.00  0.00    +0.000 OA
ATOM     23  H   UNL     1       2.565   0.954  19.370  0.00  0.00    +0.000 HD
ENDBRANCH  19  22
BRANCH  20  24
ATOM     24  O   UNL     1       4.630   2.002  19.178  0.00  0.00    +0.000 OA
ATOM     25  H   UNL     1       5.507   2.418  19.090  0.00  0.00    +0.000 HD
ENDBRANCH  20  24
ENDBRANCH  15  16
BRANCH  15  26
ATOM     26  O   UNL     1       2.656   7.547  17.760  0.00  0.00    +0.000 OA
ATOM     27  H   UNL     1       3.003   8.420  17.520  0.00  0.00    +0.000 HD
ENDBRANCH  15  26
ENDBRANCH   1  15
TORSDOF 14
ENDMDL
MODEL 3
REMARK VINA RESULT:      -6.6      1.667      2.312
REMARK  Name = 
REMARK  15 active torsions:
REMARK  status: ('A' for Active; 'I' for Inactive)
REMARK    1  A    between atoms: C_1  and  C_2
REMARK    2  A    between atoms: C_2  and  C_3
REMARK    3  A    between atoms: C_2  and  N_11
REMARK    4  A    between atoms: C_3  and  C_4
REMARK    5  A    between atoms: C_4  and  C_5
REMARK    6  A    between atoms: C_5  and  C_6
REMARK    7  A    between atoms: C_6  and  C_7
REMARK    8  A    between atoms: C_7  and  C_8
REMARK    9  A    between atoms: C_8  and  O_10
REMARK   10  A    between atoms: N_11  and  C_12
REMARK   11  A    between atoms: C_12  and  C_13
REMARK   12  A    between atoms: C_13  and  O_14
REMARK   13  A    between atoms: C_13  and  C_15
REMARK   14  A    between atoms: C_18  and  O_19
REMARK   15  A    between atoms: C_20  and  O_21
REMARK                            x       y       z     vdW  Elec       q    Type
REMARK                         _______ _______ _______ _____ _____    ______ ____
ROOT
ATOM      1  C   UNL     1       5.505   5.872  16.218  0.00  0.00    +0.000 C 
ENDROOT
BRANCH   1   2
ATOM      2  N   UNL     1       6.893   5.810  16.691  0.00  0.00    +0.000 NA
ATOM      3  H   UNL     1       7.144   4.840  16.888  0.00  0.00    +0.000 HD
BRANCH   2   5
ATOM      4  C   UNL     1       7.717   5.896  19.045  0.00  0.00    +0.000 C 
ATOM      5  C   UNL     1       7.151   6.674  17.850  0.00  0.00    +0.000 C 
BRANCH   5   6
ATOM      6  C   UNL     1       8.148   7.785  17.458  0.00  0.00    +0.000 C 
BRANCH   6   7
ATOM      7  C   UNL     1       7.744   9.174  17.958  0.00  0.00    +0.000 C 
BRANCH   7   8
ATOM      8  C   UNL     1       8.912   9.883  18.651  0.00  0.00    +0.000 C 
BRANCH   8   9
ATOM      9  C   UNL     1       9.173  11.238  17.996  0.00  0.00    +0.000 C 
BRANCH   9  10
ATOM     10  C   UNL     1      10.663  11.520  17.822  0.00  0.00    +0.000 C 
BRANCH  10  11
ATOM     11  C   UNL     1      10.898  12.920  17.306  0.00  0.00    +0.000 C 
ATOM     12  O   UNL     1      11.986  13.436  17.120  0.00  0.00    +0.000 OA
BRANCH  11  13
ATOM     13  O   UNL     1       9.744  13.580  17.054  0.00  0.00    +0.000 OA
ATOM     14  H   UNL     1       9.018  13.340  17.665  0.00  0.00    +0.000 HD
ENDBRANCH  11  13
ENDBRANCH  10  11
ENDBRANCH   9  10
ENDBRANCH   8   9
ENDBRANCH   7   8
ENDBRANCH   6   7
ENDBRANCH   5   6
ENDBRANCH   2   5
ENDBRANCH   1   2
BRANCH   1  15
ATOM     15  C   UNL     1       4.814   4.488  16.228  0.00  0.00    +0.000 C 
BRANCH  15  16
ATOM     16  C   UNL     1       3.771   4.415  17.327  0.00  0.00    +0.000 A 
ATOM     17  C   UNL     1       2.811   3.386  17.324  0.00  0.00    +0.000 A 
ATOM     18  C   UNL     1       1.821   3.323  18.312  0.00  0.00    +0.000 A 
ATOM     19  C   UNL     1       1.790   4.294  19.306  0.00  0.00    +0.000 A 
ATOM     20  C   UNL     1       2.733   5.314  19.317  0.00  0.00    +0.000 A 
ATOM     21  C   UNL     1       3.717   5.384  18.343  0.00  0.00    +0.000 A 
BRANCH  19  22
ATOM     22  O   UNL     1       0.848   4.288  20.296  0.00  0.00    +0.000 OA
ATOM     23  H   UNL     1       0.652   5.211  20.530  0.00  0.00    +0.000 HD
ENDBRANCH  19  22
BRANCH  20  24
ATOM     24  O   UNL     1       2.700   6.269  20.293  0.00  0.00    +0.000 OA
ATOM     25  H   UNL     1       3.381   5.987  20.931  0.00  0.00    +0.000 HD
ENDBRANCH  20  24
ENDBRANCH  15  16
BRANCH  15  26
ATOM     26  O   UNL     1       5.781   3.449  16.429  0.00  0.00    +0.000 OA
ATOM     27  H   UNL     1       6.349   3.722  17.167  0.00  0.00    +0.000 HD
ENDBRANCH  15  26
ENDBRANCH   1  15
TORSDOF 14
ENDMDL
MODEL 4
REMARK VINA RESULT:      -6.6      4.843      5.826
REMARK  Name = 
REMARK  15 active torsions:
REMARK  status: ('A' for Active; 'I' for Inactive)
REMARK    1  A    between atoms: C_1  and  C_2
REMARK    2  A    between atoms: C_2  and  C_3
REMARK    3  A    between atoms: C_2  and  N_11
REMARK    4  A    between atoms: C_3  and  C_4
REMARK    5  A    between atoms: C_4  and  C_5
REMARK    6  A    between atoms: C_5  and  C_6
REMARK    7  A    between atoms: C_6  and  C_7
REMARK    8  A    between atoms: C_7  and  C_8
REMARK    9  A    between atoms: C_8  and  O_10
REMARK   10  A    between atoms: N_11  and  C_12
REMARK   11  A    between atoms: C_12  and  C_13
REMARK   12  A    between atoms: C_13  and  O_14
REMARK   13  A    between atoms: C_13  and  C_15
REMARK   14  A    between atoms: C_18  and  O_19
REMARK   15  A    between atoms: C_20  and  O_21
REMARK                            x       y       z     vdW  Elec       q    Type
REMARK                         _______ _______ _______ _____ _____    ______ ____
ROOT
ATOM      1  C   UNL     1       1.896   5.972  20.396  0.00  0.00    +0.000 C 
ENDROOT
BRANCH   1   2
ATOM      2  N   UNL     1       3.194   6.041  19.715  0.00  0.00    +0.000 NA
ATOM      3  H   UNL     1       3.841   6.607  20.267  0.00  0.00    +0.000 HD
BRANCH   2   5
ATOM      4  C   UNL     1       2.605   7.982  18.261  0.00  0.00    +0.000 C 
ATOM      5  C   UNL     1       3.101   6.532  18.335  0.00  0.00    +0.000 C 
BRANCH   5   6
ATOM      6  C   UNL     1       4.484   6.441  17.656  0.00  0.00    +0.000 C 
BRANCH   6   7
ATOM      7  C   UNL     1       5.477   5.549  18.406  0.00  0.00    +0.000 C 
BRANCH   7   8
ATOM      8  C   UNL     1       6.094   4.494  17.482  0.00  0.00    +0.000 C 
BRANCH   8   9
ATOM      9  C   UNL     1       6.093   4.989  16.037  0.00  0.00    +0.000 C 
BRANCH   9  10
ATOM     10  C   UNL     1       5.950   3.848  15.034  0.00  0.00    +0.000 C 
BRANCH  10  11
ATOM     11  C   UNL     1       6.642   4.174  13.731  0.00  0.00    +0.000 C 
ATOM     12  O   UNL     1       7.330   5.156  13.518  0.00  0.00    +0.000 OA
BRANCH  11  13
ATOM     13  O   UNL     1       6.423   3.237  12.780  0.00  0.00    +0.000 OA
ATOM     14  H   UNL     1       6.331   2.331  13.140  0.00  0.00    +0.000 HD
ENDBRANCH  11  13
ENDBRANCH  10  11
ENDBRANCH   9  10
ENDBRANCH   8   9
ENDBRANCH   7   8
ENDBRANCH   6   7
ENDBRANCH   5   6
ENDBRANCH   2   5
ENDBRANCH   1   2
BRANCH   1  15
ATOM     15  C   UNL     1       1.483   4.520  20.735  0.00  0.00    +0.000 C 
BRANCH  15  16
ATOM     16  C   UNL     1       2.260   3.528  19.890  0.00  0.00    +0.000 A 
ATOM     17  C   UNL     1       1.787   3.161  18.616  0.00  0.00    +0.000 A 
ATOM     18  C   UNL     1       2.475   2.224  17.837  0.00  0.00    +0.000 A 
ATOM     19  C   UNL     1       3.639   1.650  18.333  0.00  0.00    +0.000 A 
ATOM     20  C   UNL     1       4.114   2.006  19.590  0.00  0.00    +0.000 A 
ATOM     21  C   UNL     1       3.441   2.934  20.368  0.00  0.00    +0.000 A 
BRANCH  19  22
ATOM     22  O   UNL     1       4.353   0.727  17.621  0.00  0.00    +0.000 OA
ATOM     23  H   UNL     1       5.195   0.576  18.085  0.00  0.00    +0.000 HD
ENDBRANCH  19  22
BRANCH  20  24
ATOM     24  O   UNL     1       5.258   1.439  20.077  0.00  0.00    +0.000 OA
ATOM     25  H   UNL     1       5.946   2.114  19.927  0.00  0.00    +0.000 HD
ENDBRANCH  20  24
ENDBRANCH  15  16
BRANCH  15  26
ATOM     26  O   UNL     1       0.081   4.333  20.507  0.00  0.00    +0.000 OA
ATOM     27  H   UNL     1      -0.312   4.043  21.345  0.00  0.00    +0.000 HD
ENDBRANCH  15  26
ENDBRANCH   1  15
TORSDOF 14
ENDMDL
MODEL 5
REMARK VINA RESULT:      -6.5      4.001      6.873
REMARK  Name = 
REMARK  15 active torsions:
REMARK  status: ('A' for Active; 'I' for Inactive)
REMARK    1  A    between atoms: C_1  and  C_2
REMARK    2  A    between atoms: C_2  and  C_3
REMARK    3  A    between atoms: C_2  and  N_11
REMARK    4  A    between atoms: C_3  and  C_4
REMARK    5  A    between atoms: C_4  and  C_5
REMARK    6  A    between atoms: C_5  and  C_6
REMARK    7  A    between atoms: C_6  and  C_7
REMARK    8  A    between atoms: C_7  and  C_8
REMARK    9  A    between atoms: C_8  and  O_10
REMARK   10  A    between atoms: N_11  and  C_12
REMARK   11  A    between atoms: C_12  and  C_13
REMARK   12  A    between atoms: C_13  and  O_14
REMARK   13  A    between atoms: C_13  and  C_15
REMARK   14  A    between atoms: C_18  and  O_19
REMARK   15  A    between atoms: C_20  and  O_21
REMARK                            x       y       z     vdW  Elec       q    Type
REMARK                         _______ _______ _______ _____ _____    ______ ____
ROOT
ATOM      1  C   UNL     1       3.127   2.623  19.052  0.00  0.00    +0.000 C 
ENDROOT
BRANCH   1   2
ATOM      2  N   UNL     1       1.689   2.830  19.261  0.00  0.00    +0.000 NA
ATOM      3  H   UNL     1       1.268   3.195  18.405  0.00  0.00    +0.000 HD
BRANCH   2   5
ATOM      4  C   UNL     1       1.765   3.032  21.747  0.00  0.00    +0.000 C 
ATOM      5  C   UNL     1       1.386   3.688  20.412  0.00  0.00    +0.000 C 
BRANCH   5   6
ATOM      6  C   UNL     1       2.144   5.025  20.278  0.00  0.00    +0.000 C 
BRANCH   6   7
ATOM      7  C   UNL     1       1.348   6.233  20.781  0.00  0.00    +0.000 C 
BRANCH   7   8
ATOM      8  C   UNL     1       1.935   7.549  20.261  0.00  0.00    +0.000 C 
BRANCH   8   9
ATOM      9  C   UNL     1       2.668   7.318  18.941  0.00  0.00    +0.000 C 
BRANCH   9  10
ATOM     10  C   UNL     1       1.850   7.777  17.737  0.00  0.00    +0.000 C 
BRANCH  10  11
ATOM     11  C   UNL     1       1.661   9.276  17.742  0.00  0.00    +0.000 C 
ATOM     12  O   UNL     1       2.554  10.104  17.736  0.00  0.00    +0.000 OA
BRANCH  11  13
ATOM     13  O   UNL     1       0.357   9.634  17.749  0.00  0.00    +0.000 OA
ATOM     14  H   UNL     1       0.065  10.023  18.599  0.00  0.00    +0.000 HD
ENDBRANCH  11  13
ENDBRANCH  10  11
ENDBRANCH   9  10
ENDBRANCH   8   9
ENDBRANCH   7   8
ENDBRANCH   6   7
ENDBRANCH   5   6
ENDBRANCH   2   5
ENDBRANCH   1   2
BRANCH   1  15
ATOM     15  C   UNL     1       3.582   3.023  17.628  0.00  0.00    +0.000 C 
BRANCH  15  16
ATOM     16  C   UNL     1       4.600   4.146  17.684  0.00  0.00    +0.000 A 
ATOM     17  C   UNL     1       4.758   5.012  16.586  0.00  0.00    +0.000 A 
ATOM     18  C   UNL     1       5.715   6.034  16.609  0.00  0.00    +0.000 A 
ATOM     19  C   UNL     1       6.517   6.190  17.733  0.00  0.00    +0.000 A 
ATOM     20  C   UNL     1       6.368   5.339  18.822  0.00  0.00    +0.000 A 
ATOM     21  C   UNL     1       5.423   4.326  18.810  0.00  0.00    +0.000 A 
BRANCH  19  22
ATOM     22  O   UNL     1       7.470   7.166  17.815  0.00  0.00    +0.000 OA
ATOM     23  H   UNL     1       7.085   7.923  18.288  0.00  0.00    +0.000 HD
ENDBRANCH  19  22
BRANCH  20  24
ATOM     24  O   UNL     1       7.159   5.493  19.926  0.00  0.00    +0.000 OA
ATOM     25  H   UNL     1       7.896   6.053  19.620  0.00  0.00    +0.000 HD
ENDBRANCH  20  24
ENDBRANCH  15  16
BRANCH  15  26
ATOM     26  O   UNL     1       2.458   3.445  16.846  0.00  0.00    +0.000 OA
ATOM     27  H   UNL     1       2.754   3.502  15.923  0.00  0.00    +0.000 HD
ENDBRANCH  15  26
ENDBRANCH   1  15
TORSDOF 14
ENDMDL
MODEL 6
REMARK VINA RESULT:      -6.5      1.420      1.757
REMARK  Name = 
REMARK  15 active torsions:
REMARK  status: ('A' for Active; 'I' for Inactive)
REMARK    1  A    between atoms: C_1  and  C_2
REMARK    2  A    between atoms: C_2  and  C_3
REMARK    3  A    between atoms: C_2  and  N_11
REMARK    4  A    between atoms: C_3  and  C_4
REMARK    5  A    between atoms: C_4  and  C_5
REMARK    6  A    between atoms: C_5  and  C_6
REMARK    7  A    between atoms: C_6  and  C_7
REMARK    8  A    between atoms: C_7  and  C_8
REMARK    9  A    between atoms: C_8  and  O_10
REMARK   10  A    between atoms: N_11  and  C_12
REMARK   11  A    between atoms: C_12  and  C_13
REMARK   12  A    between atoms: C_13  and  O_14
REMARK   13  A    between atoms: C_13  and  C_15
REMARK   14  A    between atoms: C_18  and  O_19
REMARK   15  A    between atoms: C_20  and  O_21
REMARK                            x       y       z     vdW  Elec       q    Type
REMARK                         _______ _______ _______ _____ _____    ______ ____
ROOT
ATOM      1  C   UNL     1       5.103   6.071  16.393  0.00  0.00    +0.000 C 
ENDROOT
BRANCH   1   2
ATOM      2  N   UNL     1       6.546   6.316  16.498  0.00  0.00    +0.000 NA
ATOM      3  H   UNL     1       7.053   5.439  16.371  0.00  0.00    +0.000 HD
BRANCH   2   5
ATOM      4  C   UNL     1       7.780   6.074  18.654  0.00  0.00    +0.000 C 
ATOM      5  C   UNL     1       6.933   6.979  17.749  0.00  0.00    +0.000 C 
BRANCH   5   6
ATOM      6  C   UNL     1       7.733   8.261  17.433  0.00  0.00    +0.000 C 
BRANCH   6   7
ATOM      7  C   UNL     1       8.596   8.747  18.600  0.00  0.00    +0.000 C 
BRANCH   7   8
ATOM      8  C   UNL     1       8.655  10.277  18.656  0.00  0.00    +0.000 C 
BRANCH   8   9
ATOM      9  C   UNL     1      10.011  10.775  18.159  0.00  0.00    +0.000 C 
BRANCH   9  10
ATOM     10  C   UNL     1      10.350  12.163  18.694  0.00  0.00    +0.000 C 
BRANCH  10  11
ATOM     11  C   UNL     1      11.012  12.080  20.049  0.00  0.00    +0.000 C 
ATOM     12  O   UNL     1      10.459  12.239  21.122  0.00  0.00    +0.000 OA
BRANCH  11  13
ATOM     13  O   UNL     1      12.333  11.798  19.963  0.00  0.00    +0.000 OA
ATOM     14  H   UNL     1      12.670  11.788  19.044  0.00  0.00    +0.000 HD
ENDBRANCH  11  13
ENDBRANCH  10  11
ENDBRANCH   9  10
ENDBRANCH   8   9
ENDBRANCH   7   8
ENDBRANCH   6   7
ENDBRANCH   5   6
ENDBRANCH   2   5
ENDBRANCH   1   2
BRANCH   1  15
ATOM     15  C   UNL     1       4.753   4.565  16.456  0.00  0.00    +0.000 C 
BRANCH  15  16
ATOM     16  C   UNL     1       3.621   4.317  17.435  0.00  0.00    +0.000 A 
ATOM     17  C   UNL     1       3.212   5.335  18.316  0.00  0.00    +0.000 A 
ATOM     18  C   UNL     1       2.191   5.112  19.247  0.00  0.00    +0.000 A 
ATOM     19  C   UNL     1       1.577   3.866  19.299  0.00  0.00    +0.000 A 
ATOM     20  C   UNL     1       1.975   2.854  18.433  0.00  0.00    +0.000 A 
ATOM     21  C   UNL     1       2.984   3.066  17.507  0.00  0.00    +0.000 A 
BRANCH  19  22
ATOM     22  O   UNL     1       0.577   3.586  20.187  0.00  0.00    +0.000 OA
ATOM     23  H   UNL     1       0.946   3.020  20.886  0.00  0.00    +0.000 HD
ENDBRANCH  19  22
BRANCH  20  24
ATOM     24  O   UNL     1       1.372   1.629  18.486  0.00  0.00    +0.000 OA
ATOM     25  H   UNL     1       0.905   1.626  19.343  0.00  0.00    +0.000 HD
ENDBRANCH  20  24
ENDBRANCH  15  16
BRANCH  15  26
ATOM     26  O   UNL     1       5.898   3.803  16.859  0.00  0.00    +0.000 OA
ATOM     27  H   UNL     1       5.572   2.994  17.285  0.00  0.00    +0.000 HD
ENDBRANCH  15  26
ENDBRANCH   1  15
TORSDOF 14
ENDMDL
MODEL 7
REMARK VINA RESULT:      -6.5      4.250      6.897
REMARK  Name = 
REMARK  15 active torsions:
REMARK  status: ('A' for Active; 'I' for Inactive)
REMARK    1  A    between atoms: C_1  and  C_2
REMARK    2  A    between atoms: C_2  and  C_3
REMARK    3  A    between atoms: C_2  and  N_11
REMARK    4  A    between atoms: C_3  and  C_4
REMARK    5  A    between atoms: C_4  and  C_5
REMARK    6  A    between atoms: C_5  and  C_6
REMARK    7  A    between atoms: C_6  and  C_7
REMARK    8  A    between atoms: C_7  and  C_8
REMARK    9  A    between atoms: C_8  and  O_10
REMARK   10  A    between atoms: N_11  and  C_12
REMARK   11  A    between atoms: C_12  and  C_13
REMARK   12  A    between atoms: C_13  and  O_14
REMARK   13  A    between atoms: C_13  and  C_15
REMARK   14  A    between atoms: C_18  and  O_19
REMARK   15  A    between atoms: C_20  and  O_21
REMARK                            x       y       z     vdW  Elec       q    Type
REMARK                         _______ _______ _______ _____ _____    ______ ____
ROOT
ATOM      1  C   UNL     1       2.825   2.308  18.145  0.00  0.00    +0.000 C 
ENDROOT
BRANCH   1   2
ATOM      2  N   UNL     1       1.700   2.284  19.087  0.00  0.00    +0.000 NA
ATOM      3  H   UNL     1       0.958   2.899  18.749  0.00  0.00    +0.000 HD
BRANCH   2   5
ATOM      4  C   UNL     1       3.605   2.763  20.626  0.00  0.00    +0.000 C 
ATOM      5  C   UNL     1       2.086   2.618  20.463  0.00  0.00    +0.000 C 
BRANCH   5   6
ATOM      6  C   UNL     1       1.409   3.939  20.887  0.00  0.00    +0.000 C 
BRANCH   6   7
ATOM      7  C   UNL     1       2.215   5.186  20.515  0.00  0.00    +0.000 C 
BRANCH   7   8
ATOM      8  C   UNL     1       1.369   6.458  20.637  0.00  0.00    +0.000 C 
BRANCH   8   9
ATOM      9  C   UNL     1       2.145   7.664  20.110  0.00  0.00    +0.000 C 
BRANCH   9  10
ATOM     10  C   UNL     1       1.228   8.826  19.740  0.00  0.00    +0.000 C 
BRANCH  10  11
ATOM     11  C   UNL     1       1.377   9.198  18.283  0.00  0.00    +0.000 C 
ATOM     12  O   UNL     1       2.398   9.103  17.626  0.00  0.00    +0.000 OA
BRANCH  11  13
ATOM     13  O   UNL     1       0.225   9.663  17.747  0.00  0.00    +0.000 OA
ATOM     14  H   UNL     1      -0.353  10.113  18.397  0.00  0.00    +0.000 HD
ENDBRANCH  11  13
ENDBRANCH  10  11
ENDBRANCH   9  10
ENDBRANCH   8   9
ENDBRANCH   7   8
ENDBRANCH   6   7
ENDBRANCH   5   6
ENDBRANCH   2   5
ENDBRANCH   1   2
BRANCH   1  15
ATOM     15  C   UNL     1       2.666   3.399  17.060  0.00  0.00    +0.000 C 
BRANCH  15  16
ATOM     16  C   UNL     1       3.846   4.352  17.079  0.00  0.00    +0.000 A 
ATOM     17  C   UNL     1       3.665   5.694  17.463  0.00  0.00    +0.000 A 
ATOM     18  C   UNL     1       4.736   6.595  17.454  0.00  0.00    +0.000 A 
ATOM     19  C   UNL     1       5.993   6.153  17.060  0.00  0.00    +0.000 A 
ATOM     20  C   UNL     1       6.182   4.830  16.680  0.00  0.00    +0.000 A 
ATOM     21  C   UNL     1       5.127   3.930  16.686  0.00  0.00    +0.000 A 
BRANCH  19  22
ATOM     22  O   UNL     1       7.077   6.984  17.029  0.00  0.00    +0.000 OA
ATOM     23  H   UNL     1       6.837   7.773  16.514  0.00  0.00    +0.000 HD
ENDBRANCH  19  22
BRANCH  20  24
ATOM     24  O   UNL     1       7.418   4.397  16.290  0.00  0.00    +0.000 OA
ATOM     25  H   UNL     1       7.256   3.518  15.901  0.00  0.00    +0.000 HD
ENDBRANCH  20  24
ENDBRANCH  15  16
BRANCH  15  26
ATOM     26  O   UNL     1       1.459   4.142  17.273  0.00  0.00    +0.000 OA
ATOM     27  H   UNL     1       0.919   4.051  16.472  0.00  0.00    +0.000 HD
ENDBRANCH  15  26
ENDBRANCH   1  15
TORSDOF 14
ENDMDL
MODEL 8
REMARK VINA RESULT:      -6.5      4.418      8.168
REMARK  Name = 
REMARK  15 active torsions:
REMARK  status: ('A' for Active; 'I' for Inactive)
REMARK    1  A    between atoms: C_1  and  C_2
REMARK    2  A    between atoms: C_2  and  C_3
REMARK    3  A    between atoms: C_2  and  N_11
REMARK    4  A    between atoms: C_3  and  C_4
REMARK    5  A    between atoms: C_4  and  C_5
REMARK    6  A    between atoms: C_5  and  C_6
REMARK    7  A    between atoms: C_6  and  C_7
REMARK    8  A    between atoms: C_7  and  C_8
REMARK    9  A    between atoms: C_8  and  O_10
REMARK   10  A    between atoms: N_11  and  C_12
REMARK   11  A    between atoms: C_12  and  C_13
REMARK   12  A    between atoms: C_13  and  O_14
REMARK   13  A    between atoms: C_13  and  C_15
REMARK   14  A    between atoms: C_18  and  O_19
REMARK   15  A    between atoms: C_20  and  O_21
REMARK                            x       y       z     vdW  Elec       q    Type
REMARK                         _______ _______ _______ _____ _____    ______ ____
ROOT
ATOM      1  C   UNL     1       2.810   4.302  17.334  0.00  0.00    +0.000 C 
ENDROOT
BRANCH   1   2
ATOM      2  N   UNL     1       1.975   5.303  18.008  0.00  0.00    +0.000 NA
ATOM      3  H   UNL     1       1.223   5.598  17.384  0.00  0.00    +0.000 HD
BRANCH   2   5
ATOM      4  C   UNL     1       2.231   7.784  17.933  0.00  0.00    +0.000 C 
ATOM      5  C   UNL     1       2.737   6.454  18.507  0.00  0.00    +0.000 C 
BRANCH   5   6
ATOM      6  C   UNL     1       2.648   6.507  20.047  0.00  0.00    +0.000 C 
BRANCH   6   7
ATOM      7  C   UNL     1       1.699   5.464  20.642  0.00  0.00    +0.000 C 
BRANCH   7   8
ATOM      8  C   UNL     1       2.464   4.378  21.405  0.00  0.00    +0.000 C 
BRANCH   8   9
ATOM      9  C   UNL     1       1.641   3.093  21.468  0.00  0.00    +0.000 C 
BRANCH   9  10
ATOM     10  C   UNL     1       0.651   2.982  20.312  0.00  0.00    +0.000 C 
BRANCH  10  11
ATOM     11  C   UNL     1       1.166   2.053  19.238  0.00  0.00    +0.000 C 
ATOM     12  O   UNL     1       2.259   1.517  19.226  0.00  0.00    +0.000 OA
BRANCH  11  13
ATOM     13  O   UNL     1       0.265   1.857  18.248  0.00  0.00    +0.000 OA
ATOM     14  H   UNL     1      -0.528   2.427  18.324  0.00  0.00    +0.000 HD
ENDBRANCH  11  13
ENDBRANCH  10  11
ENDBRANCH   9  10
ENDBRANCH   8   9
ENDBRANCH   7   8
ENDBRANCH   6   7
ENDBRANCH   5   6
ENDBRANCH   2   5
ENDBRANCH   1   2
BRANCH   1  15
ATOM     15  C   UNL     1       4.238   4.228  17.925  0.00  0.00    +0.000 C 
BRANCH  15  16
ATOM     16  C   UNL     1       5.276   4.537  16.863  0.00  0.00    +0.000 A 
ATOM     17  C   UNL     1       6.170   5.609  17.039  0.00  0.00    +0.000 A 
ATOM     18  C   UNL     1       7.113   5.928  16.055  0.00  0.00    +0.000 A 
ATOM     19  C   UNL     1       7.162   5.173  14.889  0.00  0.00    +0.000 A 
ATOM     20  C   UNL     1       6.283   4.112  14.707  0.00  0.00    +0.000 A 
ATOM     21  C   UNL     1       5.347   3.788  15.676  0.00  0.00    +0.000 A 
BRANCH  19  22
ATOM     22  O   UNL     1       8.057   5.436  13.891  0.00  0.00    +0.000 OA
ATOM     23  H   UNL     1       8.653   6.139  14.200  0.00  0.00    +0.000 HD
ENDBRANCH  19  22
BRANCH  20  24
ATOM     24  O   UNL     1       6.331   3.371  13.559  0.00  0.00    +0.000 OA
ATOM     25  H   UNL     1       6.954   2.649  13.763  0.00  0.00    +0.000 HD
ENDBRANCH  20  24
ENDBRANCH  15  16
BRANCH  15  26
ATOM     26  O   UNL     1       4.489   2.922  18.461  0.00  0.00    +0.000 OA
ATOM     27  H   UNL     1       5.436   2.743  18.355  0.00  0.00    +0.000 HD
ENDBRANCH  15  26
ENDBRANCH   1  15
TORSDOF 14
ENDMDL
MODEL 9
REMARK VINA RESULT:      -6.4      1.705      2.251
REMARK  Name = 
REMARK  15 active torsions:
REMARK  status: ('A' for Active; 'I' for Inactive)
REMARK    1  A    between atoms: C_1  and  C_2
REMARK    2  A    between atoms: C_2  and  C_3
REMARK    3  A    between atoms: C_2  and  N_11
REMARK    4  A    between atoms: C_3  and  C_4
REMARK    5  A    between atoms: C_4  and  C_5
REMARK    6  A    between atoms: C_5  and  C_6
REMARK    7  A    between atoms: C_6  and  C_7
REMARK    8  A    between atoms: C_7  and  C_8
REMARK    9  A    between atoms: C_8  and  O_10
REMARK   10  A    between atoms: N_11  and  C_12
REMARK   11  A    between atoms: C_12  and  C_13
REMARK   12  A    between atoms: C_13  and  O_14
REMARK   13  A    between atoms: C_13  and  C_15
REMARK   14  A    between atoms: C_18  and  O_19
REMARK   15  A    between atoms: C_20  and  O_21
REMARK                            x       y       z     vdW  Elec       q    Type
REMARK                         _______ _______ _______ _____ _____    ______ ____
ROOT
ATOM      1  C   UNL     1       5.207   5.997  16.659  0.00  0.00    +0.000 C 
ENDROOT
BRANCH   1   2
ATOM      2  N   UNL     1       6.659   6.107  16.842  0.00  0.00    +0.000 NA
ATOM      3  H   UNL     1       7.062   5.174  16.947  0.00  0.00    +0.000 HD
BRANCH   2   5
ATOM      4  C   UNL     1       7.976   6.286  18.954  0.00  0.00    +0.000 C 
ATOM      5  C   UNL     1       7.040   6.982  17.957  0.00  0.00    +0.000 C 
BRANCH   5   6
ATOM      6  C   UNL     1       7.740   8.245  17.411  0.00  0.00    +0.000 C 
BRANCH   6   7
ATOM      7  C   UNL     1       8.477   9.048  18.485  0.00  0.00    +0.000 C 
BRANCH   7   8
ATOM      8  C   UNL     1       9.040  10.357  17.921  0.00  0.00    +0.000 C 
BRANCH   8   9
ATOM      9  C   UNL     1       9.920  11.048  18.960  0.00  0.00    +0.000 C 
BRANCH   9  10
ATOM     10  C   UNL     1       9.413  10.833  20.383  0.00  0.00    +0.000 C 
BRANCH  10  11
ATOM     11  C   UNL     1       9.788  11.991  21.278  0.00  0.00    +0.000 C 
ATOM     12  O   UNL     1      10.443  12.964  20.947  0.00  0.00    +0.000 OA
BRANCH  11  13
ATOM     13  O   UNL     1       9.308  11.851  22.536  0.00  0.00    +0.000 OA
ATOM     14  H   UNL     1       8.516  12.399  22.713  0.00  0.00    +0.000 HD
ENDBRANCH  11  13
ENDBRANCH  10  11
ENDBRANCH   9  10
ENDBRANCH   8   9
ENDBRANCH   7   8
ENDBRANCH   6   7
ENDBRANCH   5   6
ENDBRANCH   2   5
ENDBRANCH   1   2
BRANCH   1  15
ATOM     15  C   UNL     1       4.737   4.529  16.524  0.00  0.00    +0.000 C 
BRANCH  15  16
ATOM     16  C   UNL     1       3.583   4.245  17.466  0.00  0.00    +0.000 A 
ATOM     17  C   UNL     1       3.044   5.278  18.256  0.00  0.00    +0.000 A 
ATOM     18  C   UNL     1       2.000   5.026  19.154  0.00  0.00    +0.000 A 
ATOM     19  C   UNL     1       1.494   3.736  19.264  0.00  0.00    +0.000 A 
ATOM     20  C   UNL     1       2.019   2.710  18.488  0.00  0.00    +0.000 A 
ATOM     21  C   UNL     1       3.052   2.950  17.596  0.00  0.00    +0.000 A 
BRANCH  19  22
ATOM     22  O   UNL     1       0.478   3.427  20.124  0.00  0.00    +0.000 OA
ATOM     23  H   UNL     1       0.544   2.481  20.340  0.00  0.00    +0.000 HD
ENDBRANCH  19  22
BRANCH  20  24
ATOM     24  O   UNL     1       1.522   1.442  18.599  0.00  0.00    +0.000 OA
ATOM     25  H   UNL     1       1.250   1.208  17.692  0.00  0.00    +0.000 HD
ENDBRANCH  20  24
ENDBRANCH  15  16
BRANCH  15  26
ATOM     26  O   UNL     1       5.815   3.631  16.818  0.00  0.00    +0.000 OA
ATOM     27  H   UNL     1       6.067   3.201  15.986  0.00  0.00    +0.000 HD
ENDBRANCH  15  26
ENDBRANCH   1  15
TORSDOF 14
ENDMDL
