MODEL 1
REMARK VINA RESULT:      -6.4      0.000      0.000
REMARK  Name = 
REMARK  4 active torsions:
REMARK  status: ('A' for Active; 'I' for Inactive)
REMARK    1  A    between atoms: C_1  and  C_2
REMARK    2  A    between atoms: C_2  and  C_3
REMARK    3  A    between atoms: C_5  and  C_6
REMARK    4  A    between atoms: C_9  and  C_10
REMARK                            x       y       z     vdW  Elec       q    Type
REMARK                         _______ _______ _______ _____ _____    ______ ____
ROOT
ATOM      1  C   UNL     1       6.981   5.926  17.324  0.00  0.00    +0.000 A 
ATOM      2  N   UNL     1       7.274   5.716  16.075  0.00  0.00    +0.000 NA
ATOM      3  C   UNL     1       6.461   4.853  15.361  0.00  0.00    +0.000 A 
ATOM      4  C   UNL     1       6.850   4.644  13.926  0.00  0.00    +0.000 C 
ATOM      5  N   UNL     1       5.424   4.224  15.835  0.00  0.00    +0.000 NA
ATOM      6  C   UNL     1       5.119   4.436  17.143  0.00  0.00    +0.000 A 
ATOM      7  C   UNL     1       4.143   3.971  17.994  0.00  0.00    +0.000 A 
ATOM      8  C   UNL     1       4.403   4.602  19.228  0.00  0.00    +0.000 A 
ATOM      9  N   UNL     1       5.474   5.407  19.182  0.00  0.00    +0.000 NA
ATOM     10  N   UNL     1       5.888   5.287  17.901  0.00  0.00    +0.000 N 
ENDROOT
BRANCH   1  12
ATOM     11  C   UNL     1       7.839   8.234  17.657  0.00  0.00    +0.000 C 
ATOM     12  C   UNL     1       7.810   6.816  18.204  0.00  0.00    +0.000 C 
ENDBRANCH   1  12
BRANCH   7  13
ATOM     13  C   UNL     1       3.106   3.050  17.679  0.00  0.00    +0.000 C 
ATOM     14  N   UNL     1       2.248   2.304  17.446  0.00  0.00    +0.000 NA
ENDBRANCH   7  13
TORSDOF 2
ENDMDL
MODEL 2
REMARK VINA RESULT:      -5.9      1.716      3.398
REMARK  Name = 
REMARK  4 active torsions:
REMARK  status: ('A' for Active; 'I' for Inactive)
REMARK    1  A    between atoms: C_1  and  C_2
REMARK    2  A    between atoms: C_2  and  C_3
REMARK    3  A    between atoms: C_5  and  C_6
REMARK    4  A    between atoms: C_9  and  C_10
REMARK                            x       y       z     vdW  Elec       q    Type
REMARK                         _______ _______ _______ _____ _____    ______ ____
ROOT
ATOM      1  C   UNL     1       5.641   4.822  16.620  0.00  0.00    +0.000 A 
ATOM      2  N   UNL     1       6.653   5.350  17.242  0.00  0.00    +0.000 NA
ATOM      3  C   UNL     1       6.727   5.174  18.613  0.00  0.00    +0.000 A 
ATOM      4  C   UNL     1       7.914   5.810  19.279  0.00  0.00    +0.000 C 
ATOM      5  N   UNL     1       5.863   4.528  19.341  0.00  0.00    +0.000 NA
ATOM      6  C   UNL     1       4.799   3.981  18.695  0.00  0.00    +0.000 A 
ATOM      7  C   UNL     1       3.699   3.254  19.090  0.00  0.00    +0.000 A 
ATOM      8  C   UNL     1       2.986   2.996  17.901  0.00  0.00    +0.000 A 
ATOM      9  N   UNL     1       3.573   3.527  16.820  0.00  0.00    +0.000 NA
ATOM     10  N   UNL     1       4.675   4.118  17.332  0.00  0.00    +0.000 N 
ENDROOT
BRANCH   1  12
ATOM     11  C   UNL     1       6.238   3.929  14.380  0.00  0.00    +0.000 C 
ATOM     12  C   UNL     1       5.439   4.975  15.140  0.00  0.00    +0.000 C 
ENDBRANCH   1  12
BRANCH   7  13
ATOM     13  C   UNL     1       3.370   2.860  20.416  0.00  0.00    +0.000 C 
ATOM     14  N   UNL     1       3.074   2.537  21.490  0.00  0.00    +0.000 NA
ENDBRANCH   7  13
TORSDOF 2
ENDMDL
MODEL 3
REMARK VINA RESULT:      -5.9      2.608      5.004
REMARK  Name = 
REMARK  4 active torsions:
REMARK  status: ('A' for Active; 'I' for Inactive)
REMARK    1  A    between atoms: C_1  and  C_2
REMARK    2  A    between atoms: C_2  and  C_3
REMARK    3  A    between atoms: C_5  and  C_6
REMARK    4  A    between atoms: C_9  and  C_10
REMARK                            x       y       z     vdW  Elec       q    Type
REMARK                         _______ _______ _______ _____ _____    ______ ____
ROOT
ATOM      1  C   UNL     1       2.730   5.766  19.646  0.00  0.00    +0.000 A 
ATOM      2  N   UNL     1       2.172   6.867  19.239  0.00  0.00    +0.000 NA
ATOM      3  C   UNL     1       2.782   7.550  18.201  0.00  0.00    +0.000 A 
ATOM      4  C   UNL     1       2.097   8.817  17.776  0.00  0.00    +0.000 C 
ATOM      5  N   UNL     1       3.876   7.188  17.596  0.00  0.00    +0.000 NA
ATOM      6  C   UNL     1       4.466   6.039  18.025  0.00  0.00    +0.000 A 
ATOM      7  C   UNL     1       5.597   5.344  17.665  0.00  0.00    +0.000 A 
ATOM      8  C   UNL     1       5.622   4.221  18.519  0.00  0.00    +0.000 A 
ATOM      9  N   UNL     1       4.590   4.199  19.374  0.00  0.00    +0.000 NA
ATOM     10  N   UNL     1       3.903   5.316  19.049  0.00  0.00    +0.000 N 
ENDROOT
BRANCH   1  12
ATOM     11  C   UNL     1       1.019   4.094  20.316  0.00  0.00    +0.000 C 
ATOM     12  C   UNL     1       2.176   4.959  20.786  0.00  0.00    +0.000 C 
ENDBRANCH   1  12
BRANCH   7  13
ATOM     13  C   UNL     1       6.530   5.698  16.651  0.00  0.00    +0.000 C 
ATOM     14  N   UNL     1       7.309   5.992  15.844  0.00  0.00    +0.000 NA
ENDBRANCH   7  13
TORSDOF 2
ENDMDL
MODEL 4
REMARK VINA RESULT:      -5.8      1.502      3.965
REMARK  Name = 
REMARK  4 active torsions:
REMARK  status: ('A' for Active; 'I' for Inactive)
REMARK    1  A    between atoms: C_1  and  C_2
REMARK    2  A    between atoms: C_2  and  C_3
REMARK    3  A    between atoms: C_5  and  C_6
REMARK    4  A    between atoms: C_9  and  C_10
REMARK                            x       y       z     vdW  Elec       q    Type
REMARK                         _______ _______ _______ _____ _____    ______ ____
ROOT
ATOM      1  C   UNL     1       6.510   5.414  17.002  0.00  0.00    +0.000 A 
ATOM      2  N   UNL     1       5.514   4.882  17.645  0.00  0.00    +0.000 NA
ATOM      3  C   UNL     1       4.696   4.008  16.952  0.00  0.00    +0.000 A 
ATOM      4  C   UNL     1       3.558   3.427  17.742  0.00  0.00    +0.000 C 
ATOM      5  N   UNL     1       4.833   3.674  15.700  0.00  0.00    +0.000 NA
ATOM      6  C   UNL     1       5.870   4.234  15.023  0.00  0.00    +0.000 A 
ATOM      7  C   UNL     1       6.337   4.151  13.731  0.00  0.00    +0.000 A 
ATOM      8  C   UNL     1       7.466   4.995  13.696  0.00  0.00    +0.000 A 
ATOM      9  N   UNL     1       7.705   5.589  14.873  0.00  0.00    +0.000 NA
ATOM     10  N   UNL     1       6.719   5.107  15.662  0.00  0.00    +0.000 N 
ENDROOT
BRANCH   1  12
ATOM     11  C   UNL     1       7.810   5.956  19.049  0.00  0.00    +0.000 C 
ATOM     12  C   UNL     1       7.444   6.401  17.643  0.00  0.00    +0.000 C 
ENDBRANCH   1  12
BRANCH   7  13
ATOM     13  C   UNL     1       5.784   3.376  12.674  0.00  0.00    +0.000 C 
ATOM     14  N   UNL     1       5.359   2.735  11.805  0.00  0.00    +0.000 NA
ENDBRANCH   7  13
TORSDOF 2
ENDMDL
MODEL 5
REMARK VINA RESULT:      -5.8      2.762      5.739
REMARK  Name = 
REMARK  4 active torsions:
REMARK  status: ('A' for Active; 'I' for Inactive)
REMARK    1  A    between atoms: C_1  and  C_2
REMARK    2  A    between atoms: C_2  and  C_3
REMARK    3  A    between atoms: C_5  and  C_6
REMARK    4  A    between atoms: C_9  and  C_10
REMARK                            x       y       z     vdW  Elec       q    Type
REMARK                         _______ _______ _______ _____ _____    ______ ____
ROOT
ATOM      1  C   UNL     1       1.841   4.234  19.790  0.00  0.00    +0.000 A 
ATOM      2  N   UNL     1       1.537   5.351  20.382  0.00  0.00    +0.000 NA
ATOM      3  C   UNL     1       2.120   6.510  19.902  0.00  0.00    +0.000 A 
ATOM      4  C   UNL     1       1.738   7.769  20.627  0.00  0.00    +0.000 C 
ATOM      5  N   UNL     1       2.957   6.581  18.907  0.00  0.00    +0.000 NA
ATOM      6  C   UNL     1       3.282   5.414  18.290  0.00  0.00    +0.000 A 
ATOM      7  C   UNL     1       4.107   5.073  17.243  0.00  0.00    +0.000 A 
ATOM      8  C   UNL     1       3.976   3.674  17.116  0.00  0.00    +0.000 A 
ATOM      9  N   UNL     1       3.138   3.149  18.020  0.00  0.00    +0.000 NA
ATOM     10  N   UNL     1       2.730   4.230  18.720  0.00  0.00    +0.000 N 
ENDROOT
BRANCH   1  12
ATOM     11  C   UNL     1       1.649   2.657  21.700  0.00  0.00    +0.000 C 
ATOM     12  C   UNL     1       1.295   2.910  20.245  0.00  0.00    +0.000 C 
ENDBRANCH   1  12
BRANCH   7  13
ATOM     13  C   UNL     1       4.912   5.955  16.470  0.00  0.00    +0.000 C 
ATOM     14  N   UNL     1       5.546   6.680  15.824  0.00  0.00    +0.000 NA
ENDBRANCH   7  13
TORSDOF 2
ENDMDL
MODEL 6
REMARK VINA RESULT:      -5.7      2.602      4.134
REMARK  Name = 
REMARK  4 active torsions:
REMARK  status: ('A' for Active; 'I' for Inactive)
REMARK    1  A    between atoms: C_1  and  C_2
REMARK    2  A    between atoms: C_2  and  C_3
REMARK    3  A    between atoms: C_5  and  C_6
REMARK    4  A    between atoms: C_9  and  C_10
REMARK                            x       y       z     vdW  Elec       q    Type
REMARK                         _______ _______ _______ _____ _____    ______ ____
ROOT
ATOM      1  C   UNL     1       4.084   4.834  17.302  0.00  0.00    +0.000 A 
ATOM      2  N   UNL     1       3.649   6.048  17.467  0.00  0.00    +0.000 NA
ATOM      3  C   UNL     1       2.866   6.304  18.579  0.00  0.00    +0.000 A 
ATOM      4  C   UNL     1       2.387   7.720  18.716  0.00  0.00    +0.000 C 
ATOM      5  N   UNL     1       2.518   5.428  19.478  0.00  0.00    +0.000 NA
ATOM      6  C   UNL     1       2.966   4.155  19.304  0.00  0.00    +0.000 A 
ATOM      7  C   UNL     1       2.819   2.977  19.999  0.00  0.00    +0.000 A 
ATOM      8  C   UNL     1       3.556   2.025  19.264  0.00  0.00    +0.000 A 
ATOM      9  N   UNL     1       4.126   2.546  18.169  0.00  0.00    +0.000 NA
ATOM     10  N   UNL     1       3.752   3.844  18.220  0.00  0.00    +0.000 N 
ENDROOT
BRANCH   1  12
ATOM     11  C   UNL     1       5.468   5.660  15.411  0.00  0.00    +0.000 C 
ATOM     12  C   UNL     1       4.914   4.434  16.116  0.00  0.00    +0.000 C 
ENDBRANCH   1  12
BRANCH   7  13
ATOM     13  C   UNL     1       2.078   2.782  21.197  0.00  0.00    +0.000 C 
ATOM     14  N   UNL     1       1.484   2.596  22.177  0.00  0.00    +0.000 NA
ENDBRANCH   7  13
TORSDOF 2
ENDMDL
MODEL 7
REMARK VINA RESULT:      -5.6      2.065      4.468
REMARK  Name = 
REMARK  4 active torsions:
REMARK  status: ('A' for Active; 'I' for Inactive)
REMARK    1  A    between atoms: C_1  and  C_2
REMARK    2  A    between atoms: C_2  and  C_3
REMARK    3  A    between atoms: C_5  and  C_6
REMARK    4  A    between atoms: C_9  and  C_10
REMARK                            x       y       z     vdW  Elec       q    Type
REMARK                         _______ _______ _______ _____ _____    ______ ____
ROOT
ATOM      1  C   UNL     1       3.262   5.182  18.701  0.00  0.00    +0.000 A 
ATOM      2  N   UNL     1       3.079   3.918  18.946  0.00  0.00    +0.000 NA
ATOM      3  C   UNL     1       3.682   3.005  18.098  0.00  0.00    +0.000 A 
ATOM      4  C   UNL     1       3.431   1.561  18.426  0.00  0.00    +0.000 C 
ATOM      5  N   UNL     1       4.418   3.303  17.066  0.00  0.00    +0.000 NA
ATOM      6  C   UNL     1       4.606   4.624  16.803  0.00  0.00    +0.000 A 
ATOM      7  C   UNL     1       5.286   5.327  15.836  0.00  0.00    +0.000 A 
ATOM      8  C   UNL     1       5.072   6.685  16.154  0.00  0.00    +0.000 A 
ATOM      9  N   UNL     1       4.302   6.847  17.239  0.00  0.00    +0.000 NA
ATOM     10  N   UNL     1       4.035   5.576  17.614  0.00  0.00    +0.000 N 
ENDROOT
BRANCH   1  12
ATOM     11  C   UNL     1       1.759   5.656  20.621  0.00  0.00    +0.000 C 
ATOM     12  C   UNL     1       2.630   6.261  19.533  0.00  0.00    +0.000 C 
ENDBRANCH   1  12
BRANCH   7  13
ATOM     13  C   UNL     1       6.034   4.785  14.755  0.00  0.00    +0.000 C 
ATOM     14  N   UNL     1       6.622   4.327  13.866  0.00  0.00    +0.000 NA
ENDBRANCH   7  13
TORSDOF 2
ENDMDL
MODEL 8
REMARK VINA RESULT:      -5.6      2.373      3.402
REMARK  Name = 
REMARK  4 active torsions:
REMARK  status: ('A' for Active; 'I' for Inactive)
REMARK    1  A    between atoms: C_1  and  C_2
REMARK    2  A    between atoms: C_2  and  C_3
REMARK    3  A    between atoms: C_5  and  C_6
REMARK    4  A    between atoms: C_9  and  C_10
REMARK                            x       y       z     vdW  Elec       q    Type
REMARK                         _______ _______ _______ _____ _____    ______ ____
ROOT
ATOM      1  C   UNL     1       5.106   5.852  17.841  0.00  0.00    +0.000 A 
ATOM      2  N   UNL     1       4.333   6.875  17.624  0.00  0.00    +0.000 NA
ATOM      3  C   UNL     1       3.083   6.871  18.217  0.00  0.00    +0.000 A 
ATOM      4  C   UNL     1       2.231   8.073  17.929  0.00  0.00    +0.000 C 
ATOM      5  N   UNL     1       2.606   5.923  18.973  0.00  0.00    +0.000 NA
ATOM      6  C   UNL     1       3.410   4.849  19.195  0.00  0.00    +0.000 A 
ATOM      7  C   UNL     1       3.280   3.677  19.904  0.00  0.00    +0.000 A 
ATOM      8  C   UNL     1       4.503   3.000  19.718  0.00  0.00    +0.000 A 
ATOM      9  N   UNL     1       5.356   3.679  18.938  0.00  0.00    +0.000 NA
ATOM     10  N   UNL     1       4.665   4.800  18.636  0.00  0.00    +0.000 N 
ENDROOT
BRANCH   1  12
ATOM     11  C   UNL     1       7.448   6.680  17.897  0.00  0.00    +0.000 C 
ATOM     12  C   UNL     1       6.470   5.732  17.223  0.00  0.00    +0.000 C 
ENDBRANCH   1  12
BRANCH   7  13
ATOM     13  C   UNL     1       2.147   3.255  20.653  0.00  0.00    +0.000 C 
ATOM     14  N   UNL     1       1.239   2.911  21.288  0.00  0.00    +0.000 NA
ENDBRANCH   7  13
TORSDOF 2
ENDMDL
MODEL 9
REMARK VINA RESULT:      -5.5      2.280      3.383
REMARK  Name = 
REMARK  4 active torsions:
REMARK  status: ('A' for Active; 'I' for Inactive)
REMARK    1  A    between atoms: C_1  and  C_2
REMARK    2  A    between atoms: C_2  and  C_3
REMARK    3  A    between atoms: C_5  and  C_6
REMARK    4  A    between atoms: C_9  and  C_10
REMARK                            x       y       z     vdW  Elec       q    Type
REMARK                         _______ _______ _______ _____ _____    ______ ____
ROOT
ATOM      1  C   UNL     1       4.770   6.120  17.147  0.00  0.00    +0.000 A 
ATOM      2  N   UNL     1       4.121   7.212  17.421  0.00  0.00    +0.000 NA
ATOM      3  C   UNL     1       2.846   7.088  17.944  0.00  0.00    +0.000 A 
ATOM      4  C   UNL     1       2.142   8.381  18.236  0.00  0.00    +0.000 C 
ATOM      5  N   UNL     1       2.232   5.964  18.183  0.00  0.00    +0.000 NA
ATOM      6  C   UNL     1       2.906   4.820  17.892  0.00  0.00    +0.000 A 
ATOM      7  C   UNL     1       2.615   3.478  17.986  0.00  0.00    +0.000 A 
ATOM      8  C   UNL     1       3.770   2.820  17.513  0.00  0.00    +0.000 A 
ATOM      9  N   UNL     1       4.730   3.672  17.131  0.00  0.00    +0.000 NA
ATOM     10  N   UNL     1       4.178   4.882  17.374  0.00  0.00    +0.000 N 
ENDROOT
BRANCH   1  12
ATOM     11  C   UNL     1       7.117   6.878  17.446  0.00  0.00    +0.000 C 
ATOM     12  C   UNL     1       6.146   6.133  16.545  0.00  0.00    +0.000 C 
ENDBRANCH   1  12
BRANCH   7  13
ATOM     13  C   UNL     1       1.404   2.900  18.458  0.00  0.00    +0.000 C 
ATOM     14  N   UNL     1       0.419   2.444  18.867  0.00  0.00    +0.000 NA
ENDBRANCH   7  13
TORSDOF 2
ENDMDL
