MODEL 1
REMARK VINA RESULT:      -6.6      0.000      0.000
REMARK  Name = 
REMARK  7 active torsions:
REMARK  status: ('A' for Active; 'I' for Inactive)
REMARK    1  A    between atoms: C_1  and  C_2
REMARK    2  A    between atoms: C_2  and  C_3
REMARK    3  A    between atoms: C_2  and  O_4
REMARK    4  A    between atoms: O_4  and  C_5
REMARK    5  A    between atoms: C_5  and  C_7
REMARK    6  A    between atoms: C_7  and  C_8
REMARK    7  A    between atoms: C_22  and  C_23
REMARK                            x       y       z     vdW  Elec       q    Type
REMARK                         _______ _______ _______ _____ _____    ______ ____
ROOT
ATOM      1  C   UNL     1      -0.657  13.683  20.798  0.00  0.00    +0.000 C 
ATOM      2  O   UNL     1      -0.648  13.229  19.389  0.00  0.00    +0.000 OA
ATOM      3  C   UNL     1      -1.941  12.764  19.261  0.00  0.00    +0.000 A 
ATOM      4  C   UNL     1      -2.582  12.553  20.408  0.00  0.00    +0.000 A 
ATOM      5  C   UNL     1      -4.032  12.673  20.303  0.00  0.00    +0.000 A 
ATOM      6  O   UNL     1      -4.690  13.222  21.175  0.00  0.00    +0.000 OA
ATOM      7  O   UNL     1      -4.587  12.218  19.094  0.00  0.00    +0.000 OA
ATOM      8  C   UNL     1      -3.728  11.577  18.165  0.00  0.00    +0.000 A 
ATOM      9  C   UNL     1      -4.242  10.555  17.376  0.00  0.00    +0.000 A 
ATOM     10  C   UNL     1      -3.344   9.690  16.749  0.00  0.00    +0.000 A 
ATOM     11  C   UNL     1      -1.963   9.866  16.898  0.00  0.00    +0.000 A 
ATOM     12  C   UNL     1      -1.466  10.964  17.603  0.00  0.00    +0.000 A 
ATOM     13  C   UNL     1      -2.356  11.848  18.220  0.00  0.00    +0.000 A 
ATOM     14  C   UNL     1      -1.584  12.640  21.516  0.00  0.00    +0.000 C 
ENDROOT
BRANCH  14  15
ATOM     15  C   UNL     1      -0.889  11.254  21.771  0.00  0.00    +0.000 A 
ATOM     16  C   UNL     1      -0.279  10.491  20.751  0.00  0.00    +0.000 A 
ATOM     17  C   UNL     1       0.472   9.337  21.019  0.00  0.00    +0.000 A 
ATOM     18  C   UNL     1       0.602   8.880  22.321  0.00  0.00    +0.000 A 
ATOM     19  C   UNL     1      -0.042   9.570  23.343  0.00  0.00    +0.000 A 
ATOM     20  C   UNL     1      -0.789  10.729  23.072  0.00  0.00    +0.000 A 
ENDBRANCH  14  15
BRANCH   1  21
ATOM     21  C   UNL     1       0.773  13.771  21.315  0.00  0.00    +0.000 C 
ATOM     22  O   UNL     1       1.083  14.246  22.401  0.00  0.00    +0.000 OA
BRANCH  21  23
ATOM     23  O   UNL     1       1.668  13.298  20.398  0.00  0.00    +0.000 OA
BRANCH  23  25
ATOM     24  C   UNL     1       3.777  14.458  20.412  0.00  0.00    +0.000 C 
ATOM     25  C   UNL     1       2.445  14.281  19.698  0.00  0.00    +0.000 C 
ATOM     26  C   UNL     1       2.666  13.780  18.275  0.00  0.00    +0.000 C 
ENDBRANCH  23  25
ENDBRANCH  21  23
ENDBRANCH   1  21
BRANCH   1  27
ATOM     27  C   UNL     1      -1.210  15.062  20.939  0.00  0.00    +0.000 C 
ATOM     28  N   UNL     1      -1.656  16.123  21.044  0.00  0.00    +0.000 NA
ENDBRANCH   1  27
TORSDOF 5
ENDMDL
MODEL 2
REMARK VINA RESULT:      -6.6      8.434     11.120
REMARK  Name = 
REMARK  7 active torsions:
REMARK  status: ('A' for Active; 'I' for Inactive)
REMARK    1  A    between atoms: C_1  and  C_2
REMARK    2  A    between atoms: C_2  and  C_3
REMARK    3  A    between atoms: C_2  and  O_4
REMARK    4  A    between atoms: O_4  and  C_5
REMARK    5  A    between atoms: C_5  and  C_7
REMARK    6  A    between atoms: C_7  and  C_8
REMARK    7  A    between atoms: C_22  and  C_23
REMARK                            x       y       z     vdW  Elec       q    Type
REMARK                         _______ _______ _______ _____ _____    ______ ____
ROOT
ATOM      1  C   UNL     1       4.193   3.298  19.647  0.00  0.00    +0.000 C 
ATOM      2  O   UNL     1       4.287   2.942  18.214  0.00  0.00    +0.000 OA
ATOM      3  C   UNL     1       5.459   3.583  17.866  0.00  0.00    +0.000 A 
ATOM      4  C   UNL     1       5.874   4.508  18.727  0.00  0.00    +0.000 A 
ATOM      5  C   UNL     1       7.316   4.721  18.713  0.00  0.00    +0.000 A 
ATOM      6  O   UNL     1       7.946   4.887  19.747  0.00  0.00    +0.000 OA
ATOM      7  O   UNL     1       7.928   4.611  17.451  0.00  0.00    +0.000 OA
ATOM      8  C   UNL     1       7.092   4.442  16.318  0.00  0.00    +0.000 A 
ATOM      9  C   UNL     1       7.486   5.003  15.109  0.00  0.00    +0.000 A 
ATOM     10  C   UNL     1       6.523   5.162  14.111  0.00  0.00    +0.000 A 
ATOM     11  C   UNL     1       5.204   4.746  14.321  0.00  0.00    +0.000 A 
ATOM     12  C   UNL     1       4.853   4.084  15.499  0.00  0.00    +0.000 A 
ATOM     13  C   UNL     1       5.814   3.902  16.499  0.00  0.00    +0.000 A 
ATOM     14  C   UNL     1       4.771   4.756  19.705  0.00  0.00    +0.000 C 
ENDROOT
BRANCH  14  15
ATOM     15  C   UNL     1       3.772   5.847  19.175  0.00  0.00    +0.000 A 
ATOM     16  C   UNL     1       2.730   6.393  19.957  0.00  0.00    +0.000 A 
ATOM     17  C   UNL     1       1.950   7.474  19.523  0.00  0.00    +0.000 A 
ATOM     18  C   UNL     1       2.157   8.021  18.267  0.00  0.00    +0.000 A 
ATOM     19  C   UNL     1       3.130   7.464  17.444  0.00  0.00    +0.000 A 
ATOM     20  C   UNL     1       3.914   6.384  17.883  0.00  0.00    +0.000 A 
ENDBRANCH  14  15
BRANCH   1  21
ATOM     21  C   UNL     1       2.756   3.131  20.122  0.00  0.00    +0.000 C 
ATOM     22  O   UNL     1       2.349   3.488  21.220  0.00  0.00    +0.000 OA
BRANCH  21  23
ATOM     23  O   UNL     1       1.990   2.493  19.187  0.00  0.00    +0.000 OA
BRANCH  23  25
ATOM     24  C   UNL     1       0.286   4.040  19.894  0.00  0.00    +0.000 C 
ATOM     25  C   UNL     1       0.809   3.182  18.750  0.00  0.00    +0.000 C 
ATOM     26  C   UNL     1       1.187   4.055  17.560  0.00  0.00    +0.000 C 
ENDBRANCH  23  25
ENDBRANCH  21  23
ENDBRANCH   1  21
BRANCH   1  27
ATOM     27  C   UNL     1       4.998   2.380  20.507  0.00  0.00    +0.000 C 
ATOM     28  N   UNL     1       5.606   1.667  21.183  0.00  0.00    +0.000 NA
ENDBRANCH   1  27
TORSDOF 5
ENDMDL
MODEL 3
REMARK VINA RESULT:      -6.5      0.471      1.184
REMARK  Name = 
REMARK  7 active torsions:
REMARK  status: ('A' for Active; 'I' for Inactive)
REMARK    1  A    between atoms: C_1  and  C_2
REMARK    2  A    between atoms: C_2  and  C_3
REMARK    3  A    between atoms: C_2  and  O_4
REMARK    4  A    between atoms: O_4  and  C_5
REMARK    5  A    between atoms: C_5  and  C_7
REMARK    6  A    between atoms: C_7  and  C_8
REMARK    7  A    between atoms: C_22  and  C_23
REMARK                            x       y       z     vdW  Elec       q    Type
REMARK                         _______ _______ _______ _____ _____    ______ ____
ROOT
ATOM      1  C   UNL     1      -0.814  14.026  20.841  0.00  0.00    +0.000 C 
ATOM      2  O   UNL     1      -0.818  13.524  19.449  0.00  0.00    +0.000 OA
ATOM      3  C   UNL     1      -2.060  12.923  19.396  0.00  0.00    +0.000 A 
ATOM      4  C   UNL     1      -2.625  12.689  20.577  0.00  0.00    +0.000 A 
ATOM      5  C   UNL     1      -4.082  12.654  20.536  0.00  0.00    +0.000 A 
ATOM      6  O   UNL     1      -4.756  13.163  21.419  0.00  0.00    +0.000 OA
ATOM      7  O   UNL     1      -4.638  12.099  19.369  0.00  0.00    +0.000 OA
ATOM      8  C   UNL     1      -3.756  11.516  18.424  0.00  0.00    +0.000 A 
ATOM      9  C   UNL     1      -4.193  10.418  17.693  0.00  0.00    +0.000 A 
ATOM     10  C   UNL     1      -3.236   9.628  17.053  0.00  0.00    +0.000 A 
ATOM     11  C   UNL     1      -1.877   9.952  17.132  0.00  0.00    +0.000 A 
ATOM     12  C   UNL     1      -1.468  11.121  17.777  0.00  0.00    +0.000 A 
ATOM     13  C   UNL     1      -2.419  11.930  18.405  0.00  0.00    +0.000 A 
ATOM     14  C   UNL     1      -1.595  12.921  21.635  0.00  0.00    +0.000 C 
ENDROOT
BRANCH  14  15
ATOM     15  C   UNL     1      -0.747  11.624  21.902  0.00  0.00    +0.000 A 
ATOM     16  C   UNL     1      -0.874  10.837  23.067  0.00  0.00    +0.000 A 
ATOM     17  C   UNL     1      -0.226   9.603  23.217  0.00  0.00    +0.000 A 
ATOM     18  C   UNL     1       0.611   9.132  22.219  0.00  0.00    +0.000 A 
ATOM     19  C   UNL     1       0.813   9.914  21.086  0.00  0.00    +0.000 A 
ATOM     20  C   UNL     1       0.158  11.148  20.936  0.00  0.00    +0.000 A 
ENDBRANCH  14  15
BRANCH   1  21
ATOM     21  C   UNL     1       0.619  14.282  21.287  0.00  0.00    +0.000 C 
ATOM     22  O   UNL     1       0.980  14.303  22.457  0.00  0.00    +0.000 OA
BRANCH  21  23
ATOM     23  O   UNL     1       1.439  14.530  20.223  0.00  0.00    +0.000 OA
BRANCH  23  25
ATOM     24  C   UNL     1       2.574  13.025  18.726  0.00  0.00    +0.000 C 
ATOM     25  C   UNL     1       2.593  13.686  20.097  0.00  0.00    +0.000 C 
ATOM     26  C   UNL     1       3.833  14.559  20.250  0.00  0.00    +0.000 C 
ENDBRANCH  23  25
ENDBRANCH  21  23
ENDBRANCH   1  21
BRANCH   1  27
ATOM     27  C   UNL     1      -1.504  15.345  20.963  0.00  0.00    +0.000 C 
ATOM     28  N   UNL     1      -2.042  16.364  21.039  0.00  0.00    +0.000 NA
ENDBRANCH   1  27
TORSDOF 5
ENDMDL
MODEL 4
REMARK VINA RESULT:      -6.4      1.465      1.970
REMARK  Name = 
REMARK  7 active torsions:
REMARK  status: ('A' for Active; 'I' for Inactive)
REMARK    1  A    between atoms: C_1  and  C_2
REMARK    2  A    between atoms: C_2  and  C_3
REMARK    3  A    between atoms: C_2  and  O_4
REMARK    4  A    between atoms: O_4  and  C_5
REMARK    5  A    between atoms: C_5  and  C_7
REMARK    6  A    between atoms: C_7  and  C_8
REMARK    7  A    between atoms: C_22  and  C_23
REMARK                            x       y       z     vdW  Elec       q    Type
REMARK                         _______ _______ _______ _____ _____    ______ ____
ROOT
ATOM      1  C   UNL     1      -1.306  13.940  21.560  0.00  0.00    +0.000 C 
ATOM      2  O   UNL     1      -1.999  13.772  20.263  0.00  0.00    +0.000 OA
ATOM      3  C   UNL     1      -3.230  13.313  20.687  0.00  0.00    +0.000 A 
ATOM      4  C   UNL     1      -3.267  12.868  21.940  0.00  0.00    +0.000 A 
ATOM      5  C   UNL     1      -4.579  12.975  22.566  0.00  0.00    +0.000 A 
ATOM      6  O   UNL     1      -4.703  13.328  23.729  0.00  0.00    +0.000 OA
ATOM      7  O   UNL     1      -5.673  12.754  21.710  0.00  0.00    +0.000 OA
ATOM      8  C   UNL     1      -5.407  12.326  20.384  0.00  0.00    +0.000 A 
ATOM      9  C   UNL     1      -6.308  11.468  19.767  0.00  0.00    +0.000 A 
ATOM     10  C   UNL     1      -5.881  10.762  18.640  0.00  0.00    +0.000 A 
ATOM     11  C   UNL     1      -4.586  10.935  18.139  0.00  0.00    +0.000 A 
ATOM     12  C   UNL     1      -3.733  11.884  18.707  0.00  0.00    +0.000 A 
ATOM     13  C   UNL     1      -4.156  12.610  19.824  0.00  0.00    +0.000 A 
ATOM     14  C   UNL     1      -1.860  12.757  22.431  0.00  0.00    +0.000 C 
ENDROOT
BRANCH  14  15
ATOM     15  C   UNL     1      -1.233  11.363  22.064  0.00  0.00    +0.000 A 
ATOM     16  C   UNL     1      -0.913  10.978  20.743  0.00  0.00    +0.000 A 
ATOM     17  C   UNL     1      -0.212   9.799  20.452  0.00  0.00    +0.000 A 
ATOM     18  C   UNL     1       0.155   8.938  21.473  0.00  0.00    +0.000 A 
ATOM     19  C   UNL     1      -0.204   9.254  22.780  0.00  0.00    +0.000 A 
ATOM     20  C   UNL     1      -0.901  10.439  23.070  0.00  0.00    +0.000 A 
ENDBRANCH  14  15
BRANCH   1  21
ATOM     21  C   UNL     1       0.200  13.956  21.336  0.00  0.00    +0.000 C 
ATOM     22  O   UNL     1       1.027  14.051  22.234  0.00  0.00    +0.000 OA
BRANCH  21  23
ATOM     23  O   UNL     1       0.509  13.898  20.007  0.00  0.00    +0.000 OA
BRANCH  23  25
ATOM     24  C   UNL     1       1.916  12.424  18.723  0.00  0.00    +0.000 C 
ATOM     25  C   UNL     1       1.877  13.606  19.682  0.00  0.00    +0.000 C 
ATOM     26  C   UNL     1       2.478  14.843  19.026  0.00  0.00    +0.000 C 
ENDBRANCH  23  25
ENDBRANCH  21  23
ENDBRANCH   1  21
BRANCH   1  27
ATOM     27  C   UNL     1      -1.622  15.253  22.198  0.00  0.00    +0.000 C 
ATOM     28  N   UNL     1      -1.849  16.276  22.684  0.00  0.00    +0.000 NA
ENDBRANCH   1  27
TORSDOF 5
ENDMDL
MODEL 5
REMARK VINA RESULT:      -6.3      1.767      2.420
REMARK  Name = 
REMARK  7 active torsions:
REMARK  status: ('A' for Active; 'I' for Inactive)
REMARK    1  A    between atoms: C_1  and  C_2
REMARK    2  A    between atoms: C_2  and  C_3
REMARK    3  A    between atoms: C_2  and  O_4
REMARK    4  A    between atoms: O_4  and  C_5
REMARK    5  A    between atoms: C_5  and  C_7
REMARK    6  A    between atoms: C_7  and  C_8
REMARK    7  A    between atoms: C_22  and  C_23
REMARK                            x       y       z     vdW  Elec       q    Type
REMARK                         _______ _______ _______ _____ _____    ______ ____
ROOT
ATOM      1  C   UNL     1      -1.701  14.070  21.855  0.00  0.00    +0.000 C 
ATOM      2  O   UNL     1      -2.444  13.947  20.581  0.00  0.00    +0.000 OA
ATOM      3  C   UNL     1      -3.618  13.369  21.023  0.00  0.00    +0.000 A 
ATOM      4  C   UNL     1      -3.560  12.832  22.239  0.00  0.00    +0.000 A 
ATOM      5  C   UNL     1      -4.845  12.797  22.928  0.00  0.00    +0.000 A 
ATOM      6  O   UNL     1      -4.935  13.054  24.120  0.00  0.00    +0.000 OA
ATOM      7  O   UNL     1      -5.962  12.560  22.107  0.00  0.00    +0.000 OA
ATOM      8  C   UNL     1      -5.732  12.250  20.743  0.00  0.00    +0.000 A 
ATOM      9  C   UNL     1      -6.601  11.376  20.102  0.00  0.00    +0.000 A 
ATOM     10  C   UNL     1      -6.182  10.787  18.907  0.00  0.00    +0.000 A 
ATOM     11  C   UNL     1      -4.929  11.091  18.364  0.00  0.00    +0.000 A 
ATOM     12  C   UNL     1      -4.117  12.055  18.964  0.00  0.00    +0.000 A 
ATOM     13  C   UNL     1      -4.533  12.665  20.151  0.00  0.00    +0.000 A 
ATOM     14  C   UNL     1      -2.126  12.790  22.657  0.00  0.00    +0.000 C 
ENDROOT
BRANCH  14  15
ATOM     15  C   UNL     1      -1.423  11.476  22.157  0.00  0.00    +0.000 A 
ATOM     16  C   UNL     1      -1.136  11.216  20.799  0.00  0.00    +0.000 A 
ATOM     17  C   UNL     1      -0.370  10.116  20.388  0.00  0.00    +0.000 A 
ATOM     18  C   UNL     1       0.100   9.208  21.323  0.00  0.00    +0.000 A 
ATOM     19  C   UNL     1      -0.222   9.397  22.664  0.00  0.00    +0.000 A 
ATOM     20  C   UNL     1      -0.985  10.504  23.073  0.00  0.00    +0.000 A 
ENDBRANCH  14  15
BRANCH   1  21
ATOM     21  C   UNL     1      -0.213  14.213  21.566  0.00  0.00    +0.000 C 
ATOM     22  O   UNL     1       0.654  14.250  22.431  0.00  0.00    +0.000 OA
BRANCH  21  23
ATOM     23  O   UNL     1       0.028  14.341  20.228  0.00  0.00    +0.000 OA
BRANCH  23  25
ATOM     24  C   UNL     1       1.898  15.277  19.035  0.00  0.00    +0.000 C 
ATOM     25  C   UNL     1       0.617  15.578  19.800  0.00  0.00    +0.000 C 
ATOM     26  C   UNL     1      -0.386  16.290  18.900  0.00  0.00    +0.000 C 
ENDBRANCH  23  25
ENDBRANCH  21  23
ENDBRANCH   1  21
BRANCH   1  27
ATOM     27  C   UNL     1      -2.075  15.306  22.605  0.00  0.00    +0.000 C 
ATOM     28  N   UNL     1      -2.376  16.267  23.170  0.00  0.00    +0.000 NA
ENDBRANCH   1  27
TORSDOF 5
ENDMDL
MODEL 6
REMARK VINA RESULT:      -6.3      1.968      5.243
REMARK  Name = 
REMARK  7 active torsions:
REMARK  status: ('A' for Active; 'I' for Inactive)
REMARK    1  A    between atoms: C_1  and  C_2
REMARK    2  A    between atoms: C_2  and  C_3
REMARK    3  A    between atoms: C_2  and  O_4
REMARK    4  A    between atoms: O_4  and  C_5
REMARK    5  A    between atoms: C_5  and  C_7
REMARK    6  A    between atoms: C_7  and  C_8
REMARK    7  A    between atoms: C_22  and  C_23
REMARK                            x       y       z     vdW  Elec       q    Type
REMARK                         _______ _______ _______ _____ _____    ______ ____
ROOT
ATOM      1  C   UNL     1      -0.653  13.641  22.353  0.00  0.00    +0.000 C 
ATOM      2  O   UNL     1       0.750  13.545  21.889  0.00  0.00    +0.000 OA
ATOM      3  C   UNL     1       0.834  14.667  21.090  0.00  0.00    +0.000 A 
ATOM      4  C   UNL     1      -0.334  15.198  20.737  0.00  0.00    +0.000 A 
ATOM      5  C   UNL     1      -0.270  16.628  20.459  0.00  0.00    +0.000 A 
ATOM      6  O   UNL     1      -1.153  17.389  20.827  0.00  0.00    +0.000 OA
ATOM      7  O   UNL     1       0.917  17.070  19.846  0.00  0.00    +0.000 OA
ATOM      8  C   UNL     1       1.861  16.092  19.442  0.00  0.00    +0.000 A 
ATOM      9  C   UNL     1       2.621  16.330  18.303  0.00  0.00    +0.000 A 
ATOM     10  C   UNL     1       3.263  15.246  17.700  0.00  0.00    +0.000 A 
ATOM     11  C   UNL     1       3.157  13.962  18.246  0.00  0.00    +0.000 A 
ATOM     12  C   UNL     1       2.481  13.762  19.451  0.00  0.00    +0.000 A 
ATOM     13  C   UNL     1       1.850  14.843  20.074  0.00  0.00    +0.000 A 
ATOM     14  C   UNL     1      -1.412  14.234  21.114  0.00  0.00    +0.000 C 
ENDROOT
BRANCH  14  15
ATOM     15  C   UNL     1      -1.664  13.183  19.972  0.00  0.00    +0.000 A 
ATOM     16  C   UNL     1      -2.797  12.342  19.926  0.00  0.00    +0.000 A 
ATOM     17  C   UNL     1      -3.084  11.525  18.823  0.00  0.00    +0.000 A 
ATOM     18  C   UNL     1      -2.219  11.488  17.741  0.00  0.00    +0.000 A 
ATOM     19  C   UNL     1      -1.057  12.253  17.784  0.00  0.00    +0.000 A 
ATOM     20  C   UNL     1      -0.775  13.076  18.888  0.00  0.00    +0.000 A 
ENDBRANCH  14  15
BRANCH   1  21
ATOM     21  C   UNL     1      -1.126  12.277  22.835  0.00  0.00    +0.000 C 
ATOM     22  O   UNL     1      -2.230  12.066  23.323  0.00  0.00    +0.000 OA
BRANCH  21  23
ATOM     23  O   UNL     1      -0.152  11.330  22.696  0.00  0.00    +0.000 OA
BRANCH  23  25
ATOM     24  C   UNL     1       0.638  10.226  20.708  0.00  0.00    +0.000 C 
ATOM     25  C   UNL     1      -0.432  10.252  21.791  0.00  0.00    +0.000 C 
ATOM     26  C   UNL     1      -0.416   8.953  22.587  0.00  0.00    +0.000 C 
ENDBRANCH  23  25
ENDBRANCH  21  23
ENDBRANCH   1  21
BRANCH   1  27
ATOM     27  C   UNL     1      -0.792  14.544  23.534  0.00  0.00    +0.000 C 
ATOM     28  N   UNL     1      -0.912  15.253  24.438  0.00  0.00    +0.000 NA
ENDBRANCH   1  27
TORSDOF 5
ENDMDL
MODEL 7
REMARK VINA RESULT:      -6.2      8.739     10.693
REMARK  Name = 
REMARK  7 active torsions:
REMARK  status: ('A' for Active; 'I' for Inactive)
REMARK    1  A    between atoms: C_1  and  C_2
REMARK    2  A    between atoms: C_2  and  C_3
REMARK    3  A    between atoms: C_2  and  O_4
REMARK    4  A    between atoms: O_4  and  C_5
REMARK    5  A    between atoms: C_5  and  C_7
REMARK    6  A    between atoms: C_7  and  C_8
REMARK    7  A    between atoms: C_22  and  C_23
REMARK                            x       y       z     vdW  Elec       q    Type
REMARK                         _______ _______ _______ _____ _____    ______ ____
ROOT
ATOM      1  C   UNL     1       8.065  16.081  20.703  0.00  0.00    +0.000 C 
ATOM      2  O   UNL     1       9.481  15.692  20.517  0.00  0.00    +0.000 OA
ATOM      3  C   UNL     1       9.358  14.744  19.522  0.00  0.00    +0.000 A 
ATOM      4  C   UNL     1       8.128  14.272  19.339  0.00  0.00    +0.000 A 
ATOM      5  C   UNL     1       7.875  13.794  17.985  0.00  0.00    +0.000 A 
ATOM      6  O   UNL     1       6.813  14.014  17.420  0.00  0.00    +0.000 OA
ATOM      7  O   UNL     1       8.966  13.171  17.353  0.00  0.00    +0.000 OA
ATOM      8  C   UNL     1      10.140  12.949  18.117  0.00  0.00    +0.000 A 
ATOM      9  C   UNL     1      10.904  11.819  17.853  0.00  0.00    +0.000 A 
ATOM     10  C   UNL     1      11.824  11.404  18.818  0.00  0.00    +0.000 A 
ATOM     11  C   UNL     1      11.983  12.124  20.007  0.00  0.00    +0.000 A 
ATOM     12  C   UNL     1      11.287  13.318  20.206  0.00  0.00    +0.000 A 
ATOM     13  C   UNL     1      10.376  13.754  19.238  0.00  0.00    +0.000 A 
ATOM     14  C   UNL     1       7.281  14.741  20.478  0.00  0.00    +0.000 C 
ENDROOT
BRANCH  14  15
ATOM     15  C   UNL     1       7.366  13.753  21.698  0.00  0.00    +0.000 A 
ATOM     16  C   UNL     1       6.397  13.699  22.724  0.00  0.00    +0.000 A 
ATOM     17  C   UNL     1       6.406  12.709  23.717  0.00  0.00    +0.000 A 
ATOM     18  C   UNL     1       7.415  11.761  23.744  0.00  0.00    +0.000 A 
ATOM     19  C   UNL     1       8.424  11.826  22.788  0.00  0.00    +0.000 A 
ATOM     20  C   UNL     1       8.410  12.815  21.790  0.00  0.00    +0.000 A 
ENDBRANCH  14  15
BRANCH   1  21
ATOM     21  C   UNL     1       7.891  16.736  22.067  0.00  0.00    +0.000 C 
ATOM     22  O   UNL     1       6.906  17.385  22.396  0.00  0.00    +0.000 OA
BRANCH  21  23
ATOM     23  O   UNL     1       8.989  16.547  22.858  0.00  0.00    +0.000 OA
BRANCH  23  25
ATOM     24  C   UNL     1       9.070  15.127  24.800  0.00  0.00    +0.000 C 
ATOM     25  C   UNL     1       8.758  16.521  24.274  0.00  0.00    +0.000 C 
ATOM     26  C   UNL     1       9.677  17.551  24.919  0.00  0.00    +0.000 C 
ENDBRANCH  23  25
ENDBRANCH  21  23
ENDBRANCH   1  21
BRANCH   1  27
ATOM     27  C   UNL     1       7.633  17.114  19.715  0.00  0.00    +0.000 C 
ATOM     28  N   UNL     1       7.315  17.910  18.941  0.00  0.00    +0.000 NA
ENDBRANCH   1  27
TORSDOF 5
ENDMDL
MODEL 8
REMARK VINA RESULT:      -6.1      2.179      4.320
REMARK  Name = 
REMARK  7 active torsions:
REMARK  status: ('A' for Active; 'I' for Inactive)
REMARK    1  A    between atoms: C_1  and  C_2
REMARK    2  A    between atoms: C_2  and  C_3
REMARK    3  A    between atoms: C_2  and  O_4
REMARK    4  A    between atoms: O_4  and  C_5
REMARK    5  A    between atoms: C_5  and  C_7
REMARK    6  A    between atoms: C_7  and  C_8
REMARK    7  A    between atoms: C_22  and  C_23
REMARK                            x       y       z     vdW  Elec       q    Type
REMARK                         _______ _______ _______ _____ _____    ______ ____
ROOT
ATOM      1  C   UNL     1      -0.301  13.532  20.229  0.00  0.00    +0.000 C 
ATOM      2  O   UNL     1      -1.537  14.314  20.456  0.00  0.00    +0.000 OA
ATOM      3  C   UNL     1      -2.149  13.550  21.429  0.00  0.00    +0.000 A 
ATOM      4  C   UNL     1      -1.672  12.315  21.561  0.00  0.00    +0.000 A 
ATOM      5  C   UNL     1      -1.845  11.756  22.896  0.00  0.00    +0.000 A 
ATOM      6  O   UNL     1      -0.965  11.095  23.429  0.00  0.00    +0.000 OA
ATOM      7  O   UNL     1      -3.033  12.124  23.554  0.00  0.00    +0.000 OA
ATOM      8  C   UNL     1      -3.992  12.874  22.826  0.00  0.00    +0.000 A 
ATOM      9  C   UNL     1      -5.340  12.673  23.096  0.00  0.00    +0.000 A 
ATOM     10  C   UNL     1      -6.274  13.113  22.156  0.00  0.00    +0.000 A 
ATOM     11  C   UNL     1      -5.856  13.758  20.986  0.00  0.00    +0.000 A 
ATOM     12  C   UNL     1      -4.506  14.050  20.786  0.00  0.00    +0.000 A 
ATOM     13  C   UNL     1      -3.563  13.631  21.729  0.00  0.00    +0.000 A 
ATOM     14  C   UNL     1      -0.768  12.044  20.403  0.00  0.00    +0.000 C 
ENDROOT
BRANCH  14  15
ATOM     15  C   UNL     1      -1.569  11.491  19.168  0.00  0.00    +0.000 A 
ATOM     16  C   UNL     1      -1.038  10.558  18.251  0.00  0.00    +0.000 A 
ATOM     17  C   UNL     1      -1.816   9.958  17.250  0.00  0.00    +0.000 A 
ATOM     18  C   UNL     1      -3.149  10.307  17.105  0.00  0.00    +0.000 A 
ATOM     19  C   UNL     1      -3.687  11.273  17.949  0.00  0.00    +0.000 A 
ATOM     20  C   UNL     1      -2.907  11.868  18.954  0.00  0.00    +0.000 A 
ENDBRANCH  14  15
BRANCH   1  21
ATOM     21  C   UNL     1       0.289  13.892  18.872  0.00  0.00    +0.000 C 
ATOM     22  O   UNL     1       1.223  13.297  18.349  0.00  0.00    +0.000 OA
BRANCH  21  23
ATOM     23  O   UNL     1      -0.324  14.988  18.334  0.00  0.00    +0.000 OA
BRANCH  23  25
ATOM     24  C   UNL     1       1.636  16.384  18.415  0.00  0.00    +0.000 C 
ATOM     25  C   UNL     1       0.160  16.268  18.768  0.00  0.00    +0.000 C 
ATOM     26  C   UNL     1      -0.645  17.344  18.050  0.00  0.00    +0.000 C 
ENDBRANCH  23  25
ENDBRANCH  21  23
ENDBRANCH   1  21
BRANCH   1  27
ATOM     27  C   UNL     1       0.764  13.866  21.220  0.00  0.00    +0.000 C 
ATOM     28  N   UNL     1       1.578  14.117  22.001  0.00  0.00    +0.000 NA
ENDBRANCH   1  27
TORSDOF 5
ENDMDL
MODEL 9
REMARK VINA RESULT:      -6.1      2.141      4.941
REMARK  Name = 
REMARK  7 active torsions:
REMARK  status: ('A' for Active; 'I' for Inactive)
REMARK    1  A    between atoms: C_1  and  C_2
REMARK    2  A    between atoms: C_2  and  C_3
REMARK    3  A    between atoms: C_2  and  O_4
REMARK    4  A    between atoms: O_4  and  C_5
REMARK    5  A    between atoms: C_5  and  C_7
REMARK    6  A    between atoms: C_7  and  C_8
REMARK    7  A    between atoms: C_22  and  C_23
REMARK                            x       y       z     vdW  Elec       q    Type
REMARK                         _______ _______ _______ _____ _____    ______ ____
ROOT
ATOM      1  C   UNL     1      -0.866  13.551  19.871  0.00  0.00    +0.000 C 
ATOM      2  O   UNL     1      -2.235  13.562  20.432  0.00  0.00    +0.000 OA
ATOM      3  C   UNL     1      -1.992  14.067  21.693  0.00  0.00    +0.000 A 
ATOM      4  C   UNL     1      -0.720  14.031  22.081  0.00  0.00    +0.000 A 
ATOM      5  C   UNL     1      -0.371  15.059  23.054  0.00  0.00    +0.000 A 
ATOM      6  O   UNL     1       0.692  15.660  22.992  0.00  0.00    +0.000 OA
ATOM      7  O   UNL     1      -1.379  15.375  23.982  0.00  0.00    +0.000 OA
ATOM      8  C   UNL     1      -2.561  14.593  23.974  0.00  0.00    +0.000 A 
ATOM      9  C   UNL     1      -3.217  14.362  25.178  0.00  0.00    +0.000 A 
ATOM     10  C   UNL     1      -4.139  13.314  25.236  0.00  0.00    +0.000 A 
ATOM     11  C   UNL     1      -4.407  12.537  24.104  0.00  0.00    +0.000 A 
ATOM     12  C   UNL     1      -3.822  12.855  22.877  0.00  0.00    +0.000 A 
ATOM     13  C   UNL     1      -2.911  13.913  22.801  0.00  0.00    +0.000 A 
ATOM     14  C   UNL     1       0.036  13.190  21.103  0.00  0.00    +0.000 C 
ENDROOT
BRANCH  14  15
ATOM     15  C   UNL     1      -0.018  11.669  21.495  0.00  0.00    +0.000 A 
ATOM     16  C   UNL     1       0.659  10.657  20.780  0.00  0.00    +0.000 A 
ATOM     17  C   UNL     1       0.729   9.332  21.233  0.00  0.00    +0.000 A 
ATOM     18  C   UNL     1       0.082   8.962  22.401  0.00  0.00    +0.000 A 
ATOM     19  C   UNL     1      -0.652   9.919  23.095  0.00  0.00    +0.000 A 
ATOM     20  C   UNL     1      -0.715  11.248  22.642  0.00  0.00    +0.000 A 
ENDBRANCH  14  15
BRANCH   1  21
ATOM     21  C   UNL     1      -0.805  12.586  18.694  0.00  0.00    +0.000 C 
ATOM     22  O   UNL     1       0.096  12.571  17.864  0.00  0.00    +0.000 OA
BRANCH  21  23
ATOM     23  O   UNL     1      -1.901  11.773  18.654  0.00  0.00    +0.000 OA
BRANCH  23  25
ATOM     24  C   UNL     1      -1.950   9.945  17.089  0.00  0.00    +0.000 C 
ATOM     25  C   UNL     1      -2.363  11.386  17.351  0.00  0.00    +0.000 C 
ATOM     26  C   UNL     1      -3.881  11.517  17.333  0.00  0.00    +0.000 C 
ENDBRANCH  23  25
ENDBRANCH  21  23
ENDBRANCH   1  21
BRANCH   1  27
ATOM     27  C   UNL     1      -0.480  14.879  19.309  0.00  0.00    +0.000 C 
ATOM     28  N   UNL     1      -0.163  15.903  18.879  0.00  0.00    +0.000 NA
ENDBRANCH   1  27
TORSDOF 5
ENDMDL
