MODEL 1
REMARK VINA RESULT:      -8.7      0.000      0.000
REMARK  Name = 
REMARK  4 active torsions:
REMARK  status: ('A' for Active; 'I' for Inactive)
REMARK    1  A    between atoms: O_1  and  C_2
REMARK    2  A    between atoms: C_8  and  C_9
REMARK    3  A    between atoms: N_17  and  C_18
REMARK    4  A    between atoms: C_18  and  C_19
REMARK                            x       y       z     vdW  Elec       q    Type
REMARK                         _______ _______ _______ _____ _____    ______ ____
ROOT
ATOM      1  C   UNL     1       4.062   3.743  18.643  0.00  0.00    +0.000 A 
ATOM      2  N   UNL     1       3.317   4.347  19.509  0.00  0.00    +0.000 NA
ATOM      3  C   UNL     1       2.974   5.664  19.199  0.00  0.00    +0.000 A 
ATOM      4  C   UNL     1       3.393   6.345  18.102  0.00  0.00    +0.000 A 
ATOM      5  C   UNL     1       4.262   5.656  17.204  0.00  0.00    +0.000 A 
ATOM      6  N   UNL     1       4.896   6.002  16.108  0.00  0.00    +0.000 NA
ATOM      7  C   UNL     1       5.504   4.831  15.720  0.00  0.00    +0.000 A 
ATOM      8  N   UNL     1       5.304   3.781  16.528  0.00  0.00    +0.000 NA
ATOM      9  N   UNL     1       4.538   4.346  17.488  0.00  0.00    +0.000 N 
ATOM     10  C   UNL     1       2.931   7.768  17.836  0.00  0.00    +0.000 C 
ATOM     11  N   UNL     1       1.778   8.215  18.647  0.00  0.00    +0.000 NA
ATOM     12  C   UNL     1       1.994   7.855  20.055  0.00  0.00    +0.000 C 
ATOM     13  C   UNL     1       2.065   6.330  20.207  0.00  0.00    +0.000 C 
ENDROOT
BRANCH   7  14
ATOM     14  C   UNL     1       6.308   4.725  14.484  0.00  0.00    +0.000 A 
ATOM     15  C   UNL     1       6.074   3.906  13.402  0.00  0.00    +0.000 A 
ATOM     16  C   UNL     1       7.116   4.137  12.469  0.00  0.00    +0.000 A 
ATOM     17  C   UNL     1       7.958   5.081  13.015  0.00  0.00    +0.000 A 
ATOM     18  N   UNL     1       7.446   5.446  14.234  0.00  0.00    +0.000 N 
ATOM     19  H   UNL     1       7.844   6.118  14.880  0.00  0.00    +0.000 HD
ENDBRANCH   7  14
BRANCH   1  20
ATOM     20  O   UNL     1       4.458   2.469  18.813  0.00  0.00    +0.000 OA
ATOM     21  H   UNL     1       3.793   1.893  18.402  0.00  0.00    +0.000 HD
ENDBRANCH   1  20
BRANCH  11  22
ATOM     22  C   UNL     1       1.595   9.667  18.458  0.00  0.00    +0.000 C 
BRANCH  22  23
ATOM     23  C   UNL     1       0.157  10.140  18.480  0.00  0.00    +0.000 A 
ATOM     24  C   UNL     1      -0.256  11.097  19.421  0.00  0.00    +0.000 A 
ATOM     25  C   UNL     1      -1.567  11.574  19.423  0.00  0.00    +0.000 A 
ATOM     26  C   UNL     1      -2.481  11.103  18.484  0.00  0.00    +0.000 A 
ATOM     27  C   UNL     1      -2.087  10.146  17.549  0.00  0.00    +0.000 A 
ATOM     28  C   UNL     1      -0.775   9.665  17.547  0.00  0.00    +0.000 A 
ENDBRANCH  22  23
ENDBRANCH  11  22
TORSDOF 4
ENDMDL
MODEL 2
REMARK VINA RESULT:      -8.4      0.955      1.432
REMARK  Name = 
REMARK  4 active torsions:
REMARK  status: ('A' for Active; 'I' for Inactive)
REMARK    1  A    between atoms: O_1  and  C_2
REMARK    2  A    between atoms: C_8  and  C_9
REMARK    3  A    between atoms: N_17  and  C_18
REMARK    4  A    between atoms: C_18  and  C_19
REMARK                            x       y       z     vdW  Elec       q    Type
REMARK                         _______ _______ _______ _____ _____    ______ ____
ROOT
ATOM      1  C   UNL     1       3.555   4.494  19.650  0.00  0.00    +0.000 A 
ATOM      2  N   UNL     1       2.784   5.195  20.414  0.00  0.00    +0.000 NA
ATOM      3  C   UNL     1       2.405   6.441  19.913  0.00  0.00    +0.000 A 
ATOM      4  C   UNL     1       2.814   6.967  18.729  0.00  0.00    +0.000 A 
ATOM      5  C   UNL     1       3.712   6.180  17.947  0.00  0.00    +0.000 A 
ATOM      6  N   UNL     1       4.346   6.382  16.815  0.00  0.00    +0.000 NA
ATOM      7  C   UNL     1       4.993   5.186  16.607  0.00  0.00    +0.000 A 
ATOM      8  N   UNL     1       4.816   4.260  17.559  0.00  0.00    +0.000 NA
ATOM      9  N   UNL     1       4.024   4.936  18.421  0.00  0.00    +0.000 N 
ATOM     10  C   UNL     1       2.313   8.321  18.256  0.00  0.00    +0.000 C 
ATOM     11  N   UNL     1       1.139   8.846  18.986  0.00  0.00    +0.000 NA
ATOM     12  C   UNL     1       1.352   8.702  20.432  0.00  0.00    +0.000 C 
ATOM     13  C   UNL     1       1.466   7.219  20.807  0.00  0.00    +0.000 C 
ENDROOT
BRANCH   7  14
ATOM     14  C   UNL     1       5.811   4.925  15.404  0.00  0.00    +0.000 A 
ATOM     15  C   UNL     1       5.529   4.057  14.373  0.00  0.00    +0.000 A 
ATOM     16  C   UNL     1       6.608   4.131  13.456  0.00  0.00    +0.000 A 
ATOM     17  C   UNL     1       7.519   5.032  13.963  0.00  0.00    +0.000 A 
ATOM     18  N   UNL     1       7.015   5.524  15.140  0.00  0.00    +0.000 N 
ATOM     19  H   UNL     1       7.457   6.201  15.750  0.00  0.00    +0.000 HD
ENDBRANCH   7  14
BRANCH   1  20
ATOM     20  O   UNL     1       3.987   3.271  20.008  0.00  0.00    +0.000 OA
ATOM     21  H   UNL     1       4.301   3.323  20.925  0.00  0.00    +0.000 HD
ENDBRANCH   1  20
BRANCH  11  22
ATOM     22  C   UNL     1       0.915  10.248  18.585  0.00  0.00    +0.000 C 
BRANCH  22  23
ATOM     23  C   UNL     1      -0.538  10.651  18.449  0.00  0.00    +0.000 A 
ATOM     24  C   UNL     1      -1.367  10.000  17.522  0.00  0.00    +0.000 A 
ATOM     25  C   UNL     1      -2.719  10.331  17.419  0.00  0.00    +0.000 A 
ATOM     26  C   UNL     1      -3.259  11.316  18.242  0.00  0.00    +0.000 A 
ATOM     27  C   UNL     1      -2.446  11.978  19.161  0.00  0.00    +0.000 A 
ATOM     28  C   UNL     1      -1.091  11.649  19.264  0.00  0.00    +0.000 A 
ENDBRANCH  22  23
ENDBRANCH  11  22
TORSDOF 4
ENDMDL
MODEL 3
REMARK VINA RESULT:      -8.3      0.491      1.064
REMARK  Name = 
REMARK  4 active torsions:
REMARK  status: ('A' for Active; 'I' for Inactive)
REMARK    1  A    between atoms: O_1  and  C_2
REMARK    2  A    between atoms: C_8  and  C_9
REMARK    3  A    between atoms: N_17  and  C_18
REMARK    4  A    between atoms: C_18  and  C_19
REMARK                            x       y       z     vdW  Elec       q    Type
REMARK                         _______ _______ _______ _____ _____    ______ ____
ROOT
ATOM      1  C   UNL     1       3.762   3.203  18.305  0.00  0.00    +0.000 A 
ATOM      2  N   UNL     1       3.047   3.755  19.230  0.00  0.00    +0.000 NA
ATOM      3  C   UNL     1       2.849   5.130  19.103  0.00  0.00    +0.000 A 
ATOM      4  C   UNL     1       3.374   5.911  18.123  0.00  0.00    +0.000 A 
ATOM      5  C   UNL     1       4.204   5.266  17.158  0.00  0.00    +0.000 A 
ATOM      6  N   UNL     1       4.911   5.694  16.137  0.00  0.00    +0.000 NA
ATOM      7  C   UNL     1       5.414   4.531  15.601  0.00  0.00    +0.000 A 
ATOM      8  N   UNL     1       5.080   3.406  16.247  0.00  0.00    +0.000 NA
ATOM      9  N   UNL     1       4.338   3.909  17.259  0.00  0.00    +0.000 N 
ATOM     10  C   UNL     1       3.066   7.397  18.052  0.00  0.00    +0.000 C 
ATOM     11  N   UNL     1       1.933   7.843  18.891  0.00  0.00    +0.000 NA
ATOM     12  C   UNL     1       2.058   7.271  20.237  0.00  0.00    +0.000 C 
ATOM     13  C   UNL     1       1.972   5.740  20.173  0.00  0.00    +0.000 C 
ENDROOT
BRANCH   7  14
ATOM     14  C   UNL     1       6.250   4.516  14.382  0.00  0.00    +0.000 A 
ATOM     15  C   UNL     1       6.072   3.744  13.256  0.00  0.00    +0.000 A 
ATOM     16  C   UNL     1       7.126   4.057  12.362  0.00  0.00    +0.000 A 
ATOM     17  C   UNL     1       7.920   5.003  12.975  0.00  0.00    +0.000 A 
ATOM     18  N   UNL     1       7.367   5.288  14.197  0.00  0.00    +0.000 N 
ATOM     19  H   UNL     1       7.725   5.941  14.884  0.00  0.00    +0.000 HD
ENDBRANCH   7  14
BRANCH   1  20
ATOM     20  O   UNL     1       4.022   1.884  18.302  0.00  0.00    +0.000 OA
ATOM     21  H   UNL     1       3.257   1.428  18.688  0.00  0.00    +0.000 HD
ENDBRANCH   1  20
BRANCH  11  22
ATOM     22  C   UNL     1       1.902   9.319  18.905  0.00  0.00    +0.000 C 
BRANCH  22  23
ATOM     23  C   UNL     1       0.530   9.933  18.723  0.00  0.00    +0.000 A 
ATOM     24  C   UNL     1      -0.281   9.539  17.648  0.00  0.00    +0.000 A 
ATOM     25  C   UNL     1      -1.565  10.064  17.494  0.00  0.00    +0.000 A 
ATOM     26  C   UNL     1      -2.054  10.987  18.416  0.00  0.00    +0.000 A 
ATOM     27  C   UNL     1      -1.256  11.394  19.484  0.00  0.00    +0.000 A 
ATOM     28  C   UNL     1       0.031  10.871  19.637  0.00  0.00    +0.000 A 
ENDBRANCH  22  23
ENDBRANCH  11  22
TORSDOF 4
ENDMDL
MODEL 4
REMARK VINA RESULT:      -8.0      1.041      1.353
REMARK  Name = 
REMARK  4 active torsions:
REMARK  status: ('A' for Active; 'I' for Inactive)
REMARK    1  A    between atoms: O_1  and  C_2
REMARK    2  A    between atoms: C_8  and  C_9
REMARK    3  A    between atoms: N_17  and  C_18
REMARK    4  A    between atoms: C_18  and  C_19
REMARK                            x       y       z     vdW  Elec       q    Type
REMARK                         _______ _______ _______ _____ _____    ______ ____
ROOT
ATOM      1  C   UNL     1       4.462   4.105  18.843  0.00  0.00    +0.000 A 
ATOM      2  N   UNL     1       3.699   4.737  19.673  0.00  0.00    +0.000 NA
ATOM      3  C   UNL     1       3.201   5.961  19.227  0.00  0.00    +0.000 A 
ATOM      4  C   UNL     1       3.488   6.534  18.029  0.00  0.00    +0.000 A 
ATOM      5  C   UNL     1       4.381   5.826  17.170  0.00  0.00    +0.000 A 
ATOM      6  N   UNL     1       4.918   6.091  16.002  0.00  0.00    +0.000 NA
ATOM      7  C   UNL     1       5.630   4.947  15.723  0.00  0.00    +0.000 A 
ATOM      8  N   UNL     1       5.585   3.995  16.666  0.00  0.00    +0.000 NA
ATOM      9  N   UNL     1       4.811   4.599  17.595  0.00  0.00    +0.000 N 
ATOM     10  C   UNL     1       2.862   7.857  17.621  0.00  0.00    +0.000 C 
ATOM     11  N   UNL     1       1.709   8.285  18.441  0.00  0.00    +0.000 NA
ATOM     12  C   UNL     1       2.032   8.133  19.866  0.00  0.00    +0.000 C 
ATOM     13  C   UNL     1       2.275   6.656  20.200  0.00  0.00    +0.000 C 
ENDROOT
BRANCH   7  14
ATOM     14  C   UNL     1       6.378   4.765  14.462  0.00  0.00    +0.000 A 
ATOM     15  C   UNL     1       6.100   3.878  13.446  0.00  0.00    +0.000 A 
ATOM     16  C   UNL     1       7.098   4.052  12.453  0.00  0.00    +0.000 A 
ATOM     17  C   UNL     1       7.959   5.031  12.900  0.00  0.00    +0.000 A 
ATOM     18  N   UNL     1       7.500   5.472  14.116  0.00  0.00    +0.000 N 
ATOM     19  H   UNL     1       7.923   6.184  14.699  0.00  0.00    +0.000 HD
ENDBRANCH   7  14
BRANCH   1  20
ATOM     20  O   UNL     1       5.001   2.910  19.143  0.00  0.00    +0.000 OA
ATOM     21  H   UNL     1       4.523   2.551  19.909  0.00  0.00    +0.000 HD
ENDBRANCH   1  20
BRANCH  11  22
ATOM     22  C   UNL     1       1.361   9.675  18.087  0.00  0.00    +0.000 C 
BRANCH  22  23
ATOM     23  C   UNL     1       0.796  10.503  19.222  0.00  0.00    +0.000 A 
ATOM     24  C   UNL     1       1.433  11.692  19.612  0.00  0.00    +0.000 A 
ATOM     25  C   UNL     1       0.898  12.487  20.626  0.00  0.00    +0.000 A 
ATOM     26  C   UNL     1      -0.282  12.106  21.260  0.00  0.00    +0.000 A 
ATOM     27  C   UNL     1      -0.921  10.924  20.889  0.00  0.00    +0.000 A 
ATOM     28  C   UNL     1      -0.385  10.124  19.876  0.00  0.00    +0.000 A 
ENDBRANCH  22  23
ENDBRANCH  11  22
TORSDOF 4
ENDMDL
MODEL 5
REMARK VINA RESULT:      -7.8      0.751      1.329
REMARK  Name = 
REMARK  4 active torsions:
REMARK  status: ('A' for Active; 'I' for Inactive)
REMARK    1  A    between atoms: O_1  and  C_2
REMARK    2  A    between atoms: C_8  and  C_9
REMARK    3  A    between atoms: N_17  and  C_18
REMARK    4  A    between atoms: C_18  and  C_19
REMARK                            x       y       z     vdW  Elec       q    Type
REMARK                         _______ _______ _______ _____ _____    ______ ____
ROOT
ATOM      1  C   UNL     1       4.114   3.733  18.495  0.00  0.00    +0.000 A 
ATOM      2  N   UNL     1       3.402   4.393  19.348  0.00  0.00    +0.000 NA
ATOM      3  C   UNL     1       3.074   5.699  18.981  0.00  0.00    +0.000 A 
ATOM      4  C   UNL     1       3.476   6.317  17.841  0.00  0.00    +0.000 A 
ATOM      5  C   UNL     1       4.310   5.568  16.958  0.00  0.00    +0.000 A 
ATOM      6  N   UNL     1       4.921   5.848  15.830  0.00  0.00    +0.000 NA
ATOM      7  C   UNL     1       5.499   4.647  15.486  0.00  0.00    +0.000 A 
ATOM      8  N   UNL     1       5.302   3.643  16.351  0.00  0.00    +0.000 NA
ATOM      9  N   UNL     1       4.570   4.269  17.300  0.00  0.00    +0.000 N 
ATOM     10  C   UNL     1       3.032   7.733  17.516  0.00  0.00    +0.000 C 
ATOM     11  N   UNL     1       1.908   8.241  18.331  0.00  0.00    +0.000 NA
ATOM     12  C   UNL     1       2.153   7.947  19.749  0.00  0.00    +0.000 C 
ATOM     13  C   UNL     1       2.202   6.431  19.976  0.00  0.00    +0.000 C 
ENDROOT
BRANCH   7  14
ATOM     14  C   UNL     1       6.269   4.466  14.238  0.00  0.00    +0.000 A 
ATOM     15  C   UNL     1       7.400   5.147  13.847  0.00  0.00    +0.000 A 
ATOM     16  C   UNL     1       7.772   4.646  12.574  0.00  0.00    +0.000 A 
ATOM     17  C   UNL     1       6.850   3.683  12.224  0.00  0.00    +0.000 A 
ATOM     18  N   UNL     1       5.950   3.568  13.253  0.00  0.00    +0.000 N 
ATOM     19  H   UNL     1       5.150   2.947  13.290  0.00  0.00    +0.000 HD
ENDBRANCH   7  14
BRANCH   1  20
ATOM     20  O   UNL     1       4.492   2.462  18.720  0.00  0.00    +0.000 OA
ATOM     21  H   UNL     1       3.698   1.905  18.686  0.00  0.00    +0.000 HD
ENDBRANCH   1  20
BRANCH  11  22
ATOM     22  C   UNL     1       1.745   9.685  18.074  0.00  0.00    +0.000 C 
BRANCH  22  23
ATOM     23  C   UNL     1       0.537  10.321  18.730  0.00  0.00    +0.000 A 
ATOM     24  C   UNL     1      -0.703  10.323  18.072  0.00  0.00    +0.000 A 
ATOM     25  C   UNL     1      -1.833  10.866  18.684  0.00  0.00    +0.000 A 
ATOM     26  C   UNL     1      -1.738  11.410  19.963  0.00  0.00    +0.000 A 
ATOM     27  C   UNL     1      -0.512  11.422  20.625  0.00  0.00    +0.000 A 
ATOM     28  C   UNL     1       0.622  10.882  20.012  0.00  0.00    +0.000 A 
ENDBRANCH  22  23
ENDBRANCH  11  22
TORSDOF 4
ENDMDL
MODEL 6
REMARK VINA RESULT:      -7.7      1.357      1.890
REMARK  Name = 
REMARK  4 active torsions:
REMARK  status: ('A' for Active; 'I' for Inactive)
REMARK    1  A    between atoms: O_1  and  C_2
REMARK    2  A    between atoms: C_8  and  C_9
REMARK    3  A    between atoms: N_17  and  C_18
REMARK    4  A    between atoms: C_18  and  C_19
REMARK                            x       y       z     vdW  Elec       q    Type
REMARK                         _______ _______ _______ _____ _____    ______ ____
ROOT
ATOM      1  C   UNL     1       3.805   2.895  18.279  0.00  0.00    +0.000 A 
ATOM      2  N   UNL     1       3.078   3.364  19.239  0.00  0.00    +0.000 NA
ATOM      3  C   UNL     1       2.838   4.738  19.200  0.00  0.00    +0.000 A 
ATOM      4  C   UNL     1       3.337   5.596  18.272  0.00  0.00    +0.000 A 
ATOM      5  C   UNL     1       4.183   5.040  17.266  0.00  0.00    +0.000 A 
ATOM      6  N   UNL     1       4.874   5.553  16.275  0.00  0.00    +0.000 NA
ATOM      7  C   UNL     1       5.410   4.443  15.664  0.00  0.00    +0.000 A 
ATOM      8  N   UNL     1       5.111   3.268  16.237  0.00  0.00    +0.000 NA
ATOM      9  N   UNL     1       4.357   3.683  17.280  0.00  0.00    +0.000 N 
ATOM     10  C   UNL     1       2.985   7.073  18.297  0.00  0.00    +0.000 C 
ATOM     11  N   UNL     1       1.842   7.431  19.164  0.00  0.00    +0.000 NA
ATOM     12  C   UNL     1       1.988   6.777  20.471  0.00  0.00    +0.000 C 
ATOM     13  C   UNL     1       1.947   5.252  20.308  0.00  0.00    +0.000 C 
ENDROOT
BRANCH   7  14
ATOM     14  C   UNL     1       6.242   4.530  14.446  0.00  0.00    +0.000 A 
ATOM     15  C   UNL     1       6.086   3.823  13.275  0.00  0.00    +0.000 A 
ATOM     16  C   UNL     1       7.127   4.227  12.400  0.00  0.00    +0.000 A 
ATOM     17  C   UNL     1       7.891   5.159  13.070  0.00  0.00    +0.000 A 
ATOM     18  N   UNL     1       7.331   5.350  14.308  0.00  0.00    +0.000 N 
ATOM     19  H   UNL     1       7.670   5.970  15.034  0.00  0.00    +0.000 HD
ENDBRANCH   7  14
BRANCH   1  20
ATOM     20  O   UNL     1       4.105   1.587  18.191  0.00  0.00    +0.000 OA
ATOM     21  H   UNL     1       3.350   1.084  18.538  0.00  0.00    +0.000 HD
ENDBRANCH   1  20
BRANCH  11  22
ATOM     22  C   UNL     1       1.767   8.901  19.273  0.00  0.00    +0.000 C 
BRANCH  22  23
ATOM     23  C   UNL     1       0.913   9.416  20.413  0.00  0.00    +0.000 A 
ATOM     24  C   UNL     1       1.124   8.947  21.719  0.00  0.00    +0.000 A 
ATOM     25  C   UNL     1       0.374   9.447  22.785  0.00  0.00    +0.000 A 
ATOM     26  C   UNL     1      -0.593  10.424  22.558  0.00  0.00    +0.000 A 
ATOM     27  C   UNL     1      -0.818  10.892  21.265  0.00  0.00    +0.000 A 
ATOM     28  C   UNL     1      -0.071  10.391  20.196  0.00  0.00    +0.000 A 
ENDBRANCH  22  23
ENDBRANCH  11  22
TORSDOF 4
ENDMDL
MODEL 7
REMARK VINA RESULT:      -7.5      1.341      2.073
REMARK  Name = 
REMARK  4 active torsions:
REMARK  status: ('A' for Active; 'I' for Inactive)
REMARK    1  A    between atoms: O_1  and  C_2
REMARK    2  A    between atoms: C_8  and  C_9
REMARK    3  A    between atoms: N_17  and  C_18
REMARK    4  A    between atoms: C_18  and  C_19
REMARK                            x       y       z     vdW  Elec       q    Type
REMARK                         _______ _______ _______ _____ _____    ______ ____
ROOT
ATOM      1  C   UNL     1       2.838   4.754  20.088  0.00  0.00    +0.000 A 
ATOM      2  N   UNL     1       2.095   5.530  20.808  0.00  0.00    +0.000 NA
ATOM      3  C   UNL     1       1.875   6.807  20.291  0.00  0.00    +0.000 A 
ATOM      4  C   UNL     1       2.406   7.288  19.137  0.00  0.00    +0.000 A 
ATOM      5  C   UNL     1       3.267   6.415  18.407  0.00  0.00    +0.000 A 
ATOM      6  N   UNL     1       3.986   6.551  17.317  0.00  0.00    +0.000 NA
ATOM      7  C   UNL     1       4.521   5.295  17.142  0.00  0.00    +0.000 A 
ATOM      8  N   UNL     1       4.194   4.393  18.077  0.00  0.00    +0.000 NA
ATOM      9  N   UNL     1       3.423   5.146  18.893  0.00  0.00    +0.000 N 
ATOM     10  C   UNL     1       2.073   8.685  18.641  0.00  0.00    +0.000 C 
ATOM     11  N   UNL     1       0.916   9.326  19.301  0.00  0.00    +0.000 NA
ATOM     12  C   UNL     1       1.023   9.163  20.757  0.00  0.00    +0.000 C 
ATOM     13  C   UNL     1       0.966   7.676  21.130  0.00  0.00    +0.000 C 
ENDROOT
BRANCH   7  14
ATOM     14  C   UNL     1       5.382   4.953  15.990  0.00  0.00    +0.000 A 
ATOM     15  C   UNL     1       5.552   3.714  15.414  0.00  0.00    +0.000 A 
ATOM     16  C   UNL     1       6.482   3.869  14.355  0.00  0.00    +0.000 A 
ATOM     17  C   UNL     1       6.858   5.195  14.327  0.00  0.00    +0.000 A 
ATOM     18  N   UNL     1       6.167   5.849  15.314  0.00  0.00    +0.000 N 
ATOM     19  H   UNL     1       6.233   6.833  15.547  0.00  0.00    +0.000 HD
ENDBRANCH   7  14
BRANCH   1  20
ATOM     20  O   UNL     1       3.122   3.494  20.465  0.00  0.00    +0.000 OA
ATOM     21  H   UNL     1       2.289   2.995  20.488  0.00  0.00    +0.000 HD
ENDBRANCH   1  20
BRANCH  11  22
ATOM     22  C   UNL     1       0.858  10.743  18.894  0.00  0.00    +0.000 C 
BRANCH  22  23
ATOM     23  C   UNL     1      -0.461  11.436  19.169  0.00  0.00    +0.000 A 
ATOM     24  C   UNL     1      -1.620  11.042  18.482  0.00  0.00    +0.000 A 
ATOM     25  C   UNL     1      -2.849  11.641  18.758  0.00  0.00    +0.000 A 
ATOM     26  C   UNL     1      -2.935  12.640  19.726  0.00  0.00    +0.000 A 
ATOM     27  C   UNL     1      -1.791  13.047  20.409  0.00  0.00    +0.000 A 
ATOM     28  C   UNL     1      -0.558  12.450  20.132  0.00  0.00    +0.000 A 
ENDBRANCH  22  23
ENDBRANCH  11  22
TORSDOF 4
ENDMDL
MODEL 8
REMARK VINA RESULT:      -7.5      1.302      1.842
REMARK  Name = 
REMARK  4 active torsions:
REMARK  status: ('A' for Active; 'I' for Inactive)
REMARK    1  A    between atoms: O_1  and  C_2
REMARK    2  A    between atoms: C_8  and  C_9
REMARK    3  A    between atoms: N_17  and  C_18
REMARK    4  A    between atoms: C_18  and  C_19
REMARK                            x       y       z     vdW  Elec       q    Type
REMARK                         _______ _______ _______ _____ _____    ______ ____
ROOT
ATOM      1  C   UNL     1       2.946   4.850  19.888  0.00  0.00    +0.000 A 
ATOM      2  N   UNL     1       2.208   5.627  20.611  0.00  0.00    +0.000 NA
ATOM      3  C   UNL     1       1.982   6.903  20.092  0.00  0.00    +0.000 A 
ATOM      4  C   UNL     1       2.504   7.381  18.933  0.00  0.00    +0.000 A 
ATOM      5  C   UNL     1       3.360   6.507  18.199  0.00  0.00    +0.000 A 
ATOM      6  N   UNL     1       4.071   6.641  17.103  0.00  0.00    +0.000 NA
ATOM      7  C   UNL     1       4.606   5.386  16.927  0.00  0.00    +0.000 A 
ATOM      8  N   UNL     1       4.287   4.486  17.867  0.00  0.00    +0.000 NA
ATOM      9  N   UNL     1       3.521   5.240  18.687  0.00  0.00    +0.000 N 
ATOM     10  C   UNL     1       2.165   8.777  18.436  0.00  0.00    +0.000 C 
ATOM     11  N   UNL     1       1.012   9.418  19.104  0.00  0.00    +0.000 NA
ATOM     12  C   UNL     1       1.131   9.259  20.559  0.00  0.00    +0.000 C 
ATOM     13  C   UNL     1       1.078   7.773  20.936  0.00  0.00    +0.000 C 
ENDROOT
BRANCH   7  14
ATOM     14  C   UNL     1       5.458   5.042  15.770  0.00  0.00    +0.000 A 
ATOM     15  C   UNL     1       5.288   3.998  14.888  0.00  0.00    +0.000 A 
ATOM     16  C   UNL     1       6.357   4.056  13.958  0.00  0.00    +0.000 A 
ATOM     17  C   UNL     1       7.151   5.127  14.309  0.00  0.00    +0.000 A 
ATOM     18  N   UNL     1       6.584   5.731  15.402  0.00  0.00    +0.000 N 
ATOM     19  H   UNL     1       6.939   6.541  15.896  0.00  0.00    +0.000 HD
ENDBRANCH   7  14
BRANCH   1  20
ATOM     20  O   UNL     1       3.235   3.592  20.266  0.00  0.00    +0.000 OA
ATOM     21  H   UNL     1       2.400   3.100  20.325  0.00  0.00    +0.000 HD
ENDBRANCH   1  20
BRANCH  11  22
ATOM     22  C   UNL     1       0.949  10.834  18.694  0.00  0.00    +0.000 C 
BRANCH  22  23
ATOM     23  C   UNL     1      -0.226  11.611  19.249  0.00  0.00    +0.000 A 
ATOM     24  C   UNL     1      -0.009  12.687  20.124  0.00  0.00    +0.000 A 
ATOM     25  C   UNL     1      -1.081  13.438  20.607  0.00  0.00    +0.000 A 
ATOM     26  C   UNL     1      -2.382  13.125  20.219  0.00  0.00    +0.000 A 
ATOM     27  C   UNL     1      -2.612  12.054  19.358  0.00  0.00    +0.000 A 
ATOM     28  C   UNL     1      -1.541  11.298  18.876  0.00  0.00    +0.000 A 
ENDBRANCH  22  23
ENDBRANCH  11  22
TORSDOF 4
ENDMDL
MODEL 9
REMARK VINA RESULT:      -7.2      4.221      6.165
REMARK  Name = 
REMARK  4 active torsions:
REMARK  status: ('A' for Active; 'I' for Inactive)
REMARK    1  A    between atoms: O_1  and  C_2
REMARK    2  A    between atoms: C_8  and  C_9
REMARK    3  A    between atoms: N_17  and  C_18
REMARK    4  A    between atoms: C_18  and  C_19
REMARK                            x       y       z     vdW  Elec       q    Type
REMARK                         _______ _______ _______ _____ _____    ______ ____
ROOT
ATOM      1  C   UNL     1       2.239   8.758  18.101  0.00  0.00    +0.000 A 
ATOM      2  N   UNL     1       1.668   9.908  18.257  0.00  0.00    +0.000 NA
ATOM      3  C   UNL     1       0.956  10.073  19.445  0.00  0.00    +0.000 A 
ATOM      4  C   UNL     1       0.793   9.122  20.401  0.00  0.00    +0.000 A 
ATOM      5  C   UNL     1       1.394   7.851  20.157  0.00  0.00    +0.000 A 
ATOM      6  N   UNL     1       1.397   6.708  20.805  0.00  0.00    +0.000 NA
ATOM      7  C   UNL     1       2.226   5.922  20.040  0.00  0.00    +0.000 A 
ATOM      8  N   UNL     1       2.720   6.504  18.938  0.00  0.00    +0.000 NA
ATOM      9  N   UNL     1       2.141   7.723  19.019  0.00  0.00    +0.000 N 
ATOM     10  C   UNL     1       0.028   9.416  21.680  0.00  0.00    +0.000 C 
ATOM     11  N   UNL     1      -0.225  10.848  21.945  0.00  0.00    +0.000 NA
ATOM     12  C   UNL     1      -0.726  11.496  20.726  0.00  0.00    +0.000 C 
ATOM     13  C   UNL     1       0.337  11.442  19.621  0.00  0.00    +0.000 C 
ENDROOT
BRANCH   7  14
ATOM     14  C   UNL     1       2.572   4.534  20.414  0.00  0.00    +0.000 A 
ATOM     15  C   UNL     1       1.958   3.746  21.361  0.00  0.00    +0.000 A 
ATOM     16  C   UNL     1       2.642   2.505  21.382  0.00  0.00    +0.000 A 
ATOM     17  C   UNL     1       3.660   2.580  20.455  0.00  0.00    +0.000 A 
ATOM     18  N   UNL     1       3.595   3.813  19.858  0.00  0.00    +0.000 N 
ATOM     19  H   UNL     1       4.214   4.169  19.139  0.00  0.00    +0.000 HD
ENDBRANCH   7  14
BRANCH   1  20
ATOM     20  O   UNL     1       2.965   8.470  17.006  0.00  0.00    +0.000 OA
ATOM     21  H   UNL     1       2.805   7.539  16.779  0.00  0.00    +0.000 HD
ENDBRANCH   1  20
BRANCH  11  22
ATOM     22  C   UNL     1      -1.166  10.966  23.075  0.00  0.00    +0.000 C 
BRANCH  22  23
ATOM     23  C   UNL     1      -1.882  12.297  23.178  0.00  0.00    +0.000 A 
ATOM     24  C   UNL     1      -3.284  12.348  23.142  0.00  0.00    +0.000 A 
ATOM     25  C   UNL     1      -3.956  13.563  23.280  0.00  0.00    +0.000 A 
ATOM     26  C   UNL     1      -3.235  14.741  23.458  0.00  0.00    +0.000 A 
ATOM     27  C   UNL     1      -1.842  14.707  23.486  0.00  0.00    +0.000 A 
ATOM     28  C   UNL     1      -1.167  13.491  23.345  0.00  0.00    +0.000 A 
ENDBRANCH  22  23
ENDBRANCH  11  22
TORSDOF 4
ENDMDL
