MODEL 1
REMARK VINA RESULT:      -7.5      0.000      0.000
REMARK  Name = 
REMARK  11 active torsions:
REMARK  status: ('A' for Active; 'I' for Inactive)
REMARK    1  A    between atoms: C_1  and  O_2
REMARK    2  A    between atoms: O_2  and  C_3
REMARK    3  A    between atoms: C_6  and  C_7
REMARK    4  A    between atoms: N_9  and  C_10
REMARK    5  A    between atoms: C_10  and  N_12
REMARK    6  A    between atoms: N_12  and  N_13
REMARK    7  A    between atoms: C_14  and  C_16
REMARK    8  A    between atoms: C_19  and  N_20
REMARK    9  A    between atoms: C_21  and  C_23
REMARK   10  A    between atoms: C_23  and  C_24
REMARK   11  A    between atoms: C_23  and  C_25
REMARK                            x       y       z     vdW  Elec       q    Type
REMARK                         _______ _______ _______ _____ _____    ______ ____
ROOT
ATOM      1  N   UNL     1       3.874   5.337  18.860  0.00  0.00    +0.000 N 
ATOM      2  C   UNL     1       4.341   6.111  17.804  0.00  0.00    +0.000 C 
ATOM      3  O   UNL     1       4.391   7.341  17.811  0.00  0.00    +0.000 OA
ATOM      4  H   UNL     1       4.269   4.405  18.981  0.00  0.00    +0.000 HD
ENDROOT
BRANCH   2   5
ATOM      5  C   UNL     1       4.789   5.330  16.618  0.00  0.00    +0.000 A 
ATOM      6  C   UNL     1       5.324   6.000  15.519  0.00  0.00    +0.000 A 
ATOM      7  C   UNL     1       5.789   5.288  14.414  0.00  0.00    +0.000 A 
ATOM      8  C   UNL     1       5.756   3.894  14.372  0.00  0.00    +0.000 A 
ATOM      9  C   UNL     1       5.212   3.220  15.474  0.00  0.00    +0.000 A 
ATOM     10  C   UNL     1       4.739   3.931  16.596  0.00  0.00    +0.000 A 
BRANCH   8  11
ATOM     11  N   UNL     1       6.279   3.152  13.276  0.00  0.00    +0.000 N 
ATOM     12  C   UNL     1       5.608   2.877  12.088  0.00  0.00    +0.000 C 
ATOM     13  O   UNL     1       4.438   3.181  11.851  0.00  0.00    +0.000 OA
ATOM     14  H   UNL     1       7.230   2.817  13.369  0.00  0.00    +0.000 HD
BRANCH  12  15
ATOM     15  C   UNL     1       6.425   2.121  11.036  0.00  0.00    +0.000 C 
ATOM     16  C   UNL     1       7.924   2.369  11.264  0.00  0.00    +0.000 C 
ATOM     17  C   UNL     1       6.155   0.621  11.084  0.00  0.00    +0.000 C 
ENDBRANCH  12  15
ENDBRANCH   8  11
ENDBRANCH   2   5
BRANCH   1  18
ATOM     18  N   UNL     1       3.480   5.973  20.042  0.00  0.00    +0.000 N 
ATOM     19  H   UNL     1       4.208   6.150  20.734  0.00  0.00    +0.000 HD
BRANCH  18  20
ATOM     20  C   UNL     1       2.172   5.883  20.479  0.00  0.00    +0.000 C 
ATOM     21  S   UNL     1       1.402   4.415  20.305  0.00  0.00    +0.000 S 
BRANCH  20  24
ATOM     22  C   UNL     1       1.413   8.275  20.363  0.00  0.00    +0.000 C 
ATOM     23  O   UNL     1       1.744   8.502  19.201  0.00  0.00    +0.000 OA
ATOM     24  N   UNL     1       1.680   7.074  21.019  0.00  0.00    +0.000 N 
ATOM     25  H   UNL     1       1.348   6.952  21.962  0.00  0.00    +0.000 HD
BRANCH  22  29
ATOM     26  C   UNL     1      -0.676  11.289  22.668  0.00  0.00    +0.000 A 
ATOM     27  C   UNL     1      -0.649   9.953  23.053  0.00  0.00    +0.000 A 
ATOM     28  C   UNL     1       0.050   9.016  22.288  0.00  0.00    +0.000 A 
ATOM     29  C   UNL     1       0.721   9.383  21.107  0.00  0.00    +0.000 A 
ATOM     30  C   UNL     1       0.681  10.728  20.718  0.00  0.00    +0.000 A 
ATOM     31  C   UNL     1      -0.019  11.672  21.498  0.00  0.00    +0.000 A 
BRANCH  26  33
ATOM     32  C   UNL     1      -1.416  13.488  23.131  0.00  0.00    +0.000 C 
ATOM     33  O   UNL     1      -1.413  12.108  23.477  0.00  0.00    +0.000 OA
ENDBRANCH  26  33
ENDBRANCH  22  29
ENDBRANCH  20  24
ENDBRANCH  18  20
ENDBRANCH   1  18
TORSDOF 8
ENDMDL
MODEL 2
REMARK VINA RESULT:      -7.5      3.286      4.163
REMARK  Name = 
REMARK  11 active torsions:
REMARK  status: ('A' for Active; 'I' for Inactive)
REMARK    1  A    between atoms: C_1  and  O_2
REMARK    2  A    between atoms: O_2  and  C_3
REMARK    3  A    between atoms: C_6  and  C_7
REMARK    4  A    between atoms: N_9  and  C_10
REMARK    5  A    between atoms: C_10  and  N_12
REMARK    6  A    between atoms: N_12  and  N_13
REMARK    7  A    between atoms: C_14  and  C_16
REMARK    8  A    between atoms: C_19  and  N_20
REMARK    9  A    between atoms: C_21  and  C_23
REMARK   10  A    between atoms: C_23  and  C_24
REMARK   11  A    between atoms: C_23  and  C_25
REMARK                            x       y       z     vdW  Elec       q    Type
REMARK                         _______ _______ _______ _____ _____    ______ ____
ROOT
ATOM      1  N   UNL     1       2.112   7.078  20.120  0.00  0.00    +0.000 N 
ATOM      2  C   UNL     1       2.287   5.734  19.809  0.00  0.00    +0.000 C 
ATOM      3  O   UNL     1       1.793   4.802  20.444  0.00  0.00    +0.000 OA
ATOM      4  H   UNL     1       2.137   7.752  19.357  0.00  0.00    +0.000 HD
ENDROOT
BRANCH   2   5
ATOM      5  C   UNL     1       3.145   5.483  18.618  0.00  0.00    +0.000 A 
ATOM      6  C   UNL     1       3.267   4.185  18.123  0.00  0.00    +0.000 A 
ATOM      7  C   UNL     1       4.031   3.932  16.985  0.00  0.00    +0.000 A 
ATOM      8  C   UNL     1       4.680   4.954  16.293  0.00  0.00    +0.000 A 
ATOM      9  C   UNL     1       4.563   6.259  16.794  0.00  0.00    +0.000 A 
ATOM     10  C   UNL     1       3.793   6.526  17.946  0.00  0.00    +0.000 A 
BRANCH   8  11
ATOM     11  N   UNL     1       5.416   4.720  15.098  0.00  0.00    +0.000 N 
ATOM     12  C   UNL     1       6.802   4.633  15.002  0.00  0.00    +0.000 C 
ATOM     13  O   UNL     1       7.587   4.821  15.931  0.00  0.00    +0.000 OA
ATOM     14  H   UNL     1       4.875   4.583  14.253  0.00  0.00    +0.000 HD
BRANCH  12  15
ATOM     15  C   UNL     1       7.340   4.297  13.609  0.00  0.00    +0.000 C 
ATOM     16  C   UNL     1       6.221   3.686  12.751  0.00  0.00    +0.000 C 
ATOM     17  C   UNL     1       7.890   5.532  12.903  0.00  0.00    +0.000 C 
ENDBRANCH  12  15
ENDBRANCH   8  11
ENDBRANCH   2   5
BRANCH   1  18
ATOM     18  N   UNL     1       1.279   7.421  21.189  0.00  0.00    +0.000 N 
ATOM     19  H   UNL     1       0.576   6.735  21.464  0.00  0.00    +0.000 HD
BRANCH  18  20
ATOM     20  C   UNL     1       1.048   8.750  21.495  0.00  0.00    +0.000 C 
ATOM     21  S   UNL     1       1.915   9.409  22.758  0.00  0.00    +0.000 S 
BRANCH  20  24
ATOM     22  C   UNL     1       0.253   9.820  19.367  0.00  0.00    +0.000 C 
ATOM     23  O   UNL     1       1.341   9.907  18.803  0.00  0.00    +0.000 OA
ATOM     24  N   UNL     1       0.096   9.355  20.673  0.00  0.00    +0.000 N 
ATOM     25  H   UNL     1      -0.833   9.283  21.054  0.00  0.00    +0.000 HD
BRANCH  22  29
ATOM     26  C   UNL     1      -3.282  11.315  17.359  0.00  0.00    +0.000 A 
ATOM     27  C   UNL     1      -2.841  11.843  18.567  0.00  0.00    +0.000 A 
ATOM     28  C   UNL     1      -1.687  11.341  19.173  0.00  0.00    +0.000 A 
ATOM     29  C   UNL     1      -0.955  10.284  18.601  0.00  0.00    +0.000 A 
ATOM     30  C   UNL     1      -1.410   9.749  17.389  0.00  0.00    +0.000 A 
ATOM     31  C   UNL     1      -2.572  10.264  16.777  0.00  0.00    +0.000 A 
BRANCH  26  33
ATOM     32  C   UNL     1      -5.628  11.534  17.576  0.00  0.00    +0.000 C 
ATOM     33  O   UNL     1      -4.436  11.865  16.874  0.00  0.00    +0.000 OA
ENDBRANCH  26  33
ENDBRANCH  22  29
ENDBRANCH  20  24
ENDBRANCH  18  20
ENDBRANCH   1  18
TORSDOF 8
ENDMDL
MODEL 3
REMARK VINA RESULT:      -7.3      3.366      4.426
REMARK  Name = 
REMARK  11 active torsions:
REMARK  status: ('A' for Active; 'I' for Inactive)
REMARK    1  A    between atoms: C_1  and  O_2
REMARK    2  A    between atoms: O_2  and  C_3
REMARK    3  A    between atoms: C_6  and  C_7
REMARK    4  A    between atoms: N_9  and  C_10
REMARK    5  A    between atoms: C_10  and  N_12
REMARK    6  A    between atoms: N_12  and  N_13
REMARK    7  A    between atoms: C_14  and  C_16
REMARK    8  A    between atoms: C_19  and  N_20
REMARK    9  A    between atoms: C_21  and  C_23
REMARK   10  A    between atoms: C_23  and  C_24
REMARK   11  A    between atoms: C_23  and  C_25
REMARK                            x       y       z     vdW  Elec       q    Type
REMARK                         _______ _______ _______ _____ _____    ______ ____
ROOT
ATOM      1  N   UNL     1       2.202   7.160  20.179  0.00  0.00    +0.000 N 
ATOM      2  C   UNL     1       2.234   5.847  19.724  0.00  0.00    +0.000 C 
ATOM      3  O   UNL     1       1.594   4.921  20.223  0.00  0.00    +0.000 OA
ATOM      4  H   UNL     1       2.354   7.905  19.501  0.00  0.00    +0.000 HD
ENDROOT
BRANCH   2   5
ATOM      5  C   UNL     1       3.126   5.621  18.554  0.00  0.00    +0.000 A 
ATOM      6  C   UNL     1       3.337   4.322  18.094  0.00  0.00    +0.000 A 
ATOM      7  C   UNL     1       4.135   4.089  16.975  0.00  0.00    +0.000 A 
ATOM      8  C   UNL     1       4.731   5.133  16.267  0.00  0.00    +0.000 A 
ATOM      9  C   UNL     1       4.525   6.440  16.733  0.00  0.00    +0.000 A 
ATOM     10  C   UNL     1       3.720   6.686  17.865  0.00  0.00    +0.000 A 
BRANCH   8  11
ATOM     11  N   UNL     1       5.501   4.916  15.090  0.00  0.00    +0.000 N 
ATOM     12  C   UNL     1       6.873   4.685  15.049  0.00  0.00    +0.000 C 
ATOM     13  O   UNL     1       7.623   4.709  16.025  0.00  0.00    +0.000 OA
ATOM     14  H   UNL     1       4.995   4.907  14.213  0.00  0.00    +0.000 HD
BRANCH  12  15
ATOM     15  C   UNL     1       7.447   4.404  13.657  0.00  0.00    +0.000 C 
ATOM     16  C   UNL     1       6.353   3.818  12.751  0.00  0.00    +0.000 C 
ATOM     17  C   UNL     1       8.003   5.669  13.011  0.00  0.00    +0.000 C 
ENDBRANCH  12  15
ENDBRANCH   8  11
ENDBRANCH   2   5
BRANCH   1  18
ATOM     18  N   UNL     1       1.353   7.487  21.241  0.00  0.00    +0.000 N 
ATOM     19  H   UNL     1       0.673   6.780  21.522  0.00  0.00    +0.000 HD
BRANCH  18  20
ATOM     20  C   UNL     1       1.073   8.811  21.528  0.00  0.00    +0.000 C 
ATOM     21  S   UNL     1       1.852   9.494  22.834  0.00  0.00    +0.000 S 
BRANCH  20  24
ATOM     22  C   UNL     1       0.366   9.840  19.348  0.00  0.00    +0.000 C 
ATOM     23  O   UNL     1       1.479   9.935  18.837  0.00  0.00    +0.000 OA
ATOM     24  N   UNL     1       0.153   9.391  20.652  0.00  0.00    +0.000 N 
ATOM     25  H   UNL     1      -0.792   9.309  20.988  0.00  0.00    +0.000 HD
BRANCH  22  29
ATOM     26  C   UNL     1      -2.945  10.925  16.775  0.00  0.00    +0.000 A 
ATOM     27  C   UNL     1      -2.077   9.886  16.461  0.00  0.00    +0.000 A 
ATOM     28  C   UNL     1      -1.030   9.560  17.327  0.00  0.00    +0.000 A 
ATOM     29  C   UNL     1      -0.810  10.275  18.518  0.00  0.00    +0.000 A 
ATOM     30  C   UNL     1      -1.682  11.328  18.824  0.00  0.00    +0.000 A 
ATOM     31  C   UNL     1      -2.741  11.649  17.951  0.00  0.00    +0.000 A 
BRANCH  26  33
ATOM     32  C   UNL     1      -3.864  10.372  14.666  0.00  0.00    +0.000 C 
ATOM     33  O   UNL     1      -3.913  11.171  15.842  0.00  0.00    +0.000 OA
ENDBRANCH  26  33
ENDBRANCH  22  29
ENDBRANCH  20  24
ENDBRANCH  18  20
ENDBRANCH   1  18
TORSDOF 8
ENDMDL
MODEL 4
REMARK VINA RESULT:      -7.3      2.201     11.215
REMARK  Name = 
REMARK  11 active torsions:
REMARK  status: ('A' for Active; 'I' for Inactive)
REMARK    1  A    between atoms: C_1  and  O_2
REMARK    2  A    between atoms: O_2  and  C_3
REMARK    3  A    between atoms: C_6  and  C_7
REMARK    4  A    between atoms: N_9  and  C_10
REMARK    5  A    between atoms: C_10  and  N_12
REMARK    6  A    between atoms: N_12  and  N_13
REMARK    7  A    between atoms: C_14  and  C_16
REMARK    8  A    between atoms: C_19  and  N_20
REMARK    9  A    between atoms: C_21  and  C_23
REMARK   10  A    between atoms: C_23  and  C_24
REMARK   11  A    between atoms: C_23  and  C_25
REMARK                            x       y       z     vdW  Elec       q    Type
REMARK                         _______ _______ _______ _____ _____    ______ ____
ROOT
ATOM      1  N   UNL     1       1.880   6.476  21.272  0.00  0.00    +0.000 N 
ATOM      2  C   UNL     1       1.826   7.568  20.414  0.00  0.00    +0.000 C 
ATOM      3  O   UNL     1       2.427   7.643  19.342  0.00  0.00    +0.000 OA
ATOM      4  H   UNL     1       1.064   6.282  21.851  0.00  0.00    +0.000 HD
ENDROOT
BRANCH   2   5
ATOM      5  C   UNL     1       0.967   8.687  20.892  0.00  0.00    +0.000 A 
ATOM      6  C   UNL     1       0.618   8.756  22.240  0.00  0.00    +0.000 A 
ATOM      7  C   UNL     1      -0.150   9.816  22.718  0.00  0.00    +0.000 A 
ATOM      8  C   UNL     1      -0.579  10.848  21.883  0.00  0.00    +0.000 A 
ATOM      9  C   UNL     1      -0.233  10.777  20.526  0.00  0.00    +0.000 A 
ATOM     10  C   UNL     1       0.543   9.707  20.032  0.00  0.00    +0.000 A 
BRANCH   8  11
ATOM     11  N   UNL     1      -1.314  11.966  22.367  0.00  0.00    +0.000 N 
ATOM     12  C   UNL     1      -0.803  13.243  22.581  0.00  0.00    +0.000 C 
ATOM     13  O   UNL     1       0.378  13.562  22.448  0.00  0.00    +0.000 OA
ATOM     14  H   UNL     1      -2.299  11.816  22.547  0.00  0.00    +0.000 HD
BRANCH  12  15
ATOM     15  C   UNL     1      -1.826  14.289  23.034  0.00  0.00    +0.000 C 
ATOM     16  C   UNL     1      -1.278  15.065  24.242  0.00  0.00    +0.000 C 
ATOM     17  C   UNL     1      -2.157  15.275  21.918  0.00  0.00    +0.000 C 
ENDBRANCH  12  15
ENDBRANCH   8  11
ENDBRANCH   2   5
BRANCH   1  18
ATOM     18  N   UNL     1       2.617   5.351  20.889  0.00  0.00    +0.000 N 
ATOM     19  H   UNL     1       3.593   5.318  21.184  0.00  0.00    +0.000 HD
BRANCH  18  20
ATOM     20  C   UNL     1       2.248   4.621  19.774  0.00  0.00    +0.000 C 
ATOM     21  S   UNL     1       0.867   3.693  19.887  0.00  0.00    +0.000 S 
BRANCH  20  24
ATOM     22  C   UNL     1       4.499   4.941  18.707  0.00  0.00    +0.000 C 
ATOM     23  O   UNL     1       5.147   5.135  19.733  0.00  0.00    +0.000 OA
ATOM     24  N   UNL     1       3.113   4.780  18.690  0.00  0.00    +0.000 N 
ATOM     25  H   UNL     1       2.658   4.592  17.812  0.00  0.00    +0.000 HD
BRANCH  22  29
ATOM     26  C   UNL     1       6.835   5.076  15.062  0.00  0.00    +0.000 A 
ATOM     27  C   UNL     1       7.159   5.843  16.175  0.00  0.00    +0.000 A 
ATOM     28  C   UNL     1       6.388   5.757  17.336  0.00  0.00    +0.000 A 
ATOM     29  C   UNL     1       5.259   4.921  17.409  0.00  0.00    +0.000 A 
ATOM     30  C   UNL     1       4.930   4.158  16.282  0.00  0.00    +0.000 A 
ATOM     31  C   UNL     1       5.717   4.242  15.114  0.00  0.00    +0.000 A 
BRANCH  26  33
ATOM     32  C   UNL     1       7.270   4.566  12.793  0.00  0.00    +0.000 C 
ATOM     33  O   UNL     1       7.644   5.262  13.975  0.00  0.00    +0.000 OA
ENDBRANCH  26  33
ENDBRANCH  22  29
ENDBRANCH  20  24
ENDBRANCH  18  20
ENDBRANCH   1  18
TORSDOF 8
ENDMDL
MODEL 5
REMARK VINA RESULT:      -7.3      2.267     11.184
REMARK  Name = 
REMARK  11 active torsions:
REMARK  status: ('A' for Active; 'I' for Inactive)
REMARK    1  A    between atoms: C_1  and  O_2
REMARK    2  A    between atoms: O_2  and  C_3
REMARK    3  A    between atoms: C_6  and  C_7
REMARK    4  A    between atoms: N_9  and  C_10
REMARK    5  A    between atoms: C_10  and  N_12
REMARK    6  A    between atoms: N_12  and  N_13
REMARK    7  A    between atoms: C_14  and  C_16
REMARK    8  A    between atoms: C_19  and  N_20
REMARK    9  A    between atoms: C_21  and  C_23
REMARK   10  A    between atoms: C_23  and  C_24
REMARK   11  A    between atoms: C_23  and  C_25
REMARK                            x       y       z     vdW  Elec       q    Type
REMARK                         _______ _______ _______ _____ _____    ______ ____
ROOT
ATOM      1  N   UNL     1       2.127   6.224  20.919  0.00  0.00    +0.000 N 
ATOM      2  C   UNL     1       2.193   7.312  20.056  0.00  0.00    +0.000 C 
ATOM      3  O   UNL     1       2.870   7.345  19.028  0.00  0.00    +0.000 OA
ATOM      4  H   UNL     1       1.264   6.079  21.441  0.00  0.00    +0.000 HD
ENDROOT
BRANCH   2   5
ATOM      5  C   UNL     1       1.366   8.479  20.468  0.00  0.00    +0.000 A 
ATOM      6  C   UNL     1       1.151   8.722  21.824  0.00  0.00    +0.000 A 
ATOM      7  C   UNL     1       0.416   9.832  22.236  0.00  0.00    +0.000 A 
ATOM      8  C   UNL     1      -0.113  10.743  21.321  0.00  0.00    +0.000 A 
ATOM      9  C   UNL     1       0.097  10.496  19.957  0.00  0.00    +0.000 A 
ATOM     10  C   UNL     1       0.839   9.375  19.530  0.00  0.00    +0.000 A 
BRANCH   8  11
ATOM     11  N   UNL     1      -0.817  11.911  21.727  0.00  0.00    +0.000 N 
ATOM     12  C   UNL     1      -1.722  11.988  22.782  0.00  0.00    +0.000 C 
ATOM     13  O   UNL     1      -2.093  11.033  23.465  0.00  0.00    +0.000 OA
ATOM     14  H   UNL     1      -0.619  12.761  21.214  0.00  0.00    +0.000 HD
BRANCH  12  15
ATOM     15  C   UNL     1      -2.285  13.385  23.060  0.00  0.00    +0.000 C 
ATOM     16  C   UNL     1      -3.526  13.277  23.961  0.00  0.00    +0.000 C 
ATOM     17  C   UNL     1      -1.256  14.284  23.737  0.00  0.00    +0.000 C 
ENDBRANCH  12  15
ENDBRANCH   8  11
ENDBRANCH   2   5
BRANCH   1  18
ATOM     18  N   UNL     1       2.826   5.058  20.592  0.00  0.00    +0.000 N 
ATOM     19  H   UNL     1       3.777   4.975  20.953  0.00  0.00    +0.000 HD
BRANCH  18  20
ATOM     20  C   UNL     1       2.493   4.339  19.459  0.00  0.00    +0.000 C 
ATOM     21  S   UNL     1       1.132   3.379  19.532  0.00  0.00    +0.000 S 
BRANCH  20  24
ATOM     22  C   UNL     1       4.757   4.355  18.372  0.00  0.00    +0.000 C 
ATOM     23  O   UNL     1       5.431   4.147  19.379  0.00  0.00    +0.000 OA
ATOM     24  N   UNL     1       3.374   4.535  18.394  0.00  0.00    +0.000 N 
ATOM     25  H   UNL     1       2.889   4.669  17.522  0.00  0.00    +0.000 HD
BRANCH  22  29
ATOM     26  C   UNL     1       6.659   4.571  14.486  0.00  0.00    +0.000 A 
ATOM     27  C   UNL     1       5.306   4.285  14.630  0.00  0.00    +0.000 A 
ATOM     28  C   UNL     1       4.730   4.240  15.902  0.00  0.00    +0.000 A 
ATOM     29  C   UNL     1       5.492   4.457  17.064  0.00  0.00    +0.000 A 
ATOM     30  C   UNL     1       6.857   4.734  16.913  0.00  0.00    +0.000 A 
ATOM     31  C   UNL     1       7.433   4.787  15.627  0.00  0.00    +0.000 A 
BRANCH  26  33
ATOM     32  C   UNL     1       8.148   5.493  12.896  0.00  0.00    +0.000 C 
ATOM     33  O   UNL     1       7.117   4.561  13.198  0.00  0.00    +0.000 OA
ENDBRANCH  26  33
ENDBRANCH  22  29
ENDBRANCH  20  24
ENDBRANCH  18  20
ENDBRANCH   1  18
TORSDOF 8
ENDMDL
MODEL 6
REMARK VINA RESULT:      -7.3      4.400      6.766
REMARK  Name = 
REMARK  11 active torsions:
REMARK  status: ('A' for Active; 'I' for Inactive)
REMARK    1  A    between atoms: C_1  and  O_2
REMARK    2  A    between atoms: O_2  and  C_3
REMARK    3  A    between atoms: C_6  and  C_7
REMARK    4  A    between atoms: N_9  and  C_10
REMARK    5  A    between atoms: C_10  and  N_12
REMARK    6  A    between atoms: N_12  and  N_13
REMARK    7  A    between atoms: C_14  and  C_16
REMARK    8  A    between atoms: C_19  and  N_20
REMARK    9  A    between atoms: C_21  and  C_23
REMARK   10  A    between atoms: C_23  and  C_24
REMARK   11  A    between atoms: C_23  and  C_25
REMARK                            x       y       z     vdW  Elec       q    Type
REMARK                         _______ _______ _______ _____ _____    ______ ____
ROOT
ATOM      1  N   UNL     1       5.080   5.192  17.114  0.00  0.00    +0.000 N 
ATOM      2  C   UNL     1       6.205   5.165  17.930  0.00  0.00    +0.000 C 
ATOM      3  O   UNL     1       6.597   4.172  18.543  0.00  0.00    +0.000 OA
ATOM      4  H   UNL     1       5.076   5.837  16.325  0.00  0.00    +0.000 HD
ENDROOT
BRANCH   2   5
ATOM      5  C   UNL     1       6.931   6.461  18.023  0.00  0.00    +0.000 A 
ATOM      6  C   UNL     1       8.021   6.576  18.884  0.00  0.00    +0.000 A 
ATOM      7  C   UNL     1       8.742   7.767  18.957  0.00  0.00    +0.000 A 
ATOM      8  C   UNL     1       8.419   8.871  18.168  0.00  0.00    +0.000 A 
ATOM      9  C   UNL     1       7.319   8.758  17.305  0.00  0.00    +0.000 A 
ATOM     10  C   UNL     1       6.582   7.558  17.225  0.00  0.00    +0.000 A 
BRANCH   8  11
ATOM     11  N   UNL     1       9.180  10.073  18.189  0.00  0.00    +0.000 N 
ATOM     12  C   UNL     1       9.514  10.802  19.327  0.00  0.00    +0.000 C 
ATOM     13  O   UNL     1       9.133  10.544  20.468  0.00  0.00    +0.000 OA
ATOM     14  H   UNL     1       9.524  10.407  17.297  0.00  0.00    +0.000 HD
BRANCH  12  15
ATOM     15  C   UNL     1      10.409  12.021  19.083  0.00  0.00    +0.000 C 
ATOM     16  C   UNL     1      11.886  11.619  19.220  0.00  0.00    +0.000 C 
ATOM     17  C   UNL     1      10.183  12.618  17.697  0.00  0.00    +0.000 C 
ENDBRANCH  12  15
ENDBRANCH   8  11
ENDBRANCH   2   5
BRANCH   1  18
ATOM     18  N   UNL     1       4.358   4.010  16.918  0.00  0.00    +0.000 N 
ATOM     19  H   UNL     1       4.553   3.488  16.063  0.00  0.00    +0.000 HD
BRANCH  18  20
ATOM     20  C   UNL     1       3.127   3.836  17.522  0.00  0.00    +0.000 C 
ATOM     21  S   UNL     1       2.558   2.276  17.669  0.00  0.00    +0.000 S 
BRANCH  20  24
ATOM     22  C   UNL     1       2.843   5.816  19.041  0.00  0.00    +0.000 C 
ATOM     23  O   UNL     1       3.611   5.458  19.932  0.00  0.00    +0.000 OA
ATOM     24  N   UNL     1       2.531   5.030  17.932  0.00  0.00    +0.000 N 
ATOM     25  H   UNL     1       1.918   5.407  17.228  0.00  0.00    +0.000 HD
BRANCH  22  29
ATOM     26  C   UNL     1       1.017   9.738  19.254  0.00  0.00    +0.000 A 
ATOM     27  C   UNL     1       1.532   9.228  18.068  0.00  0.00    +0.000 A 
ATOM     28  C   UNL     1       2.099   7.951  18.041  0.00  0.00    +0.000 A 
ATOM     29  C   UNL     1       2.187   7.159  19.201  0.00  0.00    +0.000 A 
ATOM     30  C   UNL     1       1.676   7.683  20.395  0.00  0.00    +0.000 A 
ATOM     31  C   UNL     1       1.097   8.969  20.416  0.00  0.00    +0.000 A 
BRANCH  26  33
ATOM     32  C   UNL     1      -0.735  11.136  18.497  0.00  0.00    +0.000 C 
ATOM     33  O   UNL     1       0.513  11.006  19.166  0.00  0.00    +0.000 OA
ENDBRANCH  26  33
ENDBRANCH  22  29
ENDBRANCH  20  24
ENDBRANCH  18  20
ENDBRANCH   1  18
TORSDOF 8
ENDMDL
MODEL 7
REMARK VINA RESULT:      -7.3      6.242      8.506
REMARK  Name = 
REMARK  11 active torsions:
REMARK  status: ('A' for Active; 'I' for Inactive)
REMARK    1  A    between atoms: C_1  and  O_2
REMARK    2  A    between atoms: O_2  and  C_3
REMARK    3  A    between atoms: C_6  and  C_7
REMARK    4  A    between atoms: N_9  and  C_10
REMARK    5  A    between atoms: C_10  and  N_12
REMARK    6  A    between atoms: N_12  and  N_13
REMARK    7  A    between atoms: C_14  and  C_16
REMARK    8  A    between atoms: C_19  and  N_20
REMARK    9  A    between atoms: C_21  and  C_23
REMARK   10  A    between atoms: C_23  and  C_24
REMARK   11  A    between atoms: C_23  and  C_25
REMARK                            x       y       z     vdW  Elec       q    Type
REMARK                         _______ _______ _______ _____ _____    ______ ____
ROOT
ATOM      1  N   UNL     1       7.176   7.894  17.117  0.00  0.00    +0.000 N 
ATOM      2  C   UNL     1       8.084   8.129  18.143  0.00  0.00    +0.000 C 
ATOM      3  O   UNL     1       8.529   7.260  18.892  0.00  0.00    +0.000 OA
ATOM      4  H   UNL     1       7.210   8.501  16.299  0.00  0.00    +0.000 HD
ENDROOT
BRANCH   2   5
ATOM      5  C   UNL     1       8.497   9.552  18.287  0.00  0.00    +0.000 A 
ATOM      6  C   UNL     1       9.452   9.895  19.243  0.00  0.00    +0.000 A 
ATOM      7  C   UNL     1       9.885  11.214  19.369  0.00  0.00    +0.000 A 
ATOM      8  C   UNL     1       9.401  12.228  18.541  0.00  0.00    +0.000 A 
ATOM      9  C   UNL     1       8.436  11.885  17.584  0.00  0.00    +0.000 A 
ATOM     10  C   UNL     1       7.991  10.554  17.449  0.00  0.00    +0.000 A 
BRANCH   8  11
ATOM     11  N   UNL     1       9.875  13.567  18.619  0.00  0.00    +0.000 N 
ATOM     12  C   UNL     1      10.781  14.160  17.744  0.00  0.00    +0.000 C 
ATOM     13  O   UNL     1      11.354  13.580  16.822  0.00  0.00    +0.000 OA
ATOM     14  H   UNL     1       9.497  14.139  19.364  0.00  0.00    +0.000 HD
BRANCH  12  15
ATOM     15  C   UNL     1      11.068  15.642  18.004  0.00  0.00    +0.000 C 
ATOM     16  C   UNL     1      10.459  16.495  16.881  0.00  0.00    +0.000 C 
ATOM     17  C   UNL     1      10.496  16.100  19.342  0.00  0.00    +0.000 C 
ENDBRANCH  12  15
ENDBRANCH   8  11
ENDBRANCH   2   5
BRANCH   1  18
ATOM     18  N   UNL     1       6.767   6.581  16.864  0.00  0.00    +0.000 N 
ATOM     19  H   UNL     1       7.502   5.878  16.776  0.00  0.00    +0.000 HD
BRANCH  18  20
ATOM     20  C   UNL     1       5.552   6.334  16.252  0.00  0.00    +0.000 C 
ATOM     21  S   UNL     1       5.549   5.312  14.934  0.00  0.00    +0.000 S 
BRANCH  20  24
ATOM     22  C   UNL     1       3.746   6.618  17.974  0.00  0.00    +0.000 C 
ATOM     23  O   UNL     1       3.850   5.518  18.512  0.00  0.00    +0.000 OA
ATOM     24  N   UNL     1       4.479   6.998  16.850  0.00  0.00    +0.000 N 
ATOM     25  H   UNL     1       4.361   7.929  16.486  0.00  0.00    +0.000 HD
BRANCH  22  29
ATOM     26  C   UNL     1       0.877   9.516  19.434  0.00  0.00    +0.000 A 
ATOM     27  C   UNL     1       1.463   9.627  18.178  0.00  0.00    +0.000 A 
ATOM     28  C   UNL     1       2.372   8.661  17.741  0.00  0.00    +0.000 A 
ATOM     29  C   UNL     1       2.738   7.572  18.553  0.00  0.00    +0.000 A 
ATOM     30  C   UNL     1       2.152   7.471  19.821  0.00  0.00    +0.000 A 
ATOM     31  C   UNL     1       1.229   8.444  20.256  0.00  0.00    +0.000 A 
BRANCH  26  33
ATOM     32  C   UNL     1      -0.271  11.462  18.730  0.00  0.00    +0.000 C 
ATOM     33  O   UNL     1       0.024  10.533  19.765  0.00  0.00    +0.000 OA
ENDBRANCH  26  33
ENDBRANCH  22  29
ENDBRANCH  20  24
ENDBRANCH  18  20
ENDBRANCH   1  18
TORSDOF 8
ENDMDL
MODEL 8
REMARK VINA RESULT:      -7.3      4.142      6.116
REMARK  Name = 
REMARK  11 active torsions:
REMARK  status: ('A' for Active; 'I' for Inactive)
REMARK    1  A    between atoms: C_1  and  O_2
REMARK    2  A    between atoms: O_2  and  C_3
REMARK    3  A    between atoms: C_6  and  C_7
REMARK    4  A    between atoms: N_9  and  C_10
REMARK    5  A    between atoms: C_10  and  N_12
REMARK    6  A    between atoms: N_12  and  N_13
REMARK    7  A    between atoms: C_14  and  C_16
REMARK    8  A    between atoms: C_19  and  N_20
REMARK    9  A    between atoms: C_21  and  C_23
REMARK   10  A    between atoms: C_23  and  C_24
REMARK   11  A    between atoms: C_23  and  C_25
REMARK                            x       y       z     vdW  Elec       q    Type
REMARK                         _______ _______ _______ _____ _____    ______ ____
ROOT
ATOM      1  N   UNL     1       4.239   4.456  17.747  0.00  0.00    +0.000 N 
ATOM      2  C   UNL     1       5.376   4.554  18.540  0.00  0.00    +0.000 C 
ATOM      3  O   UNL     1       5.680   3.752  19.424  0.00  0.00    +0.000 OA
ATOM      4  H   UNL     1       4.282   4.834  16.802  0.00  0.00    +0.000 HD
ENDROOT
BRANCH   2   5
ATOM      5  C   UNL     1       6.234   5.735  18.247  0.00  0.00    +0.000 A 
ATOM      6  C   UNL     1       5.755   6.738  17.406  0.00  0.00    +0.000 A 
ATOM      7  C   UNL     1       6.523   7.873  17.151  0.00  0.00    +0.000 A 
ATOM      8  C   UNL     1       7.777   8.059  17.734  0.00  0.00    +0.000 A 
ATOM      9  C   UNL     1       8.262   7.047  18.575  0.00  0.00    +0.000 A 
ATOM     10  C   UNL     1       7.493   5.894  18.839  0.00  0.00    +0.000 A 
BRANCH   8  11
ATOM     11  N   UNL     1       8.548   9.237  17.528  0.00  0.00    +0.000 N 
ATOM     12  C   UNL     1       9.044  10.067  18.529  0.00  0.00    +0.000 C 
ATOM     13  O   UNL     1       8.820   9.934  19.732  0.00  0.00    +0.000 OA
ATOM     14  H   UNL     1       8.769   9.471  16.568  0.00  0.00    +0.000 HD
BRANCH  12  15
ATOM     15  C   UNL     1       9.911  11.232  18.042  0.00  0.00    +0.000 C 
ATOM     16  C   UNL     1       9.045  12.489  17.867  0.00  0.00    +0.000 C 
ATOM     17  C   UNL     1      11.042  11.539  19.018  0.00  0.00    +0.000 C 
ENDBRANCH  12  15
ENDBRANCH   8  11
ENDBRANCH   2   5
BRANCH   1  18
ATOM     18  N   UNL     1       3.396   3.352  17.907  0.00  0.00    +0.000 N 
ATOM     19  H   UNL     1       3.529   2.574  17.261  0.00  0.00    +0.000 HD
BRANCH  18  20
ATOM     20  C   UNL     1       2.157   3.502  18.503  0.00  0.00    +0.000 C 
ATOM     21  S   UNL     1       1.305   2.114  18.862  0.00  0.00    +0.000 S 
BRANCH  20  24
ATOM     22  C   UNL     1       2.278   5.709  19.695  0.00  0.00    +0.000 C 
ATOM     23  O   UNL     1       2.994   5.358  20.631  0.00  0.00    +0.000 OA
ATOM     24  N   UNL     1       1.798   4.833  18.721  0.00  0.00    +0.000 N 
ATOM     25  H   UNL     1       1.244   5.204  17.967  0.00  0.00    +0.000 HD
BRANCH  22  29
ATOM     26  C   UNL     1       1.031   9.856  19.781  0.00  0.00    +0.000 A 
ATOM     27  C   UNL     1       0.893   9.022  20.884  0.00  0.00    +0.000 A 
ATOM     28  C   UNL     1       1.322   7.694  20.818  0.00  0.00    +0.000 A 
ATOM     29  C   UNL     1       1.881   7.158  19.643  0.00  0.00    +0.000 A 
ATOM     30  C   UNL     1       2.007   8.001  18.531  0.00  0.00    +0.000 A 
ATOM     31  C   UNL     1       1.579   9.343  18.605  0.00  0.00    +0.000 A 
BRANCH  26  33
ATOM     32  C   UNL     1      -0.338  11.598  18.948  0.00  0.00    +0.000 C 
ATOM     33  O   UNL     1       0.551  11.125  19.953  0.00  0.00    +0.000 OA
ENDBRANCH  26  33
ENDBRANCH  22  29
ENDBRANCH  20  24
ENDBRANCH  18  20
ENDBRANCH   1  18
TORSDOF 8
ENDMDL
MODEL 9
REMARK VINA RESULT:      -7.2      2.626     10.326
REMARK  Name = 
REMARK  11 active torsions:
REMARK  status: ('A' for Active; 'I' for Inactive)
REMARK    1  A    between atoms: C_1  and  O_2
REMARK    2  A    between atoms: O_2  and  C_3
REMARK    3  A    between atoms: C_6  and  C_7
REMARK    4  A    between atoms: N_9  and  C_10
REMARK    5  A    between atoms: C_10  and  N_12
REMARK    6  A    between atoms: N_12  and  N_13
REMARK    7  A    between atoms: C_14  and  C_16
REMARK    8  A    between atoms: C_19  and  N_20
REMARK    9  A    between atoms: C_21  and  C_23
REMARK   10  A    between atoms: C_23  and  C_24
REMARK   11  A    between atoms: C_23  and  C_25
REMARK                            x       y       z     vdW  Elec       q    Type
REMARK                         _______ _______ _______ _____ _____    ______ ____
ROOT
ATOM      1  N   UNL     1       1.652   5.406  20.274  0.00  0.00    +0.000 N 
ATOM      2  C   UNL     1       2.492   6.473  19.978  0.00  0.00    +0.000 C 
ATOM      3  O   UNL     1       3.690   6.365  19.718  0.00  0.00    +0.000 OA
ATOM      4  H   UNL     1       0.666   5.490  20.028  0.00  0.00    +0.000 HD
ENDROOT
BRANCH   2   5
ATOM      5  C   UNL     1       1.828   7.806  20.001  0.00  0.00    +0.000 A 
ATOM      6  C   UNL     1       1.307   8.292  21.199  0.00  0.00    +0.000 A 
ATOM      7  C   UNL     1       0.719   9.554  21.254  0.00  0.00    +0.000 A 
ATOM      8  C   UNL     1       0.646  10.380  20.132  0.00  0.00    +0.000 A 
ATOM      9  C   UNL     1       1.164   9.890  18.925  0.00  0.00    +0.000 A 
ATOM     10  C   UNL     1       1.761   8.613  18.859  0.00  0.00    +0.000 A 
BRANCH   8  11
ATOM     11  N   UNL     1       0.101  11.693  20.185  0.00  0.00    +0.000 N 
ATOM     12  C   UNL     1       0.769  12.833  20.625  0.00  0.00    +0.000 C 
ATOM     13  O   UNL     1       1.905  12.846  21.098  0.00  0.00    +0.000 OA
ATOM     14  H   UNL     1      -0.849  11.803  19.850  0.00  0.00    +0.000 HD
BRANCH  12  15
ATOM     15  C   UNL     1      -0.021  14.139  20.508  0.00  0.00    +0.000 C 
ATOM     16  C   UNL     1       0.334  14.847  19.191  0.00  0.00    +0.000 C 
ATOM     17  C   UNL     1      -1.526  13.894  20.549  0.00  0.00    +0.000 C 
ENDBRANCH  12  15
ENDBRANCH   8  11
ENDBRANCH   2   5
BRANCH   1  18
ATOM     18  N   UNL     1       2.167   4.107  20.227  0.00  0.00    +0.000 N 
ATOM     19  H   UNL     1       2.869   3.864  20.926  0.00  0.00    +0.000 HD
BRANCH  18  20
ATOM     20  C   UNL     1       2.152   3.393  19.042  0.00  0.00    +0.000 C 
ATOM     21  S   UNL     1       1.032   2.167  18.898  0.00  0.00    +0.000 S 
BRANCH  20  24
ATOM     22  C   UNL     1       4.495   3.702  18.190  0.00  0.00    +0.000 C 
ATOM     23  O   UNL     1       5.092   3.328  19.197  0.00  0.00    +0.000 OA
ATOM     24  N   UNL     1       3.107   3.824  18.119  0.00  0.00    +0.000 N 
ATOM     25  H   UNL     1       2.689   4.106  17.247  0.00  0.00    +0.000 HD
BRANCH  22  29
ATOM     26  C   UNL     1       7.065   4.913  14.921  0.00  0.00    +0.000 A 
ATOM     27  C   UNL     1       7.415   5.121  16.250  0.00  0.00    +0.000 A 
ATOM     28  C   UNL     1       6.563   4.701  17.274  0.00  0.00    +0.000 A 
ATOM     29  C   UNL     1       5.330   4.082  16.999  0.00  0.00    +0.000 A 
ATOM     30  C   UNL     1       4.978   3.885  15.657  0.00  0.00    +0.000 A 
ATOM     31  C   UNL     1       5.844   4.304  14.627  0.00  0.00    +0.000 A 
BRANCH  26  33
ATOM     32  C   UNL     1       7.666   5.118  12.642  0.00  0.00    +0.000 C 
ATOM     33  O   UNL     1       7.963   5.389  14.006  0.00  0.00    +0.000 OA
ENDBRANCH  26  33
ENDBRANCH  22  29
ENDBRANCH  20  24
ENDBRANCH  18  20
ENDBRANCH   1  18
TORSDOF 8
ENDMDL
