MODEL 1
REMARK VINA RESULT:      -7.6      0.000      0.000
REMARK  Name = 
REMARK  13 active torsions:
REMARK  status: ('A' for Active; 'I' for Inactive)
REMARK    1  A    between atoms: C_1  and  O_2
REMARK    2  A    between atoms: O_2  and  C_3
REMARK    3  A    between atoms: N_5  and  C_6
REMARK    4  A    between atoms: N_5  and  C_7
REMARK    5  A    between atoms: N_11  and  C_12
REMARK    6  A    between atoms: C_12  and  C_13
REMARK    7  A    between atoms: C_16  and  O_17
REMARK    8  A    between atoms: O_17  and  C_18
REMARK    9  A    between atoms: C_26  and  C_27
REMARK   10  A    between atoms: C_27  and  C_28
REMARK   11  A    between atoms: C_28  and  O_29
REMARK   12  A    between atoms: C_30  and  O_31
REMARK   13  A    between atoms: O_31  and  C_32
REMARK                            x       y       z     vdW  Elec       q    Type
REMARK                         _______ _______ _______ _____ _____    ______ ____
ROOT
ATOM      1  C   UNL     1       4.776   5.551  17.578  0.00  0.00    +0.000 A 
ATOM      2  C   UNL     1       3.980   6.173  18.550  0.00  0.00    +0.000 A 
ATOM      3  C   UNL     1       2.991   5.458  19.268  0.00  0.00    +0.000 A 
ATOM      4  C   UNL     1       2.114   6.032  20.214  0.00  0.00    +0.000 A 
ATOM      5  N   UNL     1       2.182   7.411  20.484  0.00  0.00    +0.000 N 
ATOM      6  N   UNL     1       1.194   5.310  20.873  0.00  0.00    +0.000 NA
ATOM      7  C   UNL     1       1.136   4.012  20.574  0.00  0.00    +0.000 A 
ATOM      8  N   UNL     1       1.888   3.376  19.668  0.00  0.00    +0.000 NA
ATOM      9  C   UNL     1       2.811   4.090  19.007  0.00  0.00    +0.000 A 
ATOM     10  C   UNL     1       3.606   3.466  18.031  0.00  0.00    +0.000 A 
ATOM     11  C   UNL     1       4.587   4.190  17.306  0.00  0.00    +0.000 A 
ATOM     12  H   UNL     1       3.056   7.630  20.952  0.00  0.00    +0.000 HD
ENDROOT
BRANCH   1  15
ATOM     13  C   UNL     1       7.074   6.132  16.981  0.00  0.00    +0.000 C 
ATOM     14  O   UNL     1       7.905   6.597  16.203  0.00  0.00    +0.000 OA
ATOM     15  N   UNL     1       5.703   6.350  16.861  0.00  0.00    +0.000 N 
ATOM     16  C   UNL     1       5.218   6.980  15.642  0.00  0.00    +0.000 C 
BRANCH  13  18
ATOM     17  C   UNL     1       7.977   6.044  19.153  0.00  0.00    +0.000 C 
ATOM     18  O   UNL     1       7.403   5.347  18.046  0.00  0.00    +0.000 OA
ENDBRANCH  13  18
ENDBRANCH   1  15
BRANCH  11  19
ATOM     19  O   UNL     1       5.210   3.477  16.314  0.00  0.00    +0.000 OA
ATOM     20  C   UNL     1       4.997   3.864  14.965  0.00  0.00    +0.000 C 
ENDBRANCH  11  19
BRANCH   5  21
ATOM     21  C   UNL     1       1.026   7.986  21.172  0.00  0.00    +0.000 C 
BRANCH  21  22
ATOM     22  C   UNL     1       0.543   9.226  20.438  0.00  0.00    +0.000 A 
ATOM     23  C   UNL     1       1.076   9.579  19.193  0.00  0.00    +0.000 A 
ATOM     24  C   UNL     1       0.675  10.772  18.577  0.00  0.00    +0.000 A 
ATOM     25  C   UNL     1      -0.258  11.645  19.168  0.00  0.00    +0.000 A 
ATOM     26  C   UNL     1      -0.782  11.299  20.416  0.00  0.00    +0.000 A 
ATOM     27 CL   UNL     1      -1.928  12.217  21.329  0.00  0.00    +0.000 Cl
ATOM     28  C   UNL     1      -0.370  10.109  21.039  0.00  0.00    +0.000 A 
BRANCH  25  29
ATOM     29  O   UNL     1      -0.486  12.740  18.379  0.00  0.00    +0.000 OA
ATOM     30  C   UNL     1       0.066  13.998  18.729  0.00  0.00    +0.000 C 
ENDBRANCH  25  29
ENDBRANCH  21  22
ENDBRANCH   5  21
BRANCH  10  31
ATOM     31  C   UNL     1       3.410   1.973  17.763  0.00  0.00    +0.000 C 
BRANCH  31  32
ATOM     32  C   UNL     1       4.116   1.047  18.755  0.00  0.00    +0.000 C 
BRANCH  32  33
ATOM     33  O   UNL     1       4.872   1.758  19.729  0.00  0.00    +0.000 OA
ATOM     34  H   UNL     1       5.350   1.099  20.261  0.00  0.00    +0.000 HD
ENDBRANCH  32  33
ENDBRANCH  31  32
ENDBRANCH  10  31
TORSDOF 9
ENDMDL
MODEL 2
REMARK VINA RESULT:      -7.4      1.119      1.255
REMARK  Name = 
REMARK  13 active torsions:
REMARK  status: ('A' for Active; 'I' for Inactive)
REMARK    1  A    between atoms: C_1  and  O_2
REMARK    2  A    between atoms: O_2  and  C_3
REMARK    3  A    between atoms: N_5  and  C_6
REMARK    4  A    between atoms: N_5  and  C_7
REMARK    5  A    between atoms: N_11  and  C_12
REMARK    6  A    between atoms: C_12  and  C_13
REMARK    7  A    between atoms: C_16  and  O_17
REMARK    8  A    between atoms: O_17  and  C_18
REMARK    9  A    between atoms: C_26  and  C_27
REMARK   10  A    between atoms: C_27  and  C_28
REMARK   11  A    between atoms: C_28  and  O_29
REMARK   12  A    between atoms: C_30  and  O_31
REMARK   13  A    between atoms: O_31  and  C_32
REMARK                            x       y       z     vdW  Elec       q    Type
REMARK                         _______ _______ _______ _____ _____    ______ ____
ROOT
ATOM      1  C   UNL     1       4.487   5.882  17.475  0.00  0.00    +0.000 A 
ATOM      2  C   UNL     1       3.760   6.479  18.514  0.00  0.00    +0.000 A 
ATOM      3  C   UNL     1       2.742   5.777  19.206  0.00  0.00    +0.000 A 
ATOM      4  C   UNL     1       1.930   6.334  20.219  0.00  0.00    +0.000 A 
ATOM      5  N   UNL     1       2.100   7.680  20.590  0.00  0.00    +0.000 N 
ATOM      6  N   UNL     1       0.981   5.626  20.849  0.00  0.00    +0.000 NA
ATOM      7  C   UNL     1       0.825   4.362  20.455  0.00  0.00    +0.000 A 
ATOM      8  N   UNL     1       1.509   3.749  19.482  0.00  0.00    +0.000 NA
ATOM      9  C   UNL     1       2.463   4.449  18.849  0.00  0.00    +0.000 A 
ATOM     10  C   UNL     1       3.188   3.850  17.805  0.00  0.00    +0.000 A 
ATOM     11  C   UNL     1       4.198   4.562  17.107  0.00  0.00    +0.000 A 
ATOM     12  H   UNL     1       2.999   7.804  21.046  0.00  0.00    +0.000 HD
ENDROOT
BRANCH   1  15
ATOM     13  C   UNL     1       6.756   6.763  17.262  0.00  0.00    +0.000 C 
ATOM     14  O   UNL     1       7.689   7.199  16.589  0.00  0.00    +0.000 OA
ATOM     15  N   UNL     1       5.448   6.671  16.793  0.00  0.00    +0.000 N 
ATOM     16  C   UNL     1       5.215   6.904  15.375  0.00  0.00    +0.000 C 
BRANCH  13  18
ATOM     17  C   UNL     1       7.917   5.327  18.722  0.00  0.00    +0.000 C 
ATOM     18  O   UNL     1       6.902   6.316  18.542  0.00  0.00    +0.000 OA
ENDBRANCH  13  18
ENDBRANCH   1  15
BRANCH  11  19
ATOM     19  O   UNL     1       4.745   3.887  16.046  0.00  0.00    +0.000 OA
ATOM     20  C   UNL     1       6.115   3.520  16.111  0.00  0.00    +0.000 C 
ENDBRANCH  11  19
BRANCH   5  21
ATOM     21  C   UNL     1       1.003   8.277  21.354  0.00  0.00    +0.000 C 
BRANCH  21  22
ATOM     22  C   UNL     1       0.581   9.593  20.724  0.00  0.00    +0.000 A 
ATOM     23  C   UNL     1       0.908  10.815  21.321  0.00  0.00    +0.000 A 
ATOM     24  C   UNL     1       0.434  12.011  20.765  0.00  0.00    +0.000 A 
ATOM     25  C   UNL     1      -0.371  12.035  19.610  0.00  0.00    +0.000 A 
ATOM     26  C   UNL     1      -0.707  10.813  19.019  0.00  0.00    +0.000 A 
ATOM     27 CL   UNL     1      -1.684  10.600  17.609  0.00  0.00    +0.000 Cl
ATOM     28  C   UNL     1      -0.242   9.614  19.584  0.00  0.00    +0.000 A 
BRANCH  25  29
ATOM     29  O   UNL     1      -0.709  13.314  19.263  0.00  0.00    +0.000 OA
ATOM     30  C   UNL     1      -1.402  14.142  20.181  0.00  0.00    +0.000 C 
ENDBRANCH  25  29
ENDBRANCH  21  22
ENDBRANCH   5  21
BRANCH  10  31
ATOM     31  C   UNL     1       2.884   2.399  17.431  0.00  0.00    +0.000 C 
BRANCH  31  32
ATOM     32  C   UNL     1       3.619   1.354  18.273  0.00  0.00    +0.000 C 
BRANCH  32  33
ATOM     33  O   UNL     1       4.591   1.930  19.137  0.00  0.00    +0.000 OA
ATOM     34  H   UNL     1       4.199   2.736  19.516  0.00  0.00    +0.000 HD
ENDBRANCH  32  33
ENDBRANCH  31  32
ENDBRANCH  10  31
TORSDOF 9
ENDMDL
MODEL 3
REMARK VINA RESULT:      -7.3      1.019      1.293
REMARK  Name = 
REMARK  13 active torsions:
REMARK  status: ('A' for Active; 'I' for Inactive)
REMARK    1  A    between atoms: C_1  and  O_2
REMARK    2  A    between atoms: O_2  and  C_3
REMARK    3  A    between atoms: N_5  and  C_6
REMARK    4  A    between atoms: N_5  and  C_7
REMARK    5  A    between atoms: N_11  and  C_12
REMARK    6  A    between atoms: C_12  and  C_13
REMARK    7  A    between atoms: C_16  and  O_17
REMARK    8  A    between atoms: O_17  and  C_18
REMARK    9  A    between atoms: C_26  and  C_27
REMARK   10  A    between atoms: C_27  and  C_28
REMARK   11  A    between atoms: C_28  and  O_29
REMARK   12  A    between atoms: C_30  and  O_31
REMARK   13  A    between atoms: O_31  and  C_32
REMARK                            x       y       z     vdW  Elec       q    Type
REMARK                         _______ _______ _______ _____ _____    ______ ____
ROOT
ATOM      1  C   UNL     1       4.762   5.546  17.542  0.00  0.00    +0.000 A 
ATOM      2  C   UNL     1       3.945   6.177  18.491  0.00  0.00    +0.000 A 
ATOM      3  C   UNL     1       2.951   5.465  19.206  0.00  0.00    +0.000 A 
ATOM      4  C   UNL     1       2.055   6.047  20.129  0.00  0.00    +0.000 A 
ATOM      5  N   UNL     1       2.108   7.431  20.377  0.00  0.00    +0.000 N 
ATOM      6  N   UNL     1       1.132   5.328  20.786  0.00  0.00    +0.000 NA
ATOM      7  C   UNL     1       1.089   4.025  20.508  0.00  0.00    +0.000 A 
ATOM      8  N   UNL     1       1.860   3.380  19.625  0.00  0.00    +0.000 NA
ATOM      9  C   UNL     1       2.787   4.092  18.966  0.00  0.00    +0.000 A 
ATOM     10  C   UNL     1       3.602   3.458  18.013  0.00  0.00    +0.000 A 
ATOM     11  C   UNL     1       4.588   4.179  17.290  0.00  0.00    +0.000 A 
ATOM     12  H   UNL     1       2.973   7.665  20.854  0.00  0.00    +0.000 HD
ENDROOT
BRANCH   1  15
ATOM     13  C   UNL     1       7.063   6.138  16.972  0.00  0.00    +0.000 C 
ATOM     14  O   UNL     1       7.902   6.597  16.199  0.00  0.00    +0.000 OA
ATOM     15  N   UNL     1       5.692   6.341  16.826  0.00  0.00    +0.000 N 
ATOM     16  C   UNL     1       5.221   6.944  15.588  0.00  0.00    +0.000 C 
BRANCH  13  18
ATOM     17  C   UNL     1       7.953   6.094  19.151  0.00  0.00    +0.000 C 
ATOM     18  O   UNL     1       7.382   5.375  18.056  0.00  0.00    +0.000 OA
ENDBRANCH  13  18
ENDBRANCH   1  15
BRANCH  11  19
ATOM     19  O   UNL     1       5.232   3.455  16.320  0.00  0.00    +0.000 OA
ATOM     20  C   UNL     1       5.030   3.812  14.961  0.00  0.00    +0.000 C 
ENDBRANCH  11  19
BRANCH   5  21
ATOM     21  C   UNL     1       0.936   8.008  21.037  0.00  0.00    +0.000 C 
BRANCH  21  22
ATOM     22  C   UNL     1       0.609   9.363  20.435  0.00  0.00    +0.000 A 
ATOM     23  C   UNL     1      -0.638   9.962  20.643  0.00  0.00    +0.000 A 
ATOM     24  C   UNL     1      -0.945  11.172  20.006  0.00  0.00    +0.000 A 
ATOM     25  C   UNL     1      -0.034  11.822  19.151  0.00  0.00    +0.000 A 
ATOM     26  C   UNL     1       1.208  11.219  18.934  0.00  0.00    +0.000 A 
ATOM     27 CL   UNL     1       2.472  11.827  17.924  0.00  0.00    +0.000 Cl
ATOM     28  C   UNL     1       1.509   9.999  19.562  0.00  0.00    +0.000 A 
BRANCH  25  29
ATOM     29  O   UNL     1      -0.560  12.981  18.650  0.00  0.00    +0.000 OA
ATOM     30  C   UNL     1      -0.041  14.236  19.058  0.00  0.00    +0.000 C 
ENDBRANCH  25  29
ENDBRANCH  21  22
ENDBRANCH   5  21
BRANCH  10  31
ATOM     31  C   UNL     1       3.423   1.959  17.766  0.00  0.00    +0.000 C 
BRANCH  31  32
ATOM     32  C   UNL     1       4.145   1.056  18.768  0.00  0.00    +0.000 C 
BRANCH  32  33
ATOM     33  O   UNL     1       4.836   1.791  19.772  0.00  0.00    +0.000 OA
ATOM     34  H   UNL     1       5.055   1.168  20.486  0.00  0.00    +0.000 HD
ENDBRANCH  32  33
ENDBRANCH  31  32
ENDBRANCH  10  31
TORSDOF 9
ENDMDL
MODEL 4
REMARK VINA RESULT:      -7.3      0.962      1.044
REMARK  Name = 
REMARK  13 active torsions:
REMARK  status: ('A' for Active; 'I' for Inactive)
REMARK    1  A    between atoms: C_1  and  O_2
REMARK    2  A    between atoms: O_2  and  C_3
REMARK    3  A    between atoms: N_5  and  C_6
REMARK    4  A    between atoms: N_5  and  C_7
REMARK    5  A    between atoms: N_11  and  C_12
REMARK    6  A    between atoms: C_12  and  C_13
REMARK    7  A    between atoms: C_16  and  O_17
REMARK    8  A    between atoms: O_17  and  C_18
REMARK    9  A    between atoms: C_26  and  C_27
REMARK   10  A    between atoms: C_27  and  C_28
REMARK   11  A    between atoms: C_28  and  O_29
REMARK   12  A    between atoms: C_30  and  O_31
REMARK   13  A    between atoms: O_31  and  C_32
REMARK                            x       y       z     vdW  Elec       q    Type
REMARK                         _______ _______ _______ _____ _____    ______ ____
ROOT
ATOM      1  C   UNL     1       4.523   5.965  17.444  0.00  0.00    +0.000 A 
ATOM      2  C   UNL     1       3.836   6.530  18.528  0.00  0.00    +0.000 A 
ATOM      3  C   UNL     1       2.803   5.829  19.199  0.00  0.00    +0.000 A 
ATOM      4  C   UNL     1       2.031   6.359  20.256  0.00  0.00    +0.000 A 
ATOM      5  N   UNL     1       2.258   7.675  20.697  0.00  0.00    +0.000 N 
ATOM      6  N   UNL     1       1.065   5.653  20.863  0.00  0.00    +0.000 NA
ATOM      7  C   UNL     1       0.855   4.420  20.403  0.00  0.00    +0.000 A 
ATOM      8  N   UNL     1       1.498   3.836  19.386  0.00  0.00    +0.000 NA
ATOM      9  C   UNL     1       2.468   4.534  18.775  0.00  0.00    +0.000 A 
ATOM     10  C   UNL     1       3.152   3.967  17.686  0.00  0.00    +0.000 A 
ATOM     11  C   UNL     1       4.177   4.678  17.010  0.00  0.00    +0.000 A 
ATOM     12  H   UNL     1       3.168   7.739  21.142  0.00  0.00    +0.000 HD
ENDROOT
BRANCH   1  15
ATOM     13  C   UNL     1       6.807   6.814  17.271  0.00  0.00    +0.000 C 
ATOM     14  O   UNL     1       7.753   7.251  16.617  0.00  0.00    +0.000 OA
ATOM     15  N   UNL     1       5.502   6.753  16.788  0.00  0.00    +0.000 N 
ATOM     16  C   UNL     1       5.286   7.022  15.374  0.00  0.00    +0.000 C 
BRANCH  13  18
ATOM     17  C   UNL     1       7.964   5.361  18.718  0.00  0.00    +0.000 C 
ATOM     18  O   UNL     1       6.934   6.335  18.542  0.00  0.00    +0.000 OA
ENDBRANCH  13  18
ENDBRANCH   1  15
BRANCH  11  19
ATOM     19  O   UNL     1       4.681   4.044  15.904  0.00  0.00    +0.000 OA
ATOM     20  C   UNL     1       6.008   3.541  15.956  0.00  0.00    +0.000 C 
ENDBRANCH  11  19
BRANCH   5  21
ATOM     21  C   UNL     1       1.198   8.269  21.512  0.00  0.00    +0.000 C 
BRANCH  21  22
ATOM     22  C   UNL     1       0.413   9.280  20.695  0.00  0.00    +0.000 A 
ATOM     23  C   UNL     1       0.545   9.341  19.304  0.00  0.00    +0.000 A 
ATOM     24  C   UNL     1      -0.125  10.338  18.582  0.00  0.00    +0.000 A 
ATOM     25  C   UNL     1      -0.941  11.298  19.210  0.00  0.00    +0.000 A 
ATOM     26  C   UNL     1      -1.065  11.246  20.601  0.00  0.00    +0.000 A 
ATOM     27 CL   UNL     1      -2.000  12.320  21.580  0.00  0.00    +0.000 Cl
ATOM     28  C   UNL     1      -0.382  10.254  21.324  0.00  0.00    +0.000 A 
BRANCH  25  29
ATOM     29  O   UNL     1      -1.483  12.164  18.300  0.00  0.00    +0.000 OA
ATOM     30  C   UNL     1      -2.300  11.675  17.249  0.00  0.00    +0.000 C 
ENDBRANCH  25  29
ENDBRANCH  21  22
ENDBRANCH   5  21
BRANCH  10  31
ATOM     31  C   UNL     1       2.786   2.552  17.239  0.00  0.00    +0.000 C 
BRANCH  31  32
ATOM     32  C   UNL     1       3.428   1.435  18.063  0.00  0.00    +0.000 C 
BRANCH  32  33
ATOM     33  O   UNL     1       2.576   0.958  19.100  0.00  0.00    +0.000 OA
ATOM     34  H   UNL     1       2.883   0.066  19.337  0.00  0.00    +0.000 HD
ENDBRANCH  32  33
ENDBRANCH  31  32
ENDBRANCH  10  31
TORSDOF 9
ENDMDL
MODEL 5
REMARK VINA RESULT:      -7.2      2.421      3.223
REMARK  Name = 
REMARK  13 active torsions:
REMARK  status: ('A' for Active; 'I' for Inactive)
REMARK    1  A    between atoms: C_1  and  O_2
REMARK    2  A    between atoms: O_2  and  C_3
REMARK    3  A    between atoms: N_5  and  C_6
REMARK    4  A    between atoms: N_5  and  C_7
REMARK    5  A    between atoms: N_11  and  C_12
REMARK    6  A    between atoms: C_12  and  C_13
REMARK    7  A    between atoms: C_16  and  O_17
REMARK    8  A    between atoms: O_17  and  C_18
REMARK    9  A    between atoms: C_26  and  C_27
REMARK   10  A    between atoms: C_27  and  C_28
REMARK   11  A    between atoms: C_28  and  O_29
REMARK   12  A    between atoms: C_30  and  O_31
REMARK   13  A    between atoms: O_31  and  C_32
REMARK                            x       y       z     vdW  Elec       q    Type
REMARK                         _______ _______ _______ _____ _____    ______ ____
ROOT
ATOM      1  C   UNL     1       4.489   5.911  17.503  0.00  0.00    +0.000 A 
ATOM      2  C   UNL     1       3.798   7.116  17.692  0.00  0.00    +0.000 A 
ATOM      3  C   UNL     1       2.862   7.278  18.743  0.00  0.00    +0.000 A 
ATOM      4  C   UNL     1       2.088   8.440  18.955  0.00  0.00    +0.000 A 
ATOM      5  N   UNL     1       2.213   9.533  18.078  0.00  0.00    +0.000 N 
ATOM      6  N   UNL     1       1.216   8.547  19.969  0.00  0.00    +0.000 NA
ATOM      7  C   UNL     1       1.100   7.484  20.765  0.00  0.00    +0.000 A 
ATOM      8  N   UNL     1       1.752   6.324  20.631  0.00  0.00    +0.000 NA
ATOM      9  C   UNL     1       2.628   6.209  19.622  0.00  0.00    +0.000 A 
ATOM     10  C   UNL     1       3.316   4.999  19.432  0.00  0.00    +0.000 A 
ATOM     11  C   UNL     1       4.244   4.838  18.370  0.00  0.00    +0.000 A 
ATOM     12  H   UNL     1       3.130   9.955  18.178  0.00  0.00    +0.000 HD
ENDROOT
BRANCH   1  15
ATOM     13  C   UNL     1       6.737   5.989  16.550  0.00  0.00    +0.000 C 
ATOM     14  O   UNL     1       7.566   5.658  15.703  0.00  0.00    +0.000 OA
ATOM     15  N   UNL     1       5.365   5.809  16.392  0.00  0.00    +0.000 N 
ATOM     16  C   UNL     1       4.908   5.002  15.271  0.00  0.00    +0.000 C 
BRANCH  13  18
ATOM     17  C   UNL     1       7.725   7.832  17.631  0.00  0.00    +0.000 C 
ATOM     18  O   UNL     1       7.072   6.566  17.739  0.00  0.00    +0.000 OA
ENDBRANCH  13  18
ENDBRANCH   1  15
BRANCH  11  19
ATOM     19  O   UNL     1       4.758   3.573  18.245  0.00  0.00    +0.000 OA
ATOM     20  C   UNL     1       4.050   2.628  17.456  0.00  0.00    +0.000 C 
ENDBRANCH  11  19
BRANCH   5  21
ATOM     21  C   UNL     1       1.137  10.524  18.134  0.00  0.00    +0.000 C 
BRANCH  21  22
ATOM     22  C   UNL     1       1.622  11.787  18.823  0.00  0.00    +0.000 A 
ATOM     23  C   UNL     1       1.127  12.160  20.076  0.00  0.00    +0.000 A 
ATOM     24  C   UNL     1       1.527  13.373  20.652  0.00  0.00    +0.000 A 
ATOM     25  C   UNL     1       2.424  14.248  20.010  0.00  0.00    +0.000 A 
ATOM     26  C   UNL     1       2.912  13.882  18.752  0.00  0.00    +0.000 A 
ATOM     27 CL   UNL     1       4.009  14.798  17.780  0.00  0.00    +0.000 Cl
ATOM     28  C   UNL     1       2.499  12.672  18.170  0.00  0.00    +0.000 A 
BRANCH  25  29
ATOM     29  O   UNL     1       2.660  15.364  20.765  0.00  0.00    +0.000 OA
ATOM     30  C   UNL     1       2.047  16.597  20.427  0.00  0.00    +0.000 C 
ENDBRANCH  25  29
ENDBRANCH  21  22
ENDBRANCH   5  21
BRANCH  10  31
ATOM     31  C   UNL     1       3.063   3.844  20.401  0.00  0.00    +0.000 C 
BRANCH  31  32
ATOM     32  C   UNL     1       1.849   2.977  20.060  0.00  0.00    +0.000 C 
BRANCH  32  33
ATOM     33  O   UNL     1       0.673   3.382  20.752  0.00  0.00    +0.000 OA
ATOM     34  H   UNL     1       0.958   3.869  21.545  0.00  0.00    +0.000 HD
ENDBRANCH  32  33
ENDBRANCH  31  32
ENDBRANCH  10  31
TORSDOF 9
ENDMDL
MODEL 6
REMARK VINA RESULT:      -7.2      2.167      2.926
REMARK  Name = 
REMARK  13 active torsions:
REMARK  status: ('A' for Active; 'I' for Inactive)
REMARK    1  A    between atoms: C_1  and  O_2
REMARK    2  A    between atoms: O_2  and  C_3
REMARK    3  A    between atoms: N_5  and  C_6
REMARK    4  A    between atoms: N_5  and  C_7
REMARK    5  A    between atoms: N_11  and  C_12
REMARK    6  A    between atoms: C_12  and  C_13
REMARK    7  A    between atoms: C_16  and  O_17
REMARK    8  A    between atoms: O_17  and  C_18
REMARK    9  A    between atoms: C_26  and  C_27
REMARK   10  A    between atoms: C_27  and  C_28
REMARK   11  A    between atoms: C_28  and  O_29
REMARK   12  A    between atoms: C_30  and  O_31
REMARK   13  A    between atoms: O_31  and  C_32
REMARK                            x       y       z     vdW  Elec       q    Type
REMARK                         _______ _______ _______ _____ _____    ______ ____
ROOT
ATOM      1  C   UNL     1       4.439   5.901  17.612  0.00  0.00    +0.000 A 
ATOM      2  C   UNL     1       3.723   7.091  17.807  0.00  0.00    +0.000 A 
ATOM      3  C   UNL     1       2.783   7.228  18.857  0.00  0.00    +0.000 A 
ATOM      4  C   UNL     1       1.985   8.373  19.075  0.00  0.00    +0.000 A 
ATOM      5  N   UNL     1       2.089   9.473  18.204  0.00  0.00    +0.000 N 
ATOM      6  N   UNL     1       1.110   8.457  20.088  0.00  0.00    +0.000 NA
ATOM      7  C   UNL     1       1.015   7.388  20.879  0.00  0.00    +0.000 A 
ATOM      8  N   UNL     1       1.691   6.241  20.740  0.00  0.00    +0.000 NA
ATOM      9  C   UNL     1       2.570   6.150  19.730  0.00  0.00    +0.000 A 
ATOM     10  C   UNL     1       3.283   4.955  19.535  0.00  0.00    +0.000 A 
ATOM     11  C   UNL     1       4.215   4.819  18.473  0.00  0.00    +0.000 A 
ATOM     12  H   UNL     1       2.997   9.913  18.307  0.00  0.00    +0.000 HD
ENDROOT
BRANCH   1  15
ATOM     13  C   UNL     1       6.676   6.093  16.649  0.00  0.00    +0.000 C 
ATOM     14  O   UNL     1       7.523   5.790  15.810  0.00  0.00    +0.000 OA
ATOM     15  N   UNL     1       5.318   5.823  16.502  0.00  0.00    +0.000 N 
ATOM     16  C   UNL     1       4.910   4.957  15.405  0.00  0.00    +0.000 C 
BRANCH  13  18
ATOM     17  C   UNL     1       7.765   7.906  17.683  0.00  0.00    +0.000 C 
ATOM     18  O   UNL     1       6.976   6.723  17.820  0.00  0.00    +0.000 OA
ENDBRANCH  13  18
ENDBRANCH   1  15
BRANCH  11  19
ATOM     19  O   UNL     1       4.755   3.565  18.342  0.00  0.00    +0.000 OA
ATOM     20  C   UNL     1       4.052   2.601  17.572  0.00  0.00    +0.000 C 
ENDBRANCH  11  19
BRANCH   5  21
ATOM     21  C   UNL     1       0.992  10.441  18.263  0.00  0.00    +0.000 C 
BRANCH  21  22
ATOM     22  C   UNL     1       1.512  11.794  18.716  0.00  0.00    +0.000 A 
ATOM     23  C   UNL     1       2.560  12.427  18.038  0.00  0.00    +0.000 A 
ATOM     24  C   UNL     1       3.078  13.634  18.527  0.00  0.00    +0.000 A 
ATOM     25  C   UNL     1       2.578  14.248  19.692  0.00  0.00    +0.000 A 
ATOM     26  C   UNL     1       1.539  13.611  20.376  0.00  0.00    +0.000 A 
ATOM     27 CL   UNL     1       0.779  14.172  21.823  0.00  0.00    +0.000 Cl
ATOM     28  C   UNL     1       1.030  12.394  19.892  0.00  0.00    +0.000 A 
BRANCH  25  29
ATOM     29  O   UNL     1       3.243  15.412  19.967  0.00  0.00    +0.000 OA
ATOM     30  C   UNL     1       4.169  15.941  19.033  0.00  0.00    +0.000 C 
ENDBRANCH  25  29
ENDBRANCH  21  22
ENDBRANCH   5  21
BRANCH  10  31
ATOM     31  C   UNL     1       3.052   3.790  20.498  0.00  0.00    +0.000 C 
BRANCH  31  32
ATOM     32  C   UNL     1       1.831   2.927  20.176  0.00  0.00    +0.000 C 
BRANCH  32  33
ATOM     33  O   UNL     1       0.798   3.054  21.148  0.00  0.00    +0.000 OA
ATOM     34  H   UNL     1       0.074   3.556  20.735  0.00  0.00    +0.000 HD
ENDBRANCH  32  33
ENDBRANCH  31  32
ENDBRANCH  10  31
TORSDOF 9
ENDMDL
MODEL 7
REMARK VINA RESULT:      -6.9      1.073      1.588
REMARK  Name = 
REMARK  13 active torsions:
REMARK  status: ('A' for Active; 'I' for Inactive)
REMARK    1  A    between atoms: C_1  and  O_2
REMARK    2  A    between atoms: O_2  and  C_3
REMARK    3  A    between atoms: N_5  and  C_6
REMARK    4  A    between atoms: N_5  and  C_7
REMARK    5  A    between atoms: N_11  and  C_12
REMARK    6  A    between atoms: C_12  and  C_13
REMARK    7  A    between atoms: C_16  and  O_17
REMARK    8  A    between atoms: O_17  and  C_18
REMARK    9  A    between atoms: C_26  and  C_27
REMARK   10  A    between atoms: C_27  and  C_28
REMARK   11  A    between atoms: C_28  and  O_29
REMARK   12  A    between atoms: C_30  and  O_31
REMARK   13  A    between atoms: O_31  and  C_32
REMARK                            x       y       z     vdW  Elec       q    Type
REMARK                         _______ _______ _______ _____ _____    ______ ____
ROOT
ATOM      1  C   UNL     1       5.283   5.283  18.404  0.00  0.00    +0.000 A 
ATOM      2  C   UNL     1       4.332   5.927  19.209  0.00  0.00    +0.000 A 
ATOM      3  C   UNL     1       3.107   5.305  19.553  0.00  0.00    +0.000 A 
ATOM      4  C   UNL     1       2.081   5.916  20.307  0.00  0.00    +0.000 A 
ATOM      5  N   UNL     1       2.239   7.239  20.757  0.00  0.00    +0.000 N 
ATOM      6  N   UNL     1       0.938   5.283  20.611  0.00  0.00    +0.000 NA
ATOM      7  C   UNL     1       0.808   4.041  20.146  0.00  0.00    +0.000 A 
ATOM      8  N   UNL     1       1.695   3.383  19.391  0.00  0.00    +0.000 NA
ATOM      9  C   UNL     1       2.843   4.008  19.085  0.00  0.00    +0.000 A 
ATOM     10  C   UNL     1       3.792   3.362  18.274  0.00  0.00    +0.000 A 
ATOM     11  C   UNL     1       5.012   3.995  17.923  0.00  0.00    +0.000 A 
ATOM     12  H   UNL     1       2.973   7.283  21.457  0.00  0.00    +0.000 HD
ENDROOT
BRANCH   1  15
ATOM     13  C   UNL     1       6.391   7.122  17.239  0.00  0.00    +0.000 C 
ATOM     14  O   UNL     1       7.313   7.928  17.119  0.00  0.00    +0.000 OA
ATOM     15  N   UNL     1       6.458   5.996  18.056  0.00  0.00    +0.000 N 
ATOM     16  C   UNL     1       7.586   5.881  18.968  0.00  0.00    +0.000 C 
BRANCH  13  18
ATOM     17  C   UNL     1       5.206   6.803  15.231  0.00  0.00    +0.000 C 
ATOM     18  O   UNL     1       5.200   7.247  16.589  0.00  0.00    +0.000 OA
ENDBRANCH  13  18
ENDBRANCH   1  15
BRANCH  11  19
ATOM     19  O   UNL     1       5.791   3.289  17.043  0.00  0.00    +0.000 OA
ATOM     20  C   UNL     1       5.795   3.678  15.677  0.00  0.00    +0.000 C 
ENDBRANCH  11  19
BRANCH   5  21
ATOM     21  C   UNL     1       1.016   7.917  21.192  0.00  0.00    +0.000 C 
BRANCH  21  22
ATOM     22  C   UNL     1       0.894   9.267  20.508  0.00  0.00    +0.000 A 
ATOM     23  C   UNL     1       1.226   9.423  19.158  0.00  0.00    +0.000 A 
ATOM     24  C   UNL     1       1.187  10.696  18.572  0.00  0.00    +0.000 A 
ATOM     25  C   UNL     1       0.819  11.845  19.299  0.00  0.00    +0.000 A 
ATOM     26  C   UNL     1       0.497  11.692  20.651  0.00  0.00    +0.000 A 
ATOM     27 CL   UNL     1       0.029  12.955  21.734  0.00  0.00    +0.000 Cl
ATOM     28  C   UNL     1       0.550  10.417  21.239  0.00  0.00    +0.000 A 
BRANCH  25  29
ATOM     29  O   UNL     1       0.857  12.965  18.514  0.00  0.00    +0.000 OA
ATOM     30  C   UNL     1       2.085  13.638  18.292  0.00  0.00    +0.000 C 
ENDBRANCH  25  29
ENDBRANCH  21  22
ENDBRANCH   5  21
BRANCH  10  31
ATOM     31  C   UNL     1       3.499   1.946  17.779  0.00  0.00    +0.000 C 
BRANCH  31  32
ATOM     32  C   UNL     1       3.605   0.859  18.850  0.00  0.00    +0.000 C 
BRANCH  32  33
ATOM     33  O   UNL     1       4.913   0.755  19.400  0.00  0.00    +0.000 OA
ATOM     34  H   UNL     1       5.157   1.636  19.733  0.00  0.00    +0.000 HD
ENDBRANCH  32  33
ENDBRANCH  31  32
ENDBRANCH  10  31
TORSDOF 9
ENDMDL
MODEL 8
REMARK VINA RESULT:      -6.6      7.049     11.064
REMARK  Name = 
REMARK  13 active torsions:
REMARK  status: ('A' for Active; 'I' for Inactive)
REMARK    1  A    between atoms: C_1  and  O_2
REMARK    2  A    between atoms: O_2  and  C_3
REMARK    3  A    between atoms: N_5  and  C_6
REMARK    4  A    between atoms: N_5  and  C_7
REMARK    5  A    between atoms: N_11  and  C_12
REMARK    6  A    between atoms: C_12  and  C_13
REMARK    7  A    between atoms: C_16  and  O_17
REMARK    8  A    between atoms: O_17  and  C_18
REMARK    9  A    between atoms: C_26  and  C_27
REMARK   10  A    between atoms: C_27  and  C_28
REMARK   11  A    between atoms: C_28  and  O_29
REMARK   12  A    between atoms: C_30  and  O_31
REMARK   13  A    between atoms: O_31  and  C_32
REMARK                            x       y       z     vdW  Elec       q    Type
REMARK                         _______ _______ _______ _____ _____    ______ ____
ROOT
ATOM      1  C   UNL     1       8.515  12.949  22.102  0.00  0.00    +0.000 A 
ATOM      2  C   UNL     1       8.619  11.941  21.133  0.00  0.00    +0.000 A 
ATOM      3  C   UNL     1       9.389  12.119  19.957  0.00  0.00    +0.000 A 
ATOM      4  C   UNL     1       9.489  11.173  18.913  0.00  0.00    +0.000 A 
ATOM      5  N   UNL     1       8.781   9.961  18.998  0.00  0.00    +0.000 N 
ATOM      6  N   UNL     1      10.236  11.386  17.819  0.00  0.00    +0.000 NA
ATOM      7  C   UNL     1      10.872  12.556  17.756  0.00  0.00    +0.000 A 
ATOM      8  N   UNL     1      10.815  13.536  18.665  0.00  0.00    +0.000 NA
ATOM      9  C   UNL     1      10.072  13.329  19.764  0.00  0.00    +0.000 A 
ATOM     10  C   UNL     1       9.966  14.342  20.732  0.00  0.00    +0.000 A 
ATOM     11  C   UNL     1       9.184  14.163  21.902  0.00  0.00    +0.000 A 
ATOM     12  H   UNL     1       9.162   9.387  19.744  0.00  0.00    +0.000 HD
ENDROOT
BRANCH   1  15
ATOM     13  C   UNL     1       6.322  13.035  23.177  0.00  0.00    +0.000 C 
ATOM     14  O   UNL     1       5.500  12.621  23.993  0.00  0.00    +0.000 OA
ATOM     15  N   UNL     1       7.677  12.715  23.222  0.00  0.00    +0.000 N 
ATOM     16  C   UNL     1       8.101  11.678  24.151  0.00  0.00    +0.000 C 
BRANCH  13  18
ATOM     17  C   UNL     1       4.690  14.424  22.204  0.00  0.00    +0.000 C 
ATOM     18  O   UNL     1       5.996  13.849  22.133  0.00  0.00    +0.000 OA
ENDBRANCH  13  18
ENDBRANCH   1  15
BRANCH  11  19
ATOM     19  O   UNL     1       9.087  15.272  22.702  0.00  0.00    +0.000 OA
ATOM     20  C   UNL     1       9.644  15.216  24.008  0.00  0.00    +0.000 C 
ENDBRANCH  11  19
BRANCH   5  21
ATOM     21  C   UNL     1       8.633   9.217  17.746  0.00  0.00    +0.000 C 
BRANCH  21  22
ATOM     22  C   UNL     1       7.909   7.906  17.998  0.00  0.00    +0.000 A 
ATOM     23  C   UNL     1       8.344   7.021  18.991  0.00  0.00    +0.000 A 
ATOM     24  C   UNL     1       7.711   5.781  19.146  0.00  0.00    +0.000 A 
ATOM     25  C   UNL     1       6.635   5.380  18.330  0.00  0.00    +0.000 A 
ATOM     26  C   UNL     1       6.206   6.259  17.331  0.00  0.00    +0.000 A 
ATOM     27 CL   UNL     1       4.918   5.978  16.214  0.00  0.00    +0.000 Cl
ATOM     28  C   UNL     1       6.851   7.497  17.168  0.00  0.00    +0.000 A 
BRANCH  25  29
ATOM     29  O   UNL     1       6.187   4.133  18.671  0.00  0.00    +0.000 OA
ATOM     30  C   UNL     1       4.868   3.958  19.159  0.00  0.00    +0.000 C 
ENDBRANCH  25  29
ENDBRANCH  21  22
ENDBRANCH   5  21
BRANCH  10  31
ATOM     31  C   UNL     1      10.723  15.653  20.517  0.00  0.00    +0.000 C 
BRANCH  31  32
ATOM     32  C   UNL     1       9.907  16.760  19.845  0.00  0.00    +0.000 C 
BRANCH  32  33
ATOM     33  O   UNL     1       8.515  16.467  19.803  0.00  0.00    +0.000 OA
ATOM     34  H   UNL     1       8.403  15.678  19.245  0.00  0.00    +0.000 HD
ENDBRANCH  32  33
ENDBRANCH  31  32
ENDBRANCH  10  31
TORSDOF 9
ENDMDL
MODEL 9
REMARK VINA RESULT:      -6.6      3.540     10.097
REMARK  Name = 
REMARK  13 active torsions:
REMARK  status: ('A' for Active; 'I' for Inactive)
REMARK    1  A    between atoms: C_1  and  O_2
REMARK    2  A    between atoms: O_2  and  C_3
REMARK    3  A    between atoms: N_5  and  C_6
REMARK    4  A    between atoms: N_5  and  C_7
REMARK    5  A    between atoms: N_11  and  C_12
REMARK    6  A    between atoms: C_12  and  C_13
REMARK    7  A    between atoms: C_16  and  O_17
REMARK    8  A    between atoms: O_17  and  C_18
REMARK    9  A    between atoms: C_26  and  C_27
REMARK   10  A    between atoms: C_27  and  C_28
REMARK   11  A    between atoms: C_28  and  O_29
REMARK   12  A    between atoms: C_30  and  O_31
REMARK   13  A    between atoms: O_31  and  C_32
REMARK                            x       y       z     vdW  Elec       q    Type
REMARK                         _______ _______ _______ _____ _____    ______ ____
ROOT
ATOM      1  C   UNL     1      -1.050  12.653  20.903  0.00  0.00    +0.000 A 
ATOM      2  C   UNL     1      -0.312  11.683  20.210  0.00  0.00    +0.000 A 
ATOM      3  C   UNL     1       0.800  12.032  19.405  0.00  0.00    +0.000 A 
ATOM      4  C   UNL     1       1.550  11.117  18.633  0.00  0.00    +0.000 A 
ATOM      5  N   UNL     1       1.194   9.756  18.621  0.00  0.00    +0.000 N 
ATOM      6  N   UNL     1       2.600  11.496  17.889  0.00  0.00    +0.000 NA
ATOM      7  C   UNL     1       2.894  12.797  17.899  0.00  0.00    +0.000 A 
ATOM      8  N   UNL     1       2.229  13.751  18.560  0.00  0.00    +0.000 NA
ATOM      9  C   UNL     1       1.179  13.380  19.309  0.00  0.00    +0.000 A 
ATOM     10  C   UNL     1       0.438  14.354  19.999  0.00  0.00    +0.000 A 
ATOM     11  C   UNL     1      -0.683  14.000  20.794  0.00  0.00    +0.000 A 
ATOM     12  H   UNL     1       1.366   9.344  19.533  0.00  0.00    +0.000 HD
ENDROOT
BRANCH   1  15
ATOM     13  C   UNL     1      -2.052  11.747  22.939  0.00  0.00    +0.000 C 
ATOM     14  O   UNL     1      -2.998  11.619  23.715  0.00  0.00    +0.000 OA
ATOM     15  N   UNL     1      -2.186  12.229  21.639  0.00  0.00    +0.000 N 
ATOM     16  C   UNL     1      -3.466  12.804  21.254  0.00  0.00    +0.000 C 
BRANCH  13  18
ATOM     17  C   UNL     1      -0.477  10.037  23.309  0.00  0.00    +0.000 C 
ATOM     18  O   UNL     1      -0.767  11.436  23.269  0.00  0.00    +0.000 OA
ENDBRANCH  13  18
ENDBRANCH   1  15
BRANCH  11  19
ATOM     19  O   UNL     1      -1.370  15.063  21.322  0.00  0.00    +0.000 OA
ATOM     20  C   UNL     1      -1.181  15.379  22.693  0.00  0.00    +0.000 C 
ENDBRANCH  11  19
BRANCH   5  21
ATOM     21  C   UNL     1       1.761   8.956  17.535  0.00  0.00    +0.000 C 
BRANCH  21  22
ATOM     22  C   UNL     1       2.565   7.798  18.101  0.00  0.00    +0.000 A 
ATOM     23  C   UNL     1       3.755   7.384  17.495  0.00  0.00    +0.000 A 
ATOM     24  C   UNL     1       4.433   6.260  17.986  0.00  0.00    +0.000 A 
ATOM     25  C   UNL     1       3.958   5.517  19.084  0.00  0.00    +0.000 A 
ATOM     26  C   UNL     1       2.762   5.924  19.683  0.00  0.00    +0.000 A 
ATOM     27 CL   UNL     1       1.990   5.165  21.030  0.00  0.00    +0.000 Cl
ATOM     28  C   UNL     1       2.077   7.043  19.181  0.00  0.00    +0.000 A 
BRANCH  25  29
ATOM     29  O   UNL     1       4.787   4.469  19.374  0.00  0.00    +0.000 OA
ATOM     30  C   UNL     1       4.338   3.135  19.198  0.00  0.00    +0.000 C 
ENDBRANCH  25  29
ENDBRANCH  21  22
ENDBRANCH   5  21
BRANCH  10  31
ATOM     31  C   UNL     1       0.866  15.818  19.896  0.00  0.00    +0.000 C 
BRANCH  31  32
ATOM     32  C   UNL     1       1.993  16.224  20.848  0.00  0.00    +0.000 C 
BRANCH  32  33
ATOM     33  O   UNL     1       3.268  16.233  20.215  0.00  0.00    +0.000 OA
ATOM     34  H   UNL     1       3.550  15.307  20.120  0.00  0.00    +0.000 HD
ENDBRANCH  32  33
ENDBRANCH  31  32
ENDBRANCH  10  31
TORSDOF 9
ENDMDL
