MODEL 1
REMARK VINA RESULT:      -6.9      0.000      0.000
REMARK  Name = 
REMARK  5 active torsions:
REMARK  status: ('A' for Active; 'I' for Inactive)
REMARK    1  A    between atoms: C_5  and  C_6
REMARK    2  A    between atoms: C_6  and  C_7
REMARK    3  A    between atoms: C_7  and  C_8
REMARK    4  A    between atoms: C_8  and  C_9
REMARK    5  A    between atoms: C_9  and  N_10
REMARK                            x       y       z     vdW  Elec       q    Type
REMARK                         _______ _______ _______ _____ _____    ______ ____
ROOT
ATOM      1  C   UNL     1       5.043   4.370  18.344  0.00  0.00    +0.000 C 
ATOM      2  O   UNL     1       4.672   4.228  16.984  0.00  0.00    +0.000 OA
ATOM      3  C   UNL     1       5.858   3.900  16.338  0.00  0.00    +0.000 C 
ATOM      4  C   UNL     1       6.907   4.585  17.145  0.00  0.00    +0.000 C 
ATOM      5  O   UNL     1       6.456   4.470  18.457  0.00  0.00    +0.000 OA
ENDROOT
BRANCH   1   6
ATOM      6  C   UNL     1       4.371   5.643  18.911  0.00  0.00    +0.000 C 
BRANCH   6   7
ATOM      7  C   UNL     1       3.442   6.352  17.902  0.00  0.00    +0.000 C 
BRANCH   7  12
ATOM      8 CL   UNL     1      -0.020  10.653  20.458  0.00  0.00    +0.000 Cl
ATOM      9  C   UNL     1       0.976   9.413  19.720  0.00  0.00    +0.000 A 
ATOM     10  C   UNL     1       1.365   9.536  18.386  0.00  0.00    +0.000 A 
ATOM     11  C   UNL     1       2.148   8.549  17.789  0.00  0.00    +0.000 A 
ATOM     12  C   UNL     1       2.584   7.433  18.529  0.00  0.00    +0.000 A 
ATOM     13  C   UNL     1       2.186   7.316  19.875  0.00  0.00    +0.000 A 
ATOM     14  C   UNL     1       1.378   8.297  20.462  0.00  0.00    +0.000 A 
ENDBRANCH   7  12
ENDBRANCH   6   7
ENDBRANCH   1   6
BRANCH   1  15
ATOM     15  C   UNL     1       4.563   3.118  19.133  0.00  0.00    +0.000 C 
BRANCH  15  16
ATOM     16  N   UNL     1       3.102   3.018  19.187  0.00  0.00    +0.000 N 
ATOM     17  C   UNL     1       2.268   2.598  18.215  0.00  0.00    +0.000 A 
ATOM     18  C   UNL     1       0.979   2.668  18.697  0.00  0.00    +0.000 A 
ATOM     19  N   UNL     1       1.003   3.139  19.958  0.00  0.00    +0.000 NA
ATOM     20  C   UNL     1       2.310   3.349  20.227  0.00  0.00    +0.000 A 
ENDBRANCH  15  16
ENDBRANCH   1  15
TORSDOF 5
ENDMDL
MODEL 2
REMARK VINA RESULT:      -6.9      0.839      1.496
REMARK  Name = 
REMARK  5 active torsions:
REMARK  status: ('A' for Active; 'I' for Inactive)
REMARK    1  A    between atoms: C_5  and  C_6
REMARK    2  A    between atoms: C_6  and  C_7
REMARK    3  A    between atoms: C_7  and  C_8
REMARK    4  A    between atoms: C_8  and  C_9
REMARK    5  A    between atoms: C_9  and  N_10
REMARK                            x       y       z     vdW  Elec       q    Type
REMARK                         _______ _______ _______ _____ _____    ______ ____
ROOT
ATOM      1  C   UNL     1       4.646   4.364  18.186  0.00  0.00    +0.000 C 
ATOM      2  O   UNL     1       4.813   4.691  16.817  0.00  0.00    +0.000 OA
ATOM      3  C   UNL     1       6.124   4.327  16.536  0.00  0.00    +0.000 C 
ATOM      4  C   UNL     1       6.837   4.528  17.829  0.00  0.00    +0.000 C 
ATOM      5  O   UNL     1       5.911   4.141  18.792  0.00  0.00    +0.000 OA
ENDROOT
BRANCH   1   6
ATOM      6  C   UNL     1       3.916   5.533  18.888  0.00  0.00    +0.000 C 
BRANCH   6   7
ATOM      7  C   UNL     1       3.412   6.621  17.915  0.00  0.00    +0.000 C 
BRANCH   7  12
ATOM      8 CL   UNL     1      -0.286  10.709  20.492  0.00  0.00    +0.000 Cl
ATOM      9  C   UNL     1       0.781   9.532  19.751  0.00  0.00    +0.000 A 
ATOM     10  C   UNL     1       1.233   8.439  20.491  0.00  0.00    +0.000 A 
ATOM     11  C   UNL     1       2.090   7.504  19.912  0.00  0.00    +0.000 A 
ATOM     12  C   UNL     1       2.487   7.630  18.566  0.00  0.00    +0.000 A 
ATOM     13  C   UNL     1       2.027   8.737  17.827  0.00  0.00    +0.000 A 
ATOM     14  C   UNL     1       1.187   9.686  18.420  0.00  0.00    +0.000 A 
ENDBRANCH   7  12
ENDBRANCH   6   7
ENDBRANCH   1   6
BRANCH   1  15
ATOM     15  C   UNL     1       3.798   3.064  18.295  0.00  0.00    +0.000 C 
BRANCH  15  16
ATOM     16  N   UNL     1       3.053   2.987  19.555  0.00  0.00    +0.000 N 
ATOM     17  C   UNL     1       1.755   3.285  19.764  0.00  0.00    +0.000 A 
ATOM     18  C   UNL     1       1.475   3.071  21.095  0.00  0.00    +0.000 A 
ATOM     19  N   UNL     1       2.592   2.652  21.721  0.00  0.00    +0.000 NA
ATOM     20  C   UNL     1       3.538   2.617  20.757  0.00  0.00    +0.000 A 
ENDBRANCH  15  16
ENDBRANCH   1  15
TORSDOF 5
ENDMDL
MODEL 3
REMARK VINA RESULT:      -6.9      0.455      1.351
REMARK  Name = 
REMARK  5 active torsions:
REMARK  status: ('A' for Active; 'I' for Inactive)
REMARK    1  A    between atoms: C_5  and  C_6
REMARK    2  A    between atoms: C_6  and  C_7
REMARK    3  A    between atoms: C_7  and  C_8
REMARK    4  A    between atoms: C_8  and  C_9
REMARK    5  A    between atoms: C_9  and  N_10
REMARK                            x       y       z     vdW  Elec       q    Type
REMARK                         _______ _______ _______ _____ _____    ______ ____
ROOT
ATOM      1  C   UNL     1       4.934   4.397  18.244  0.00  0.00    +0.000 C 
ATOM      2  O   UNL     1       4.458   4.232  16.919  0.00  0.00    +0.000 OA
ATOM      3  C   UNL     1       5.588   3.875  16.192  0.00  0.00    +0.000 C 
ATOM      4  C   UNL     1       6.703   4.561  16.903  0.00  0.00    +0.000 C 
ATOM      5  O   UNL     1       6.352   4.479  18.247  0.00  0.00    +0.000 OA
ENDROOT
BRANCH   1   6
ATOM      6  C   UNL     1       4.323   5.690  18.832  0.00  0.00    +0.000 C 
BRANCH   6   7
ATOM      7  C   UNL     1       3.398   6.439  17.849  0.00  0.00    +0.000 C 
BRANCH   7  12
ATOM      8 CL   UNL     1      -0.034  10.715  20.488  0.00  0.00    +0.000 Cl
ATOM      9  C   UNL     1       0.957   9.484  19.729  0.00  0.00    +0.000 A 
ATOM     10  C   UNL     1       1.356   8.364  20.459  0.00  0.00    +0.000 A 
ATOM     11  C   UNL     1       2.152   7.386  19.866  0.00  0.00    +0.000 A 
ATOM     12  C   UNL     1       2.538   7.495  18.515  0.00  0.00    +0.000 A 
ATOM     13  C   UNL     1       2.132   8.629  17.786  0.00  0.00    +0.000 A 
ATOM     14  C   UNL     1       1.354   9.621  18.394  0.00  0.00    +0.000 A 
ENDBRANCH   7  12
ENDBRANCH   6   7
ENDBRANCH   1   6
BRANCH   1  15
ATOM     15  C   UNL     1       4.500   3.167  19.094  0.00  0.00    +0.000 C 
BRANCH  15  16
ATOM     16  N   UNL     1       3.044   3.061  19.220  0.00  0.00    +0.000 N 
ATOM     17  C   UNL     1       2.257   3.604  20.170  0.00  0.00    +0.000 A 
ATOM     18  C   UNL     1       0.954   3.247  19.902  0.00  0.00    +0.000 A 
ATOM     19  N   UNL     1       0.923   2.477  18.798  0.00  0.00    +0.000 NA
ATOM     20  C   UNL     1       2.213   2.376  18.408  0.00  0.00    +0.000 A 
ENDBRANCH  15  16
ENDBRANCH   1  15
TORSDOF 5
ENDMDL
MODEL 4
REMARK VINA RESULT:      -6.8      1.279      1.655
REMARK  Name = 
REMARK  5 active torsions:
REMARK  status: ('A' for Active; 'I' for Inactive)
REMARK    1  A    between atoms: C_5  and  C_6
REMARK    2  A    between atoms: C_6  and  C_7
REMARK    3  A    between atoms: C_7  and  C_8
REMARK    4  A    between atoms: C_8  and  C_9
REMARK    5  A    between atoms: C_9  and  N_10
REMARK                            x       y       z     vdW  Elec       q    Type
REMARK                         _______ _______ _______ _____ _____    ______ ____
ROOT
ATOM      1  C   UNL     1       5.371   5.284  18.294  0.00  0.00    +0.000 C 
ATOM      2  O   UNL     1       6.063   6.302  17.591  0.00  0.00    +0.000 OA
ATOM      3  C   UNL     1       7.385   6.160  17.997  0.00  0.00    +0.000 C 
ATOM      4  C   UNL     1       7.278   5.635  19.387  0.00  0.00    +0.000 C 
ATOM      5  O   UNL     1       6.182   4.779  19.345  0.00  0.00    +0.000 OA
ENDROOT
BRANCH   1   6
ATOM      6  C   UNL     1       4.063   5.879  18.867  0.00  0.00    +0.000 C 
BRANCH   6   7
ATOM      7  C   UNL     1       3.328   6.816  17.884  0.00  0.00    +0.000 C 
BRANCH   7  12
ATOM      8 CL   UNL     1      -0.359  10.771  20.674  0.00  0.00    +0.000 Cl
ATOM      9  C   UNL     1       0.701   9.631  19.868  0.00  0.00    +0.000 A 
ATOM     10  C   UNL     1       1.054   9.832  18.533  0.00  0.00    +0.000 A 
ATOM     11  C   UNL     1       1.888   8.923  17.883  0.00  0.00    +0.000 A 
ATOM     12  C   UNL     1       2.413   7.811  18.570  0.00  0.00    +0.000 A 
ATOM     13  C   UNL     1       2.051   7.616  19.917  0.00  0.00    +0.000 A 
ATOM     14  C   UNL     1       1.193   8.517  20.558  0.00  0.00    +0.000 A 
ENDBRANCH   7  12
ENDBRANCH   6   7
ENDBRANCH   1   6
BRANCH   1  15
ATOM     15  C   UNL     1       5.042   4.124  17.310  0.00  0.00    +0.000 C 
BRANCH  15  16
ATOM     16  N   UNL     1       3.897   3.324  17.751  0.00  0.00    +0.000 N 
ATOM     17  C   UNL     1       3.848   2.451  18.778  0.00  0.00    +0.000 A 
ATOM     18  C   UNL     1       2.576   1.924  18.831  0.00  0.00    +0.000 A 
ATOM     19  N   UNL     1       1.835   2.453  17.839  0.00  0.00    +0.000 NA
ATOM     20  C   UNL     1       2.669   3.299  17.194  0.00  0.00    +0.000 A 
ENDBRANCH  15  16
ENDBRANCH   1  15
TORSDOF 5
ENDMDL
MODEL 5
REMARK VINA RESULT:      -6.8      2.106      3.598
REMARK  Name = 
REMARK  5 active torsions:
REMARK  status: ('A' for Active; 'I' for Inactive)
REMARK    1  A    between atoms: C_5  and  C_6
REMARK    2  A    between atoms: C_6  and  C_7
REMARK    3  A    between atoms: C_7  and  C_8
REMARK    4  A    between atoms: C_8  and  C_9
REMARK    5  A    between atoms: C_9  and  N_10
REMARK                            x       y       z     vdW  Elec       q    Type
REMARK                         _______ _______ _______ _____ _____    ______ ____
ROOT
ATOM      1  C   UNL     1       3.993   4.207  18.638  0.00  0.00    +0.000 C 
ATOM      2  O   UNL     1       3.899   3.563  19.897  0.00  0.00    +0.000 OA
ATOM      3  C   UNL     1       4.120   2.221  19.612  0.00  0.00    +0.000 C 
ATOM      4  C   UNL     1       3.591   2.056  18.229  0.00  0.00    +0.000 C 
ATOM      5  O   UNL     1       3.924   3.247  17.592  0.00  0.00    +0.000 OA
ENDROOT
BRANCH   1   6
ATOM      6  C   UNL     1       2.831   5.219  18.511  0.00  0.00    +0.000 C 
BRANCH   6   7
ATOM      7  C   UNL     1       2.587   6.044  19.793  0.00  0.00    +0.000 C 
BRANCH   7  12
ATOM      8 CL   UNL     1       0.491  11.658  18.741  0.00  0.00    +0.000 Cl
ATOM      9  C   UNL     1       1.093  10.040  19.043  0.00  0.00    +0.000 A 
ATOM     10  C   UNL     1       1.734   9.335  18.023  0.00  0.00    +0.000 A 
ATOM     11  C   UNL     1       2.206   8.043  18.253  0.00  0.00    +0.000 A 
ATOM     12  C   UNL     1       2.074   7.444  19.521  0.00  0.00    +0.000 A 
ATOM     13  C   UNL     1       1.424   8.162  20.543  0.00  0.00    +0.000 A 
ATOM     14  C   UNL     1       0.929   9.449  20.301  0.00  0.00    +0.000 A 
ENDBRANCH   7  12
ENDBRANCH   6   7
ENDBRANCH   1   6
BRANCH   1  15
ATOM     15  C   UNL     1       5.358   4.948  18.550  0.00  0.00    +0.000 C 
BRANCH  15  16
ATOM     16  N   UNL     1       5.812   5.123  17.167  0.00  0.00    +0.000 N 
ATOM     17  C   UNL     1       6.775   4.435  16.523  0.00  0.00    +0.000 A 
ATOM     18  C   UNL     1       6.871   4.931  15.241  0.00  0.00    +0.000 A 
ATOM     19  N   UNL     1       5.983   5.931  15.085  0.00  0.00    +0.000 NA
ATOM     20  C   UNL     1       5.356   6.029  16.278  0.00  0.00    +0.000 A 
ENDBRANCH  15  16
ENDBRANCH   1  15
TORSDOF 5
ENDMDL
MODEL 6
REMARK VINA RESULT:      -6.8      2.066      3.837
REMARK  Name = 
REMARK  5 active torsions:
REMARK  status: ('A' for Active; 'I' for Inactive)
REMARK    1  A    between atoms: C_5  and  C_6
REMARK    2  A    between atoms: C_6  and  C_7
REMARK    3  A    between atoms: C_7  and  C_8
REMARK    4  A    between atoms: C_8  and  C_9
REMARK    5  A    between atoms: C_9  and  N_10
REMARK                            x       y       z     vdW  Elec       q    Type
REMARK                         _______ _______ _______ _____ _____    ______ ____
ROOT
ATOM      1  C   UNL     1       4.035   4.337  18.264  0.00  0.00    +0.000 C 
ATOM      2  O   UNL     1       3.496   3.739  19.431  0.00  0.00    +0.000 OA
ATOM      3  C   UNL     1       2.927   2.555  18.977  0.00  0.00    +0.000 C 
ATOM      4  C   UNL     1       2.503   2.872  17.584  0.00  0.00    +0.000 C 
ATOM      5  O   UNL     1       3.505   3.710  17.105  0.00  0.00    +0.000 OA
ENDROOT
BRANCH   1   6
ATOM      6  C   UNL     1       3.677   5.841  18.268  0.00  0.00    +0.000 C 
BRANCH   6   7
ATOM      7  C   UNL     1       2.828   6.271  19.484  0.00  0.00    +0.000 C 
BRANCH   7  12
ATOM      8 CL   UNL     1       0.206  11.712  18.738  0.00  0.00    +0.000 Cl
ATOM      9  C   UNL     1       0.963  10.145  18.954  0.00  0.00    +0.000 A 
ATOM     10  C   UNL     1       0.882   9.498  20.188  0.00  0.00    +0.000 A 
ATOM     11  C   UNL     1       1.491   8.257  20.370  0.00  0.00    +0.000 A 
ATOM     12  C   UNL     1       2.166   7.624  19.308  0.00  0.00    +0.000 A 
ATOM     13  C   UNL     1       2.244   8.285  18.067  0.00  0.00    +0.000 A 
ATOM     14  C   UNL     1       1.653   9.543  17.896  0.00  0.00    +0.000 A 
ENDBRANCH   7  12
ENDBRANCH   6   7
ENDBRANCH   1   6
BRANCH   1  15
ATOM     15  C   UNL     1       5.580   4.156  18.272  0.00  0.00    +0.000 C 
BRANCH  15  16
ATOM     16  N   UNL     1       6.203   4.613  17.027  0.00  0.00    +0.000 N 
ATOM     17  C   UNL     1       6.171   4.012  15.821  0.00  0.00    +0.000 A 
ATOM     18  C   UNL     1       6.889   4.786  14.937  0.00  0.00    +0.000 A 
ATOM     19  N   UNL     1       7.379   5.861  15.585  0.00  0.00    +0.000 NA
ATOM     20  C   UNL     1       6.949   5.724  16.859  0.00  0.00    +0.000 A 
ENDBRANCH  15  16
ENDBRANCH   1  15
TORSDOF 5
ENDMDL
MODEL 7
REMARK VINA RESULT:      -6.8      2.066      3.672
REMARK  Name = 
REMARK  5 active torsions:
REMARK  status: ('A' for Active; 'I' for Inactive)
REMARK    1  A    between atoms: C_5  and  C_6
REMARK    2  A    between atoms: C_6  and  C_7
REMARK    3  A    between atoms: C_7  and  C_8
REMARK    4  A    between atoms: C_8  and  C_9
REMARK    5  A    between atoms: C_9  and  N_10
REMARK                            x       y       z     vdW  Elec       q    Type
REMARK                         _______ _______ _______ _____ _____    ______ ____
ROOT
ATOM      1  C   UNL     1       3.546   3.994  18.086  0.00  0.00    +0.000 C 
ATOM      2  O   UNL     1       4.378   4.012  19.233  0.00  0.00    +0.000 OA
ATOM      3  C   UNL     1       4.406   2.688  19.656  0.00  0.00    +0.000 C 
ATOM      4  C   UNL     1       3.078   2.152  19.246  0.00  0.00    +0.000 C 
ATOM      5  O   UNL     1       2.821   2.773  18.028  0.00  0.00    +0.000 OA
ENDROOT
BRANCH   1   6
ATOM      6  C   UNL     1       2.569   5.191  18.164  0.00  0.00    +0.000 C 
BRANCH   6   7
ATOM      7  C   UNL     1       2.771   6.073  19.415  0.00  0.00    +0.000 C 
BRANCH   7  12
ATOM      8 CL   UNL     1       0.373  11.641  18.893  0.00  0.00    +0.000 Cl
ATOM      9  C   UNL     1       1.062  10.036  19.042  0.00  0.00    +0.000 A 
ATOM     10  C   UNL     1       1.657   9.428  17.936  0.00  0.00    +0.000 A 
ATOM     11  C   UNL     1       2.197   8.147  18.044  0.00  0.00    +0.000 A 
ATOM     12  C   UNL     1       2.182   7.462  19.275  0.00  0.00    +0.000 A 
ATOM     13  C   UNL     1       1.579   8.082  20.385  0.00  0.00    +0.000 A 
ATOM     14  C   UNL     1       1.014   9.358  20.266  0.00  0.00    +0.000 A 
ENDBRANCH   7  12
ENDBRANCH   6   7
ENDBRANCH   1   6
BRANCH   1  15
ATOM     15  C   UNL     1       4.435   4.113  16.815  0.00  0.00    +0.000 C 
BRANCH  15  16
ATOM     16  N   UNL     1       5.573   5.016  17.011  0.00  0.00    +0.000 N 
ATOM     17  C   UNL     1       5.556   6.362  17.067  0.00  0.00    +0.000 A 
ATOM     18  C   UNL     1       6.848   6.798  17.263  0.00  0.00    +0.000 A 
ATOM     19  N   UNL     1       7.672   5.735  17.317  0.00  0.00    +0.000 NA
ATOM     20  C   UNL     1       6.866   4.662  17.155  0.00  0.00    +0.000 A 
ENDBRANCH  15  16
ENDBRANCH   1  15
TORSDOF 5
ENDMDL
MODEL 8
REMARK VINA RESULT:      -6.7      2.370      3.847
REMARK  Name = 
REMARK  5 active torsions:
REMARK  status: ('A' for Active; 'I' for Inactive)
REMARK    1  A    between atoms: C_5  and  C_6
REMARK    2  A    between atoms: C_6  and  C_7
REMARK    3  A    between atoms: C_7  and  C_8
REMARK    4  A    between atoms: C_8  and  C_9
REMARK    5  A    between atoms: C_9  and  N_10
REMARK                            x       y       z     vdW  Elec       q    Type
REMARK                         _______ _______ _______ _____ _____    ______ ____
ROOT
ATOM      1  C   UNL     1       3.828   5.733  17.996  0.00  0.00    +0.000 C 
ATOM      2  O   UNL     1       4.322   5.551  19.312  0.00  0.00    +0.000 OA
ATOM      3  C   UNL     1       4.860   4.269  19.301  0.00  0.00    +0.000 C 
ATOM      4  C   UNL     1       4.022   3.538  18.310  0.00  0.00    +0.000 C 
ATOM      5  O   UNL     1       3.755   4.484  17.324  0.00  0.00    +0.000 OA
ENDROOT
BRANCH   1   6
ATOM      6  C   UNL     1       2.424   6.377  18.080  0.00  0.00    +0.000 C 
BRANCH   6   7
ATOM      7  C   UNL     1       2.449   7.920  18.061  0.00  0.00    +0.000 C 
BRANCH   7  12
ATOM      8 CL   UNL     1      -0.587  10.397  22.716  0.00  0.00    +0.000 Cl
ATOM      9  C   UNL     1       0.286   9.683  21.374  0.00  0.00    +0.000 A 
ATOM     10  C   UNL     1       0.261  10.298  20.121  0.00  0.00    +0.000 A 
ATOM     11  C   UNL     1       0.943   9.730  19.047  0.00  0.00    +0.000 A 
ATOM     12  C   UNL     1       1.694   8.550  19.214  0.00  0.00    +0.000 A 
ATOM     13  C   UNL     1       1.713   7.935  20.481  0.00  0.00    +0.000 A 
ATOM     14  C   UNL     1       1.004   8.495  21.551  0.00  0.00    +0.000 A 
ENDBRANCH   7  12
ENDBRANCH   6   7
ENDBRANCH   1   6
BRANCH   1  15
ATOM     15  C   UNL     1       4.797   6.668  17.217  0.00  0.00    +0.000 C 
BRANCH  15  16
ATOM     16  N   UNL     1       5.745   5.922  16.385  0.00  0.00    +0.000 N 
ATOM     17  C   UNL     1       5.556   5.459  15.133  0.00  0.00    +0.000 A 
ATOM     18  C   UNL     1       6.708   4.815  14.736  0.00  0.00    +0.000 A 
ATOM     19  N   UNL     1       7.610   4.864  15.735  0.00  0.00    +0.000 NA
ATOM     20  C   UNL     1       6.992   5.539  16.729  0.00  0.00    +0.000 A 
ENDBRANCH  15  16
ENDBRANCH   1  15
TORSDOF 5
ENDMDL
MODEL 9
REMARK VINA RESULT:      -6.7      2.104      3.648
REMARK  Name = 
REMARK  5 active torsions:
REMARK  status: ('A' for Active; 'I' for Inactive)
REMARK    1  A    between atoms: C_5  and  C_6
REMARK    2  A    between atoms: C_6  and  C_7
REMARK    3  A    between atoms: C_7  and  C_8
REMARK    4  A    between atoms: C_8  and  C_9
REMARK    5  A    between atoms: C_9  and  N_10
REMARK                            x       y       z     vdW  Elec       q    Type
REMARK                         _______ _______ _______ _____ _____    ______ ____
ROOT
ATOM      1  C   UNL     1       3.721   4.847  18.372  0.00  0.00    +0.000 C 
ATOM      2  O   UNL     1       3.678   4.359  19.702  0.00  0.00    +0.000 OA
ATOM      3  C   UNL     1       4.027   3.018  19.586  0.00  0.00    +0.000 C 
ATOM      4  C   UNL     1       3.525   2.633  18.237  0.00  0.00    +0.000 C 
ATOM      5  O   UNL     1       3.749   3.762  17.455  0.00  0.00    +0.000 OA
ENDROOT
BRANCH   1   6
ATOM      6  C   UNL     1       2.469   5.721  18.126  0.00  0.00    +0.000 C 
BRANCH   6   7
ATOM      7  C   UNL     1       2.779   7.231  18.033  0.00  0.00    +0.000 C 
BRANCH   7  12
ATOM      8 CL   UNL     1      -0.311  10.538  22.100  0.00  0.00    +0.000 Cl
ATOM      9  C   UNL     1       0.577   9.585  20.927  0.00  0.00    +0.000 A 
ATOM     10  C   UNL     1       0.728  10.053  19.621  0.00  0.00    +0.000 A 
ATOM     11  C   UNL     1       1.424   9.295  18.680  0.00  0.00    +0.000 A 
ATOM     12  C   UNL     1       2.012   8.066  19.039  0.00  0.00    +0.000 A 
ATOM     13  C   UNL     1       1.854   7.602  20.359  0.00  0.00    +0.000 A 
ATOM     14  C   UNL     1       1.132   8.354  21.293  0.00  0.00    +0.000 A 
ENDBRANCH   7  12
ENDBRANCH   6   7
ENDBRANCH   1   6
BRANCH   1  15
ATOM     15  C   UNL     1       5.011   5.697  18.187  0.00  0.00    +0.000 C 
BRANCH  15  16
ATOM     16  N   UNL     1       5.690   5.413  16.920  0.00  0.00    +0.000 N 
ATOM     17  C   UNL     1       6.720   4.569  16.708  0.00  0.00    +0.000 A 
ATOM     18  C   UNL     1       7.042   4.615  15.369  0.00  0.00    +0.000 A 
ATOM     19  N   UNL     1       6.228   5.489  14.747  0.00  0.00    +0.000 NA
ATOM     20  C   UNL     1       5.419   5.964  15.719  0.00  0.00    +0.000 A 
ENDBRANCH  15  16
ENDBRANCH   1  15
TORSDOF 5
ENDMDL
