MODEL 1
REMARK VINA RESULT:      -6.7      0.000      0.000
REMARK  Name = 
REMARK  9 active torsions:
REMARK  status: ('A' for Active; 'I' for Inactive)
REMARK    1  A    between atoms: C_2  and  O_3
REMARK    2  A    between atoms: C_2  and  C_11
REMARK    3  A    between atoms: O_3  and  C_4
REMARK    4  A    between atoms: C_4  and  C_5
REMARK    5  A    between atoms: C_12  and  C_13
REMARK    6  A    between atoms: C_22  and  O_23
REMARK    7  A    between atoms: O_23  and  C_24
REMARK    8  A    between atoms: C_24  and  C_25
REMARK    9  A    between atoms: C_25  and  O_26
REMARK                            x       y       z     vdW  Elec       q    Type
REMARK                         _______ _______ _______ _____ _____    ______ ____
ROOT
ATOM      1  C   UNL     1       1.934   8.100  19.141  0.00  0.00    +0.000 A 
ATOM      2  C   UNL     1       1.901   6.839  19.746  0.00  0.00    +0.000 A 
ATOM      3  O   UNL     1       1.221   6.898  20.940  0.00  0.00    +0.000 OA
ATOM      4  C   UNL     1       0.830   8.173  21.100  0.00  0.00    +0.000 A 
ATOM      5  C   UNL     1       1.207   8.963  20.037  0.00  0.00    +0.000 A 
ATOM      6  C   UNL     1       0.895  10.427  19.993  0.00  0.00    +0.000 C 
ATOM      7  C   UNL     1       0.550  10.927  21.426  0.00  0.00    +0.000 C 
ATOM      8  C   UNL     1      -0.413   9.998  22.183  0.00  0.00    +0.000 C 
ATOM      9  C   UNL     1       0.155   8.590  22.359  0.00  0.00    +0.000 C 
ENDROOT
BRANCH   2  10
ATOM     10  C   UNL     1       2.484   5.534  19.426  0.00  0.00    +0.000 A 
ATOM     11  C   UNL     1       3.679   5.114  20.019  0.00  0.00    +0.000 A 
ATOM     12  C   UNL     1       4.374   4.019  19.497  0.00  0.00    +0.000 A 
ATOM     13  C   UNL     1       3.870   3.328  18.399  0.00  0.00    +0.000 A 
ATOM     14  C   UNL     1       2.634   3.678  17.867  0.00  0.00    +0.000 A 
ATOM     15  C   UNL     1       1.929   4.745  18.416  0.00  0.00    +0.000 A 
ENDBRANCH   2  10
BRANCH   1  17
ATOM     16  O   UNL     1       2.047   9.211  17.067  0.00  0.00    +0.000 OA
ATOM     17  C   UNL     1       2.573   8.473  17.881  0.00  0.00    +0.000 C 
BRANCH  17  18
ATOM     18  O   UNL     1       3.807   7.906  17.691  0.00  0.00    +0.000 OA
BRANCH  18  19
ATOM     19  C   UNL     1       4.105   7.290  16.423  0.00  0.00    +0.000 C 
BRANCH  19  20
ATOM     20  C   UNL     1       5.242   6.326  16.643  0.00  0.00    +0.000 A 
ATOM     21  C   UNL     1       6.185   6.567  17.654  0.00  0.00    +0.000 A 
ATOM     22  C   UNL     1       7.281   5.720  17.817  0.00  0.00    +0.000 A 
ATOM     23  C   UNL     1       7.436   4.616  16.980  0.00  0.00    +0.000 A 
ATOM     24  C   UNL     1       6.493   4.355  15.987  0.00  0.00    +0.000 A 
ATOM     25  C   UNL     1       5.397   5.203  15.820  0.00  0.00    +0.000 A 
ENDBRANCH  19  20
ENDBRANCH  18  19
ENDBRANCH  17  18
ENDBRANCH   1  17
BRANCH   6  26
ATOM     26  O   UNL     1       2.002  11.179  19.468  0.00  0.00    +0.000 OA
BRANCH  26  27
ATOM     27  C   UNL     1       1.779  12.593  19.478  0.00  0.00    +0.000 C 
BRANCH  27  28
ATOM     28  C   UNL     1       2.248  13.194  18.157  0.00  0.00    +0.000 C 
BRANCH  28  29
ATOM     29  O   UNL     1       2.572  12.181  17.216  0.00  0.00    +0.000 OA
ATOM     30  H   UNL     1       3.395  12.480  16.781  0.00  0.00    +0.000 HD
ENDBRANCH  28  29
ENDBRANCH  27  28
ENDBRANCH  26  27
ENDBRANCH   6  26
TORSDOF 9
ENDMDL
MODEL 2
REMARK VINA RESULT:      -6.6      1.725      6.754
REMARK  Name = 
REMARK  9 active torsions:
REMARK  status: ('A' for Active; 'I' for Inactive)
REMARK    1  A    between atoms: C_2  and  O_3
REMARK    2  A    between atoms: C_2  and  C_11
REMARK    3  A    between atoms: O_3  and  C_4
REMARK    4  A    between atoms: C_4  and  C_5
REMARK    5  A    between atoms: C_12  and  C_13
REMARK    6  A    between atoms: C_22  and  O_23
REMARK    7  A    between atoms: O_23  and  C_24
REMARK    8  A    between atoms: C_24  and  C_25
REMARK    9  A    between atoms: C_25  and  O_26
REMARK                            x       y       z     vdW  Elec       q    Type
REMARK                         _______ _______ _______ _____ _____    ______ ____
ROOT
ATOM      1  C   UNL     1       2.768   6.504  19.249  0.00  0.00    +0.000 A 
ATOM      2  C   UNL     1       2.026   6.645  20.425  0.00  0.00    +0.000 A 
ATOM      3  O   UNL     1       1.977   5.451  21.107  0.00  0.00    +0.000 OA
ATOM      4  C   UNL     1       2.668   4.561  20.377  0.00  0.00    +0.000 A 
ATOM      5  C   UNL     1       3.200   5.129  19.241  0.00  0.00    +0.000 A 
ATOM      6  C   UNL     1       4.003   4.331  18.261  0.00  0.00    +0.000 C 
ATOM      7  C   UNL     1       3.732   2.815  18.483  0.00  0.00    +0.000 C 
ATOM      8  C   UNL     1       3.763   2.398  19.963  0.00  0.00    +0.000 C 
ATOM      9  C   UNL     1       2.713   3.133  20.796  0.00  0.00    +0.000 C 
ENDROOT
BRANCH   2  10
ATOM     10  C   UNL     1       1.254   7.736  21.025  0.00  0.00    +0.000 A 
ATOM     11  C   UNL     1       1.880   8.726  21.788  0.00  0.00    +0.000 A 
ATOM     12  C   UNL     1       1.118   9.581  22.589  0.00  0.00    +0.000 A 
ATOM     13  C   UNL     1      -0.268   9.465  22.617  0.00  0.00    +0.000 A 
ATOM     14  C   UNL     1      -0.905   8.549  21.787  0.00  0.00    +0.000 A 
ATOM     15  C   UNL     1      -0.142   7.728  20.961  0.00  0.00    +0.000 A 
ENDBRANCH   2  10
BRANCH   1  17
ATOM     16  O   UNL     1       4.148   7.693  17.753  0.00  0.00    +0.000 OA
ATOM     17  C   UNL     1       3.041   7.520  18.235  0.00  0.00    +0.000 C 
BRANCH  17  18
ATOM     18  O   UNL     1       1.948   8.270  17.885  0.00  0.00    +0.000 OA
BRANCH  18  19
ATOM     19  C   UNL     1       2.066   9.705  17.855  0.00  0.00    +0.000 C 
BRANCH  19  20
ATOM     20  C   UNL     1       0.796  10.278  18.429  0.00  0.00    +0.000 A 
ATOM     21  C   UNL     1      -0.451   9.809  17.988  0.00  0.00    +0.000 A 
ATOM     22  C   UNL     1      -1.631  10.384  18.460  0.00  0.00    +0.000 A 
ATOM     23  C   UNL     1      -1.576  11.423  19.388  0.00  0.00    +0.000 A 
ATOM     24  C   UNL     1      -0.342  11.880  19.850  0.00  0.00    +0.000 A 
ATOM     25  C   UNL     1       0.840  11.308  19.376  0.00  0.00    +0.000 A 
ENDBRANCH  19  20
ENDBRANCH  18  19
ENDBRANCH  17  18
ENDBRANCH   1  17
BRANCH   6  26
ATOM     26  O   UNL     1       3.679   4.691  16.908  0.00  0.00    +0.000 OA
BRANCH  26  27
ATOM     27  C   UNL     1       4.675   4.288  15.962  0.00  0.00    +0.000 C 
BRANCH  27  28
ATOM     28  C   UNL     1       5.755   5.361  15.868  0.00  0.00    +0.000 C 
BRANCH  28  29
ATOM     29  O   UNL     1       5.241   6.561  15.307  0.00  0.00    +0.000 OA
ATOM     30  H   UNL     1       4.483   6.289  14.753  0.00  0.00    +0.000 HD
ENDBRANCH  28  29
ENDBRANCH  27  28
ENDBRANCH  26  27
ENDBRANCH   6  26
TORSDOF 9
ENDMDL
MODEL 3
REMARK VINA RESULT:      -6.5      2.443      6.726
REMARK  Name = 
REMARK  9 active torsions:
REMARK  status: ('A' for Active; 'I' for Inactive)
REMARK    1  A    between atoms: C_2  and  O_3
REMARK    2  A    between atoms: C_2  and  C_11
REMARK    3  A    between atoms: O_3  and  C_4
REMARK    4  A    between atoms: C_4  and  C_5
REMARK    5  A    between atoms: C_12  and  C_13
REMARK    6  A    between atoms: C_22  and  O_23
REMARK    7  A    between atoms: O_23  and  C_24
REMARK    8  A    between atoms: C_24  and  C_25
REMARK    9  A    between atoms: C_25  and  O_26
REMARK                            x       y       z     vdW  Elec       q    Type
REMARK                         _______ _______ _______ _____ _____    ______ ____
ROOT
ATOM      1  C   UNL     1       5.061   4.668  17.758  0.00  0.00    +0.000 A 
ATOM      2  C   UNL     1       4.108   3.683  17.478  0.00  0.00    +0.000 A 
ATOM      3  O   UNL     1       4.263   3.216  16.194  0.00  0.00    +0.000 OA
ATOM      4  C   UNL     1       5.292   3.893  15.658  0.00  0.00    +0.000 A 
ATOM      5  C   UNL     1       5.845   4.781  16.553  0.00  0.00    +0.000 A 
ATOM      6  C   UNL     1       6.999   5.661  16.182  0.00  0.00    +0.000 C 
ATOM      7  C   UNL     1       7.115   5.734  14.632  0.00  0.00    +0.000 C 
ATOM      8  C   UNL     1       6.990   4.366  13.943  0.00  0.00    +0.000 C 
ATOM      9  C   UNL     1       5.647   3.693  14.226  0.00  0.00    +0.000 C 
ENDROOT
BRANCH   2  10
ATOM     10  C   UNL     1       2.973   3.119  18.213  0.00  0.00    +0.000 A 
ATOM     11  C   UNL     1       1.658   3.379  17.815  0.00  0.00    +0.000 A 
ATOM     12  C   UNL     1       0.595   3.090  18.676  0.00  0.00    +0.000 A 
ATOM     13  C   UNL     1       0.838   2.523  19.923  0.00  0.00    +0.000 A 
ATOM     14  C   UNL     1       2.133   2.171  20.285  0.00  0.00    +0.000 A 
ATOM     15  C   UNL     1       3.182   2.425  19.406  0.00  0.00    +0.000 A 
ENDBRANCH   2  10
BRANCH   1  17
ATOM     16  O   UNL     1       6.059   5.148  19.837  0.00  0.00    +0.000 OA
ATOM     17  C   UNL     1       5.226   5.430  18.992  0.00  0.00    +0.000 C 
BRANCH  17  18
ATOM     18  O   UNL     1       4.353   6.479  19.123  0.00  0.00    +0.000 OA
BRANCH  18  19
ATOM     19  C   UNL     1       3.069   6.248  19.735  0.00  0.00    +0.000 C 
BRANCH  19  20
ATOM     20  C   UNL     1       2.224   7.471  19.494  0.00  0.00    +0.000 A 
ATOM     21  C   UNL     1       2.152   8.036  18.211  0.00  0.00    +0.000 A 
ATOM     22  C   UNL     1       1.431   9.210  17.994  0.00  0.00    +0.000 A 
ATOM     23  C   UNL     1       0.764   9.823  19.054  0.00  0.00    +0.000 A 
ATOM     24  C   UNL     1       0.811   9.257  20.327  0.00  0.00    +0.000 A 
ATOM     25  C   UNL     1       1.534   8.084  20.548  0.00  0.00    +0.000 A 
ENDBRANCH  19  20
ENDBRANCH  18  19
ENDBRANCH  17  18
ENDBRANCH   1  17
BRANCH   6  26
ATOM     26  O   UNL     1       6.839   6.983  16.722  0.00  0.00    +0.000 OA
BRANCH  26  27
ATOM     27  C   UNL     1       7.827   7.315  17.703  0.00  0.00    +0.000 C 
BRANCH  27  28
ATOM     28  C   UNL     1       7.955   8.831  17.808  0.00  0.00    +0.000 C 
BRANCH  28  29
ATOM     29  O   UNL     1       8.904   9.200  18.799  0.00  0.00    +0.000 OA
ATOM     30  H   UNL     1       8.418   9.769  19.429  0.00  0.00    +0.000 HD
ENDBRANCH  28  29
ENDBRANCH  27  28
ENDBRANCH  26  27
ENDBRANCH   6  26
TORSDOF 9
ENDMDL
MODEL 4
REMARK VINA RESULT:      -6.5      1.851      6.817
REMARK  Name = 
REMARK  9 active torsions:
REMARK  status: ('A' for Active; 'I' for Inactive)
REMARK    1  A    between atoms: C_2  and  O_3
REMARK    2  A    between atoms: C_2  and  C_11
REMARK    3  A    between atoms: O_3  and  C_4
REMARK    4  A    between atoms: C_4  and  C_5
REMARK    5  A    between atoms: C_12  and  C_13
REMARK    6  A    between atoms: C_22  and  O_23
REMARK    7  A    between atoms: O_23  and  C_24
REMARK    8  A    between atoms: C_24  and  C_25
REMARK    9  A    between atoms: C_25  and  O_26
REMARK                            x       y       z     vdW  Elec       q    Type
REMARK                         _______ _______ _______ _____ _____    ______ ____
ROOT
ATOM      1  C   UNL     1       2.700   6.456  19.343  0.00  0.00    +0.000 A 
ATOM      2  C   UNL     1       1.957   6.652  20.511  0.00  0.00    +0.000 A 
ATOM      3  O   UNL     1       1.890   5.487  21.239  0.00  0.00    +0.000 OA
ATOM      4  C   UNL     1       2.572   4.560  20.548  0.00  0.00    +0.000 A 
ATOM      5  C   UNL     1       3.115   5.076  19.392  0.00  0.00    +0.000 A 
ATOM      6  C   UNL     1       3.909   4.229  18.447  0.00  0.00    +0.000 C 
ATOM      7  C   UNL     1       3.618   2.727  18.728  0.00  0.00    +0.000 C 
ATOM      8  C   UNL     1       3.639   2.368  20.223  0.00  0.00    +0.000 C 
ATOM      9  C   UNL     1       2.597   3.149  21.023  0.00  0.00    +0.000 C 
ENDROOT
BRANCH   2  10
ATOM     10  C   UNL     1       1.197   7.776  21.065  0.00  0.00    +0.000 A 
ATOM     11  C   UNL     1       1.839   8.803  21.765  0.00  0.00    +0.000 A 
ATOM     12  C   UNL     1       1.092   9.702  22.532  0.00  0.00    +0.000 A 
ATOM     13  C   UNL     1      -0.295   9.592  22.587  0.00  0.00    +0.000 A 
ATOM     14  C   UNL     1      -0.946   8.636  21.816  0.00  0.00    +0.000 A 
ATOM     15  C   UNL     1      -0.199   7.770  21.023  0.00  0.00    +0.000 A 
ENDBRANCH   2  10
BRANCH   1  17
ATOM     16  O   UNL     1       4.093   7.546  17.787  0.00  0.00    +0.000 OA
ATOM     17  C   UNL     1       2.990   7.427  18.291  0.00  0.00    +0.000 C 
BRANCH  17  18
ATOM     18  O   UNL     1       1.915   8.200  17.933  0.00  0.00    +0.000 OA
BRANCH  18  19
ATOM     19  C   UNL     1       2.084   9.628  17.837  0.00  0.00    +0.000 C 
BRANCH  19  20
ATOM     20  C   UNL     1       0.819  10.270  18.345  0.00  0.00    +0.000 A 
ATOM     21  C   UNL     1       0.888  11.355  19.233  0.00  0.00    +0.000 A 
ATOM     22  C   UNL     1      -0.277  11.908  19.766  0.00  0.00    +0.000 A 
ATOM     23  C   UNL     1      -1.520  11.391  19.405  0.00  0.00    +0.000 A 
ATOM     24  C   UNL     1      -1.600  10.329  18.506  0.00  0.00    +0.000 A 
ATOM     25  C   UNL     1      -0.436   9.771  17.974  0.00  0.00    +0.000 A 
ENDBRANCH  19  20
ENDBRANCH  18  19
ENDBRANCH  17  18
ENDBRANCH   1  17
BRANCH   6  26
ATOM     26  O   UNL     1       3.594   4.540  17.079  0.00  0.00    +0.000 OA
BRANCH  26  27
ATOM     27  C   UNL     1       4.609   4.129  16.158  0.00  0.00    +0.000 C 
BRANCH  27  28
ATOM     28  C   UNL     1       5.887   4.918  16.419  0.00  0.00    +0.000 C 
BRANCH  28  29
ATOM     29  O   UNL     1       6.946   4.064  16.830  0.00  0.00    +0.000 OA
ATOM     30  H   UNL     1       6.520   3.220  17.079  0.00  0.00    +0.000 HD
ENDBRANCH  28  29
ENDBRANCH  27  28
ENDBRANCH  26  27
ENDBRANCH   6  26
TORSDOF 9
ENDMDL
MODEL 5
REMARK VINA RESULT:      -6.3      4.577      7.262
REMARK  Name = 
REMARK  9 active torsions:
REMARK  status: ('A' for Active; 'I' for Inactive)
REMARK    1  A    between atoms: C_2  and  O_3
REMARK    2  A    between atoms: C_2  and  C_11
REMARK    3  A    between atoms: O_3  and  C_4
REMARK    4  A    between atoms: C_4  and  C_5
REMARK    5  A    between atoms: C_12  and  C_13
REMARK    6  A    between atoms: C_22  and  O_23
REMARK    7  A    between atoms: O_23  and  C_24
REMARK    8  A    between atoms: C_24  and  C_25
REMARK    9  A    between atoms: C_25  and  O_26
REMARK                            x       y       z     vdW  Elec       q    Type
REMARK                         _______ _______ _______ _____ _____    ______ ____
ROOT
ATOM      1  C   UNL     1      -3.153  12.427  19.753  0.00  0.00    +0.000 A 
ATOM      2  C   UNL     1      -3.945  11.719  18.844  0.00  0.00    +0.000 A 
ATOM      3  O   UNL     1      -5.246  11.661  19.285  0.00  0.00    +0.000 OA
ATOM      4  C   UNL     1      -5.286  12.314  20.458  0.00  0.00    +0.000 A 
ATOM      5  C   UNL     1      -4.056  12.828  20.802  0.00  0.00    +0.000 A 
ATOM      6  C   UNL     1      -3.847  13.587  22.076  0.00  0.00    +0.000 C 
ATOM      7  C   UNL     1      -5.019  13.289  23.055  0.00  0.00    +0.000 C 
ATOM      8  C   UNL     1      -6.403  13.349  22.389  0.00  0.00    +0.000 C 
ATOM      9  C   UNL     1      -6.546  12.338  21.252  0.00  0.00    +0.000 C 
ENDROOT
BRANCH   2  10
ATOM     10  C   UNL     1      -3.675  10.987  17.604  0.00  0.00    +0.000 A 
ATOM     11  C   UNL     1      -2.720   9.965  17.564  0.00  0.00    +0.000 A 
ATOM     12  C   UNL     1      -2.262   9.481  16.336  0.00  0.00    +0.000 A 
ATOM     13  C   UNL     1      -2.768   9.997  15.147  0.00  0.00    +0.000 A 
ATOM     14  C   UNL     1      -3.788  10.942  15.178  0.00  0.00    +0.000 A 
ATOM     15  C   UNL     1      -4.267  11.391  16.405  0.00  0.00    +0.000 A 
ENDBRANCH   2  10
BRANCH   1  17
ATOM     16  O   UNL     1      -1.263  13.821  19.560  0.00  0.00    +0.000 OA
ATOM     17  C   UNL     1      -1.719  12.696  19.673  0.00  0.00    +0.000 C 
BRANCH  17  18
ATOM     18  O   UNL     1      -0.936  11.571  19.720  0.00  0.00    +0.000 OA
BRANCH  18  19
ATOM     19  C   UNL     1       0.362  11.597  19.094  0.00  0.00    +0.000 C 
BRANCH  19  20
ATOM     20  C   UNL     1       0.922  10.200  19.152  0.00  0.00    +0.000 A 
ATOM     21  C   UNL     1       0.933   9.496  20.366  0.00  0.00    +0.000 A 
ATOM     22  C   UNL     1       1.516   8.231  20.446  0.00  0.00    +0.000 A 
ATOM     23  C   UNL     1       2.081   7.653  19.310  0.00  0.00    +0.000 A 
ATOM     24  C   UNL     1       2.056   8.336  18.095  0.00  0.00    +0.000 A 
ATOM     25  C   UNL     1       1.476   9.603  18.013  0.00  0.00    +0.000 A 
ENDBRANCH  19  20
ENDBRANCH  18  19
ENDBRANCH  17  18
ENDBRANCH   1  17
BRANCH   6  26
ATOM     26  O   UNL     1      -2.596  13.236  22.691  0.00  0.00    +0.000 OA
BRANCH  26  27
ATOM     27  C   UNL     1      -2.667  12.036  23.468  0.00  0.00    +0.000 C 
BRANCH  27  28
ATOM     28  C   UNL     1      -1.477  11.141  23.137  0.00  0.00    +0.000 C 
BRANCH  28  29
ATOM     29  O   UNL     1      -0.337  11.910  22.781  0.00  0.00    +0.000 OA
ATOM     30  H   UNL     1      -0.583  12.380  21.960  0.00  0.00    +0.000 HD
ENDBRANCH  28  29
ENDBRANCH  27  28
ENDBRANCH  26  27
ENDBRANCH   6  26
TORSDOF 9
ENDMDL
MODEL 6
REMARK VINA RESULT:      -6.3      2.438      6.715
REMARK  Name = 
REMARK  9 active torsions:
REMARK  status: ('A' for Active; 'I' for Inactive)
REMARK    1  A    between atoms: C_2  and  O_3
REMARK    2  A    between atoms: C_2  and  C_11
REMARK    3  A    between atoms: O_3  and  C_4
REMARK    4  A    between atoms: C_4  and  C_5
REMARK    5  A    between atoms: C_12  and  C_13
REMARK    6  A    between atoms: C_22  and  O_23
REMARK    7  A    between atoms: O_23  and  C_24
REMARK    8  A    between atoms: C_24  and  C_25
REMARK    9  A    between atoms: C_25  and  O_26
REMARK                            x       y       z     vdW  Elec       q    Type
REMARK                         _______ _______ _______ _____ _____    ______ ____
ROOT
ATOM      1  C   UNL     1       4.950   4.703  17.928  0.00  0.00    +0.000 A 
ATOM      2  C   UNL     1       4.031   3.682  17.665  0.00  0.00    +0.000 A 
ATOM      3  O   UNL     1       4.229   3.172  16.403  0.00  0.00    +0.000 OA
ATOM      4  C   UNL     1       5.251   3.858  15.865  0.00  0.00    +0.000 A 
ATOM      5  C   UNL     1       5.759   4.793  16.739  0.00  0.00    +0.000 A 
ATOM      6  C   UNL     1       6.897   5.690  16.361  0.00  0.00    +0.000 C 
ATOM      7  C   UNL     1       7.048   5.709  14.812  0.00  0.00    +0.000 C 
ATOM      8  C   UNL     1       6.976   4.313  14.172  0.00  0.00    +0.000 C 
ATOM      9  C   UNL     1       5.645   3.614  14.451  0.00  0.00    +0.000 C 
ENDROOT
BRANCH   2  10
ATOM     10  C   UNL     1       2.894   3.115  18.394  0.00  0.00    +0.000 A 
ATOM     11  C   UNL     1       1.581   3.343  17.971  0.00  0.00    +0.000 A 
ATOM     12  C   UNL     1       0.510   3.054  18.821  0.00  0.00    +0.000 A 
ATOM     13  C   UNL     1       0.743   2.520  20.085  0.00  0.00    +0.000 A 
ATOM     14  C   UNL     1       2.038   2.199  20.474  0.00  0.00    +0.000 A 
ATOM     15  C   UNL     1       3.096   2.452  19.607  0.00  0.00    +0.000 A 
ENDBRANCH   2  10
BRANCH   1  17
ATOM     16  O   UNL     1       6.050   5.496  19.855  0.00  0.00    +0.000 OA
ATOM     17  C   UNL     1       5.065   5.515  19.137  0.00  0.00    +0.000 C 
BRANCH  17  18
ATOM     18  O   UNL     1       3.963   6.287  19.400  0.00  0.00    +0.000 OA
BRANCH  18  19
ATOM     19  C   UNL     1       3.192   6.802  18.297  0.00  0.00    +0.000 C 
BRANCH  19  20
ATOM     20  C   UNL     1       2.272   7.864  18.842  0.00  0.00    +0.000 A 
ATOM     21  C   UNL     1       1.887   7.836  20.191  0.00  0.00    +0.000 A 
ATOM     22  C   UNL     1       0.978   8.771  20.687  0.00  0.00    +0.000 A 
ATOM     23  C   UNL     1       0.458   9.750  19.842  0.00  0.00    +0.000 A 
ATOM     24  C   UNL     1       0.851   9.800  18.506  0.00  0.00    +0.000 A 
ATOM     25  C   UNL     1       1.758   8.863  18.007  0.00  0.00    +0.000 A 
ENDBRANCH  19  20
ENDBRANCH  18  19
ENDBRANCH  17  18
ENDBRANCH   1  17
BRANCH   6  26
ATOM     26  O   UNL     1       6.689   7.027  16.847  0.00  0.00    +0.000 OA
BRANCH  26  27
ATOM     27  C   UNL     1       7.904   7.767  16.998  0.00  0.00    +0.000 C 
BRANCH  27  28
ATOM     28  C   UNL     1       8.187   7.991  18.480  0.00  0.00    +0.000 C 
BRANCH  28  29
ATOM     29  O   UNL     1       8.437   6.762  19.147  0.00  0.00    +0.000 OA
ATOM     30  H   UNL     1       7.563   6.447  19.453  0.00  0.00    +0.000 HD
ENDBRANCH  28  29
ENDBRANCH  27  28
ENDBRANCH  26  27
ENDBRANCH   6  26
TORSDOF 9
ENDMDL
MODEL 7
REMARK VINA RESULT:      -6.2      0.567      1.116
REMARK  Name = 
REMARK  9 active torsions:
REMARK  status: ('A' for Active; 'I' for Inactive)
REMARK    1  A    between atoms: C_2  and  O_3
REMARK    2  A    between atoms: C_2  and  C_11
REMARK    3  A    between atoms: O_3  and  C_4
REMARK    4  A    between atoms: C_4  and  C_5
REMARK    5  A    between atoms: C_12  and  C_13
REMARK    6  A    between atoms: C_22  and  O_23
REMARK    7  A    between atoms: O_23  and  C_24
REMARK    8  A    between atoms: C_24  and  C_25
REMARK    9  A    between atoms: C_25  and  O_26
REMARK                            x       y       z     vdW  Elec       q    Type
REMARK                         _______ _______ _______ _____ _____    ______ ____
ROOT
ATOM      1  C   UNL     1       1.970   8.089  19.129  0.00  0.00    +0.000 A 
ATOM      2  C   UNL     1       1.951   6.833  19.741  0.00  0.00    +0.000 A 
ATOM      3  O   UNL     1       1.281   6.894  20.941  0.00  0.00    +0.000 OA
ATOM      4  C   UNL     1       0.884   8.167  21.097  0.00  0.00    +0.000 A 
ATOM      5  C   UNL     1       1.246   8.954  20.027  0.00  0.00    +0.000 A 
ATOM      6  C   UNL     1       0.925  10.416  19.977  0.00  0.00    +0.000 C 
ATOM      7  C   UNL     1       0.590  10.921  21.411  0.00  0.00    +0.000 C 
ATOM      8  C   UNL     1      -0.361   9.990  22.181  0.00  0.00    +0.000 C 
ATOM      9  C   UNL     1       0.218   8.587  22.361  0.00  0.00    +0.000 C 
ENDROOT
BRANCH   2  10
ATOM     10  C   UNL     1       2.538   5.529  19.422  0.00  0.00    +0.000 A 
ATOM     11  C   UNL     1       3.773   5.146  19.957  0.00  0.00    +0.000 A 
ATOM     12  C   UNL     1       4.456   4.048  19.426  0.00  0.00    +0.000 A 
ATOM     13  C   UNL     1       3.904   3.319  18.377  0.00  0.00    +0.000 A 
ATOM     14  C   UNL     1       2.634   3.633  17.907  0.00  0.00    +0.000 A 
ATOM     15  C   UNL     1       1.942   4.703  18.467  0.00  0.00    +0.000 A 
ENDBRANCH   2  10
BRANCH   1  17
ATOM     16  O   UNL     1       2.053   9.183  17.043  0.00  0.00    +0.000 OA
ATOM     17  C   UNL     1       2.595   8.459  17.861  0.00  0.00    +0.000 C 
BRANCH  17  18
ATOM     18  O   UNL     1       3.836   7.908  17.668  0.00  0.00    +0.000 OA
BRANCH  18  19
ATOM     19  C   UNL     1       4.130   7.275  16.408  0.00  0.00    +0.000 C 
BRANCH  19  20
ATOM     20  C   UNL     1       5.325   6.382  16.617  0.00  0.00    +0.000 A 
ATOM     21  C   UNL     1       5.487   5.227  15.835  0.00  0.00    +0.000 A 
ATOM     22  C   UNL     1       6.551   4.356  16.071  0.00  0.00    +0.000 A 
ATOM     23  C   UNL     1       7.470   4.638  17.080  0.00  0.00    +0.000 A 
ATOM     24  C   UNL     1       7.331   5.794  17.847  0.00  0.00    +0.000 A 
ATOM     25  C   UNL     1       6.265   6.666  17.615  0.00  0.00    +0.000 A 
ENDBRANCH  19  20
ENDBRANCH  18  19
ENDBRANCH  17  18
ENDBRANCH   1  17
BRANCH   6  26
ATOM     26  O   UNL     1       2.023  11.171  19.438  0.00  0.00    +0.000 OA
BRANCH  26  27
ATOM     27  C   UNL     1       1.606  12.228  18.568  0.00  0.00    +0.000 C 
BRANCH  27  28
ATOM     28  C   UNL     1       1.771  13.569  19.275  0.00  0.00    +0.000 C 
BRANCH  28  29
ATOM     29  O   UNL     1       2.984  13.617  20.012  0.00  0.00    +0.000 OA
ATOM     30  H   UNL     1       2.842  13.044  20.791  0.00  0.00    +0.000 HD
ENDBRANCH  28  29
ENDBRANCH  27  28
ENDBRANCH  26  27
ENDBRANCH   6  26
TORSDOF 9
ENDMDL
MODEL 8
REMARK VINA RESULT:      -6.2      2.982      5.658
REMARK  Name = 
REMARK  9 active torsions:
REMARK  status: ('A' for Active; 'I' for Inactive)
REMARK    1  A    between atoms: C_2  and  O_3
REMARK    2  A    between atoms: C_2  and  C_11
REMARK    3  A    between atoms: O_3  and  C_4
REMARK    4  A    between atoms: C_4  and  C_5
REMARK    5  A    between atoms: C_12  and  C_13
REMARK    6  A    between atoms: C_22  and  O_23
REMARK    7  A    between atoms: O_23  and  C_24
REMARK    8  A    between atoms: C_24  and  C_25
REMARK    9  A    between atoms: C_25  and  O_26
REMARK                            x       y       z     vdW  Elec       q    Type
REMARK                         _______ _______ _______ _____ _____    ______ ____
ROOT
ATOM      1  C   UNL     1       0.954   9.697  19.623  0.00  0.00    +0.000 A 
ATOM      2  C   UNL     1       1.360   8.425  20.037  0.00  0.00    +0.000 A 
ATOM      3  O   UNL     1       0.934   8.179  21.322  0.00  0.00    +0.000 OA
ATOM      4  C   UNL     1       0.273   9.276  21.726  0.00  0.00    +0.000 A 
ATOM      5  C   UNL     1       0.222  10.238  20.742  0.00  0.00    +0.000 A 
ATOM      6  C   UNL     1      -0.452  11.557  20.961  0.00  0.00    +0.000 C 
ATOM      7  C   UNL     1      -0.625  11.802  22.488  0.00  0.00    +0.000 C 
ATOM      8  C   UNL     1      -1.154  10.576  23.249  0.00  0.00    +0.000 C 
ATOM      9  C   UNL     1      -0.225   9.369  23.126  0.00  0.00    +0.000 C 
ENDROOT
BRANCH   2  10
ATOM     10  C   UNL     1       2.180   7.367  19.441  0.00  0.00    +0.000 A 
ATOM     11  C   UNL     1       2.569   6.251  20.187  0.00  0.00    +0.000 A 
ATOM     12  C   UNL     1       3.578   5.407  19.713  0.00  0.00    +0.000 A 
ATOM     13  C   UNL     1       4.185   5.662  18.487  0.00  0.00    +0.000 A 
ATOM     14  C   UNL     1       3.735   6.712  17.695  0.00  0.00    +0.000 A 
ATOM     15  C   UNL     1       2.703   7.524  18.155  0.00  0.00    +0.000 A 
ENDBRANCH   2  10
BRANCH   1  17
ATOM     16  O   UNL     1       2.326  10.737  18.015  0.00  0.00    +0.000 OA
ATOM     17  C   UNL     1       1.218  10.350  18.344  0.00  0.00    +0.000 C 
BRANCH  17  18
ATOM     18  O   UNL     1       0.107  10.504  17.554  0.00  0.00    +0.000 OA
BRANCH  18  19
ATOM     19  C   UNL     1      -0.866   9.442  17.502  0.00  0.00    +0.000 C 
BRANCH  19  20
ATOM     20  C   UNL     1      -2.197  10.062  17.166  0.00  0.00    +0.000 A 
ATOM     21  C   UNL     1      -2.606  10.170  15.828  0.00  0.00    +0.000 A 
ATOM     22  C   UNL     1      -3.803  10.809  15.503  0.00  0.00    +0.000 A 
ATOM     23  C   UNL     1      -4.609  11.331  16.513  0.00  0.00    +0.000 A 
ATOM     24  C   UNL     1      -4.222  11.209  17.847  0.00  0.00    +0.000 A 
ATOM     25  C   UNL     1      -3.023  10.574  18.175  0.00  0.00    +0.000 A 
ENDBRANCH  19  20
ENDBRANCH  18  19
ENDBRANCH  17  18
ENDBRANCH   1  17
BRANCH   6  26
ATOM     26  O   UNL     1       0.303  12.631  20.376  0.00  0.00    +0.000 OA
BRANCH  26  27
ATOM     27  C   UNL     1      -0.493  13.780  20.071  0.00  0.00    +0.000 C 
BRANCH  27  28
ATOM     28  C   UNL     1      -0.267  14.189  18.619  0.00  0.00    +0.000 C 
BRANCH  28  29
ATOM     29  O   UNL     1      -0.807  13.227  17.723  0.00  0.00    +0.000 OA
ATOM     30  H   UNL     1      -1.248  12.561  18.287  0.00  0.00    +0.000 HD
ENDBRANCH  28  29
ENDBRANCH  27  28
ENDBRANCH  26  27
ENDBRANCH   6  26
TORSDOF 9
ENDMDL
MODEL 9
REMARK VINA RESULT:      -6.2      1.186      1.515
REMARK  Name = 
REMARK  9 active torsions:
REMARK  status: ('A' for Active; 'I' for Inactive)
REMARK    1  A    between atoms: C_2  and  O_3
REMARK    2  A    between atoms: C_2  and  C_11
REMARK    3  A    between atoms: O_3  and  C_4
REMARK    4  A    between atoms: C_4  and  C_5
REMARK    5  A    between atoms: C_12  and  C_13
REMARK    6  A    between atoms: C_22  and  O_23
REMARK    7  A    between atoms: O_23  and  C_24
REMARK    8  A    between atoms: C_24  and  C_25
REMARK    9  A    between atoms: C_25  and  O_26
REMARK                            x       y       z     vdW  Elec       q    Type
REMARK                         _______ _______ _______ _____ _____    ______ ____
ROOT
ATOM      1  C   UNL     1       1.508   8.287  19.477  0.00  0.00    +0.000 A 
ATOM      2  C   UNL     1       1.412   7.110  20.226  0.00  0.00    +0.000 A 
ATOM      3  O   UNL     1       0.799   7.357  21.432  0.00  0.00    +0.000 OA
ATOM      4  C   UNL     1       0.513   8.669  21.459  0.00  0.00    +0.000 A 
ATOM      5  C   UNL     1       0.893   9.302  20.296  0.00  0.00    +0.000 A 
ATOM      6  C   UNL     1       0.690  10.772  20.095  0.00  0.00    +0.000 C 
ATOM      7  C   UNL     1       0.455  11.456  21.473  0.00  0.00    +0.000 C 
ATOM      8  C   UNL     1      -0.535  10.698  22.372  0.00  0.00    +0.000 C 
ATOM      9  C   UNL     1      -0.065   9.278  22.688  0.00  0.00    +0.000 C 
ENDROOT
BRANCH   2  10
ATOM     10  C   UNL     1       1.879   5.735  20.035  0.00  0.00    +0.000 A 
ATOM     11  C   UNL     1       1.736   5.090  18.802  0.00  0.00    +0.000 A 
ATOM     12  C   UNL     1       1.908   3.706  18.710  0.00  0.00    +0.000 A 
ATOM     13  C   UNL     1       2.242   2.965  19.840  0.00  0.00    +0.000 A 
ATOM     14  C   UNL     1       2.483   3.611  21.047  0.00  0.00    +0.000 A 
ATOM     15  C   UNL     1       2.348   4.994  21.122  0.00  0.00    +0.000 A 
ENDBRANCH   2  10
BRANCH   1  17
ATOM     16  O   UNL     1       1.471   8.830  17.185  0.00  0.00    +0.000 OA
ATOM     17  C   UNL     1       2.108   8.464  18.157  0.00  0.00    +0.000 C 
BRANCH  17  18
ATOM     18  O   UNL     1       3.446   8.166  18.107  0.00  0.00    +0.000 OA
BRANCH  18  19
ATOM     19  C   UNL     1       3.896   7.122  17.222  0.00  0.00    +0.000 C 
BRANCH  19  20
ATOM     20  C   UNL     1       5.210   6.612  17.753  0.00  0.00    +0.000 A 
ATOM     21  C   UNL     1       6.418   7.152  17.284  0.00  0.00    +0.000 A 
ATOM     22  C   UNL     1       7.639   6.636  17.715  0.00  0.00    +0.000 A 
ATOM     23  C   UNL     1       7.666   5.584  18.629  0.00  0.00    +0.000 A 
ATOM     24  C   UNL     1       6.472   5.055  19.118  0.00  0.00    +0.000 A 
ATOM     25  C   UNL     1       5.248   5.568  18.686  0.00  0.00    +0.000 A 
ENDBRANCH  19  20
ENDBRANCH  18  19
ENDBRANCH  17  18
ENDBRANCH   1  17
BRANCH   6  26
ATOM     26  O   UNL     1       1.821  11.369  19.440  0.00  0.00    +0.000 OA
BRANCH  26  27
ATOM     27  C   UNL     1       1.831  12.798  19.521  0.00  0.00    +0.000 C 
BRANCH  27  28
ATOM     28  C   UNL     1       2.188  13.385  18.160  0.00  0.00    +0.000 C 
BRANCH  28  29
ATOM     29  O   UNL     1       2.566  12.369  17.243  0.00  0.00    +0.000 OA
ATOM     30  H   UNL     1       2.158  12.619  16.391  0.00  0.00    +0.000 HD
ENDBRANCH  28  29
ENDBRANCH  27  28
ENDBRANCH  26  27
ENDBRANCH   6  26
TORSDOF 9
ENDMDL
