MODEL 1
REMARK VINA RESULT:      -7.1      0.000      0.000
REMARK  Name = 
REMARK  6 active torsions:
REMARK  status: ('A' for Active; 'I' for Inactive)
REMARK    1  A    between atoms: C_1  and  C_2
REMARK    2  A    between atoms: C_2  and  N_3
REMARK    3  A    between atoms: C_6  and  C_7
REMARK    4  A    between atoms: C_8  and  C_9
REMARK    5  A    between atoms: C_9  and  C_11
REMARK    6  A    between atoms: C_12  and  C_13
REMARK                            x       y       z     vdW  Elec       q    Type
REMARK                         _______ _______ _______ _____ _____    ______ ____
ROOT
ATOM      1  C   UNL     1       6.472   5.684  18.231  0.00  0.00    +0.000 C 
ATOM      2  O   UNL     1       7.363   6.045  18.998  0.00  0.00    +0.000 OA
ENDROOT
BRANCH   1   8
ATOM      3  N   UNL     1       2.260   3.491  20.263  0.00  0.00    +0.000 N 
ATOM      4  C   UNL     1       3.133   4.309  19.633  0.00  0.00    +0.000 A 
ATOM      5  N   UNL     1       2.810   5.398  18.979  0.00  0.00    +0.000 NA
ATOM      6  C   UNL     1       3.935   5.997  18.427  0.00  0.00    +0.000 A 
ATOM      7  C   UNL     1       3.735   7.256  17.662  0.00  0.00    +0.000 C 
ATOM      8  C   UNL     1       5.130   5.341  18.682  0.00  0.00    +0.000 A 
ATOM      9  S   UNL     1       4.805   3.938  19.623  0.00  0.00    +0.000 S 
ATOM     10  H   UNL     1       2.623   2.580  20.520  0.00  0.00    +0.000 HD
BRANCH   3  12
ATOM     11  C   UNL     1       0.712   2.412  18.725  0.00  0.00    +0.000 C 
ATOM     12  C   UNL     1       0.888   3.487  19.784  0.00  0.00    +0.000 C 
ENDBRANCH   3  12
ENDBRANCH   1   8
BRANCH   1  13
ATOM     13  C   UNL     1       6.777   5.543  16.769  0.00  0.00    +0.000 C 
ATOM     14  C   UNL     1       6.249   4.576  15.998  0.00  0.00    +0.000 C 
BRANCH  14  15
ATOM     15  C   UNL     1       6.555   4.470  14.559  0.00  0.00    +0.000 A 
ATOM     16  C   UNL     1       7.529   5.276  13.944  0.00  0.00    +0.000 A 
ATOM     17  C   UNL     1       7.789   5.172  12.577  0.00  0.00    +0.000 A 
ATOM     18  C   UNL     1       7.096   4.243  11.805  0.00  0.00    +0.000 A 
ATOM     19  C   UNL     1       6.152   3.417  12.412  0.00  0.00    +0.000 A 
ATOM     20 CL   UNL     1       5.305   2.259  11.459  0.00  0.00    +0.000 Cl
ATOM     21  C   UNL     1       5.883   3.521  13.779  0.00  0.00    +0.000 A 
ENDBRANCH  14  15
ENDBRANCH   1  13
TORSDOF 4
ENDMDL
MODEL 2
REMARK VINA RESULT:      -6.9      4.820      7.945
REMARK  Name = 
REMARK  6 active torsions:
REMARK  status: ('A' for Active; 'I' for Inactive)
REMARK    1  A    between atoms: C_1  and  C_2
REMARK    2  A    between atoms: C_2  and  N_3
REMARK    3  A    between atoms: C_6  and  C_7
REMARK    4  A    between atoms: C_8  and  C_9
REMARK    5  A    between atoms: C_9  and  C_11
REMARK    6  A    between atoms: C_12  and  C_13
REMARK                            x       y       z     vdW  Elec       q    Type
REMARK                         _______ _______ _______ _____ _____    ______ ____
ROOT
ATOM      1  C   UNL     1       2.412   4.589  20.631  0.00  0.00    +0.000 C 
ATOM      2  O   UNL     1       2.426   3.855  21.617  0.00  0.00    +0.000 OA
ENDROOT
BRANCH   1   8
ATOM      3  N   UNL     1       5.901   3.836  16.899  0.00  0.00    +0.000 N 
ATOM      4  C   UNL     1       4.766   3.925  17.628  0.00  0.00    +0.000 A 
ATOM      5  N   UNL     1       3.557   3.701  17.174  0.00  0.00    +0.000 NA
ATOM      6  C   UNL     1       2.609   3.902  18.169  0.00  0.00    +0.000 A 
ATOM      7  C   UNL     1       1.183   3.674  17.812  0.00  0.00    +0.000 C 
ATOM      8  C   UNL     1       3.126   4.277  19.400  0.00  0.00    +0.000 A 
ATOM      9  S   UNL     1       4.837   4.390  19.275  0.00  0.00    +0.000 S 
ATOM     10  H   UNL     1       6.723   4.258  17.316  0.00  0.00    +0.000 HD
BRANCH   3  12
ATOM     11  C   UNL     1       5.756   5.504  15.132  0.00  0.00    +0.000 C 
ATOM     12  C   UNL     1       5.784   4.022  15.462  0.00  0.00    +0.000 C 
ENDBRANCH   3  12
ENDBRANCH   1   8
BRANCH   1  13
ATOM     13  C   UNL     1       1.665   5.890  20.697  0.00  0.00    +0.000 C 
ATOM     14  C   UNL     1       2.173   7.052  20.254  0.00  0.00    +0.000 C 
BRANCH  14  15
ATOM     15  C   UNL     1       1.411   8.314  20.319  0.00  0.00    +0.000 A 
ATOM     16  C   UNL     1       1.297   9.171  19.211  0.00  0.00    +0.000 A 
ATOM     17  C   UNL     1       0.587  10.369  19.299  0.00  0.00    +0.000 A 
ATOM     18  C   UNL     1      -0.041  10.719  20.491  0.00  0.00    +0.000 A 
ATOM     19  C   UNL     1       0.039   9.861  21.586  0.00  0.00    +0.000 A 
ATOM     20 CL   UNL     1      -0.748  10.289  23.056  0.00  0.00    +0.000 Cl
ATOM     21  C   UNL     1       0.754   8.662  21.505  0.00  0.00    +0.000 A 
ENDBRANCH  14  15
ENDBRANCH   1  13
TORSDOF 4
ENDMDL
MODEL 3
REMARK VINA RESULT:      -6.8      4.937      6.409
REMARK  Name = 
REMARK  6 active torsions:
REMARK  status: ('A' for Active; 'I' for Inactive)
REMARK    1  A    between atoms: C_1  and  C_2
REMARK    2  A    between atoms: C_2  and  N_3
REMARK    3  A    between atoms: C_6  and  C_7
REMARK    4  A    between atoms: C_8  and  C_9
REMARK    5  A    between atoms: C_9  and  C_11
REMARK    6  A    between atoms: C_12  and  C_13
REMARK                            x       y       z     vdW  Elec       q    Type
REMARK                         _______ _______ _______ _____ _____    ______ ____
ROOT
ATOM      1  C   UNL     1       7.176   6.722  17.329  0.00  0.00    +0.000 C 
ATOM      2  O   UNL     1       7.627   6.452  16.217  0.00  0.00    +0.000 OA
ENDROOT
BRANCH   1   8
ATOM      3  N   UNL     1       4.014   3.407  19.714  0.00  0.00    +0.000 N 
ATOM      4  C   UNL     1       4.544   4.451  19.037  0.00  0.00    +0.000 A 
ATOM      5  N   UNL     1       3.859   5.433  18.505  0.00  0.00    +0.000 NA
ATOM      6  C   UNL     1       4.698   6.331  17.859  0.00  0.00    +0.000 A 
ATOM      7  C   UNL     1       4.070   7.514  17.212  0.00  0.00    +0.000 C 
ATOM      8  C   UNL     1       6.047   6.015  17.919  0.00  0.00    +0.000 A 
ATOM      9  S   UNL     1       6.237   4.546  18.794  0.00  0.00    +0.000 S 
ATOM     10  H   UNL     1       4.636   2.621  19.861  0.00  0.00    +0.000 HD
BRANCH   3  12
ATOM     11  C   UNL     1       1.849   2.888  20.697  0.00  0.00    +0.000 C 
ATOM     12  C   UNL     1       2.638   3.048  19.410  0.00  0.00    +0.000 C 
ENDBRANCH   3  12
ENDBRANCH   1   8
BRANCH   1  13
ATOM     13  C   UNL     1       7.776   7.856  18.107  0.00  0.00    +0.000 C 
ATOM     14  C   UNL     1       8.107   9.034  17.552  0.00  0.00    +0.000 C 
BRANCH  14  15
ATOM     15  C   UNL     1       8.682  10.138  18.345  0.00  0.00    +0.000 A 
ATOM     16  C   UNL     1       9.305   9.917  19.586  0.00  0.00    +0.000 A 
ATOM     17  C   UNL     1       9.825  10.978  20.327  0.00  0.00    +0.000 A 
ATOM     18  C   UNL     1       9.753  12.276  19.830  0.00  0.00    +0.000 A 
ATOM     19  C   UNL     1       9.167  12.502  18.587  0.00  0.00    +0.000 A 
ATOM     20 CL   UNL     1       9.090  14.106  17.967  0.00  0.00    +0.000 Cl
ATOM     21  C   UNL     1       8.638  11.444  17.842  0.00  0.00    +0.000 A 
ENDBRANCH  14  15
ENDBRANCH   1  13
TORSDOF 4
ENDMDL
MODEL 4
REMARK VINA RESULT:      -6.8      5.115      6.685
REMARK  Name = 
REMARK  6 active torsions:
REMARK  status: ('A' for Active; 'I' for Inactive)
REMARK    1  A    between atoms: C_1  and  C_2
REMARK    2  A    between atoms: C_2  and  N_3
REMARK    3  A    between atoms: C_6  and  C_7
REMARK    4  A    between atoms: C_8  and  C_9
REMARK    5  A    between atoms: C_9  and  C_11
REMARK    6  A    between atoms: C_12  and  C_13
REMARK                            x       y       z     vdW  Elec       q    Type
REMARK                         _______ _______ _______ _____ _____    ______ ____
ROOT
ATOM      1  C   UNL     1       7.387   6.911  17.269  0.00  0.00    +0.000 C 
ATOM      2  O   UNL     1       7.673   6.599  16.115  0.00  0.00    +0.000 OA
ENDROOT
BRANCH   1   8
ATOM      3  N   UNL     1       2.763   5.376  18.982  0.00  0.00    +0.000 N 
ATOM      4  C   UNL     1       4.085   5.602  18.814  0.00  0.00    +0.000 A 
ATOM      5  N   UNL     1       5.027   5.224  19.643  0.00  0.00    +0.000 NA
ATOM      6  C   UNL     1       6.276   5.632  19.194  0.00  0.00    +0.000 A 
ATOM      7  C   UNL     1       7.456   5.266  20.023  0.00  0.00    +0.000 C 
ATOM      8  C   UNL     1       6.266   6.326  17.993  0.00  0.00    +0.000 A 
ATOM      9  S   UNL     1       4.642   6.470  17.447  0.00  0.00    +0.000 S 
ATOM     10  H   UNL     1       2.148   5.921  18.389  0.00  0.00    +0.000 HD
BRANCH   3  12
ATOM     11  C   UNL     1       1.612   3.834  20.473  0.00  0.00    +0.000 C 
ATOM     12  C   UNL     1       2.288   5.188  20.343  0.00  0.00    +0.000 C 
ENDBRANCH   3  12
ENDBRANCH   1   8
BRANCH   1  13
ATOM     13  C   UNL     1       8.193   7.971  17.962  0.00  0.00    +0.000 C 
ATOM     14  C   UNL     1       8.038   9.284  17.723  0.00  0.00    +0.000 C 
BRANCH  14  15
ATOM     15  C   UNL     1       8.834  10.306  18.430  0.00  0.00    +0.000 A 
ATOM     16  C   UNL     1       9.226  10.147  19.770  0.00  0.00    +0.000 A 
ATOM     17  C   UNL     1       9.963  11.135  20.425  0.00  0.00    +0.000 A 
ATOM     18  C   UNL     1      10.340  12.289  19.744  0.00  0.00    +0.000 A 
ATOM     19  C   UNL     1       9.983  12.442  18.406  0.00  0.00    +0.000 A 
ATOM     20 CL   UNL     1      10.460  13.864  17.561  0.00  0.00    +0.000 Cl
ATOM     21  C   UNL     1       9.240  11.458  17.746  0.00  0.00    +0.000 A 
ENDBRANCH  14  15
ENDBRANCH   1  13
TORSDOF 4
ENDMDL
MODEL 5
REMARK VINA RESULT:      -6.8      4.172      7.347
REMARK  Name = 
REMARK  6 active torsions:
REMARK  status: ('A' for Active; 'I' for Inactive)
REMARK    1  A    between atoms: C_1  and  C_2
REMARK    2  A    between atoms: C_2  and  N_3
REMARK    3  A    between atoms: C_6  and  C_7
REMARK    4  A    between atoms: C_8  and  C_9
REMARK    5  A    between atoms: C_9  and  C_11
REMARK    6  A    between atoms: C_12  and  C_13
REMARK                            x       y       z     vdW  Elec       q    Type
REMARK                         _______ _______ _______ _____ _____    ______ ____
ROOT
ATOM      1  C   UNL     1       5.007   5.240  18.928  0.00  0.00    +0.000 C 
ATOM      2  O   UNL     1       5.547   4.577  19.811  0.00  0.00    +0.000 OA
ENDROOT
BRANCH   1   8
ATOM      3  N   UNL     1       5.580   4.036  13.938  0.00  0.00    +0.000 N 
ATOM      4  C   UNL     1       5.677   4.588  15.168  0.00  0.00    +0.000 A 
ATOM      5  N   UNL     1       6.531   5.519  15.514  0.00  0.00    +0.000 NA
ATOM      6  C   UNL     1       6.387   5.851  16.855  0.00  0.00    +0.000 A 
ATOM      7  C   UNL     1       7.280   6.909  17.399  0.00  0.00    +0.000 C 
ATOM      8  C   UNL     1       5.393   5.154  17.526  0.00  0.00    +0.000 A 
ATOM      9  S   UNL     1       4.651   4.053  16.432  0.00  0.00    +0.000 S 
ATOM     10  H   UNL     1       5.043   3.178  13.884  0.00  0.00    +0.000 HD
BRANCH   3  12
ATOM     11  C   UNL     1       6.587   3.139  11.911  0.00  0.00    +0.000 C 
ATOM     12  C   UNL     1       6.771   4.062  13.104  0.00  0.00    +0.000 C 
ENDBRANCH   3  12
ENDBRANCH   1   8
BRANCH   1  13
ATOM     13  C   UNL     1       3.930   6.217  19.299  0.00  0.00    +0.000 C 
ATOM     14  C   UNL     1       3.351   7.044  18.412  0.00  0.00    +0.000 C 
BRANCH  14  15
ATOM     15  C   UNL     1       2.284   7.985  18.802  0.00  0.00    +0.000 A 
ATOM     16  C   UNL     1       1.675   8.845  17.872  0.00  0.00    +0.000 A 
ATOM     17  C   UNL     1       0.680   9.741  18.266  0.00  0.00    +0.000 A 
ATOM     18  C   UNL     1       0.260   9.775  19.593  0.00  0.00    +0.000 A 
ATOM     19  C   UNL     1       0.835   8.904  20.516  0.00  0.00    +0.000 A 
ATOM     20 CL   UNL     1       0.306   8.938  22.154  0.00  0.00    +0.000 Cl
ATOM     21  C   UNL     1       1.836   8.009  20.128  0.00  0.00    +0.000 A 
ENDBRANCH  14  15
ENDBRANCH   1  13
TORSDOF 4
ENDMDL
MODEL 6
REMARK VINA RESULT:      -6.7      5.299      6.861
REMARK  Name = 
REMARK  6 active torsions:
REMARK  status: ('A' for Active; 'I' for Inactive)
REMARK    1  A    between atoms: C_1  and  C_2
REMARK    2  A    between atoms: C_2  and  N_3
REMARK    3  A    between atoms: C_6  and  C_7
REMARK    4  A    between atoms: C_8  and  C_9
REMARK    5  A    between atoms: C_9  and  C_11
REMARK    6  A    between atoms: C_12  and  C_13
REMARK                            x       y       z     vdW  Elec       q    Type
REMARK                         _______ _______ _______ _____ _____    ______ ____
ROOT
ATOM      1  C   UNL     1       7.327   7.067  17.114  0.00  0.00    +0.000 C 
ATOM      2  O   UNL     1       7.936   6.619  16.145  0.00  0.00    +0.000 OA
ENDROOT
BRANCH   1   8
ATOM      3  N   UNL     1       3.044   4.759  18.850  0.00  0.00    +0.000 N 
ATOM      4  C   UNL     1       4.307   5.211  18.677  0.00  0.00    +0.000 A 
ATOM      5  N   UNL     1       5.303   5.006  19.504  0.00  0.00    +0.000 NA
ATOM      6  C   UNL     1       6.460   5.623  19.048  0.00  0.00    +0.000 A 
ATOM      7  C   UNL     1       7.688   5.471  19.874  0.00  0.00    +0.000 C 
ATOM      8  C   UNL     1       6.327   6.299  17.845  0.00  0.00    +0.000 A 
ATOM      9  S   UNL     1       4.700   6.156  17.304  0.00  0.00    +0.000 S 
ATOM     10  H   UNL     1       2.342   5.187  18.258  0.00  0.00    +0.000 HD
BRANCH   3  12
ATOM     11  C   UNL     1       1.749   5.643  20.712  0.00  0.00    +0.000 C 
ATOM     12  C   UNL     1       2.614   4.497  20.214  0.00  0.00    +0.000 C 
ENDBRANCH   3  12
ENDBRANCH   1   8
BRANCH   1  13
ATOM     13  C   UNL     1       7.581   8.480  17.551  0.00  0.00    +0.000 C 
ATOM     14  C   UNL     1       8.637   8.838  18.301  0.00  0.00    +0.000 C 
BRANCH  14  15
ATOM     15  C   UNL     1       8.871  10.238  18.703  0.00  0.00    +0.000 A 
ATOM     16  C   UNL     1       8.841  11.294  17.776  0.00  0.00    +0.000 A 
ATOM     17  C   UNL     1       9.083  12.609  18.176  0.00  0.00    +0.000 A 
ATOM     18  C   UNL     1       9.337  12.894  19.514  0.00  0.00    +0.000 A 
ATOM     19  C   UNL     1       9.338  11.859  20.447  0.00  0.00    +0.000 A 
ATOM     20 CL   UNL     1       9.639  12.214  22.104  0.00  0.00    +0.000 Cl
ATOM     21  C   UNL     1       9.101  10.539  20.052  0.00  0.00    +0.000 A 
ENDBRANCH  14  15
ENDBRANCH   1  13
TORSDOF 4
ENDMDL
MODEL 7
REMARK VINA RESULT:      -6.6      5.553      7.004
REMARK  Name = 
REMARK  6 active torsions:
REMARK  status: ('A' for Active; 'I' for Inactive)
REMARK    1  A    between atoms: C_1  and  C_2
REMARK    2  A    between atoms: C_2  and  N_3
REMARK    3  A    between atoms: C_6  and  C_7
REMARK    4  A    between atoms: C_8  and  C_9
REMARK    5  A    between atoms: C_9  and  C_11
REMARK    6  A    between atoms: C_12  and  C_13
REMARK                            x       y       z     vdW  Elec       q    Type
REMARK                         _______ _______ _______ _____ _____    ______ ____
ROOT
ATOM      1  C   UNL     1       1.727   9.431  18.305  0.00  0.00    +0.000 C 
ATOM      2  O   UNL     1       2.369  10.206  17.599  0.00  0.00    +0.000 OA
ENDROOT
BRANCH   1   8
ATOM      3  N   UNL     1      -1.536  11.953  21.416  0.00  0.00    +0.000 N 
ATOM      4  C   UNL     1      -0.673  11.067  20.868  0.00  0.00    +0.000 A 
ATOM      5  N   UNL     1      -0.198  10.004  21.470  0.00  0.00    +0.000 NA
ATOM      6  C   UNL     1       0.681   9.318  20.644  0.00  0.00    +0.000 A 
ATOM      7  C   UNL     1       1.298   8.075  21.181  0.00  0.00    +0.000 C 
ATOM      8  C   UNL     1       0.862   9.879  19.388  0.00  0.00    +0.000 A 
ATOM      9  S   UNL     1      -0.091  11.307  19.275  0.00  0.00    +0.000 S 
ATOM     10  H   UNL     1      -1.629  12.834  20.923  0.00  0.00    +0.000 HD
BRANCH   3  12
ATOM     11  C   UNL     1      -2.972  12.212  23.364  0.00  0.00    +0.000 C 
ATOM     12  C   UNL     1      -1.545  12.062  22.865  0.00  0.00    +0.000 C 
ENDBRANCH   3  12
ENDBRANCH   1   8
BRANCH   1  13
ATOM     13  C   UNL     1       1.863   7.953  18.083  0.00  0.00    +0.000 C 
ATOM     14  C   UNL     1       3.050   7.332  17.983  0.00  0.00    +0.000 C 
BRANCH  14  15
ATOM     15  C   UNL     1       3.154   5.874  17.779  0.00  0.00    +0.000 A 
ATOM     16  C   UNL     1       4.272   5.288  17.161  0.00  0.00    +0.000 A 
ATOM     17  C   UNL     1       4.342   3.908  16.962  0.00  0.00    +0.000 A 
ATOM     18  C   UNL     1       3.305   3.089  17.396  0.00  0.00    +0.000 A 
ATOM     19  C   UNL     1       2.206   3.657  18.038  0.00  0.00    +0.000 A 
ATOM     20 CL   UNL     1       0.929   2.641  18.587  0.00  0.00    +0.000 Cl
ATOM     21  C   UNL     1       2.128   5.039  18.236  0.00  0.00    +0.000 A 
ENDBRANCH  14  15
ENDBRANCH   1  13
TORSDOF 4
ENDMDL
MODEL 8
REMARK VINA RESULT:      -6.6      4.650      8.041
REMARK  Name = 
REMARK  6 active torsions:
REMARK  status: ('A' for Active; 'I' for Inactive)
REMARK    1  A    between atoms: C_1  and  C_2
REMARK    2  A    between atoms: C_2  and  N_3
REMARK    3  A    between atoms: C_6  and  C_7
REMARK    4  A    between atoms: C_8  and  C_9
REMARK    5  A    between atoms: C_9  and  C_11
REMARK    6  A    between atoms: C_12  and  C_13
REMARK                            x       y       z     vdW  Elec       q    Type
REMARK                         _______ _______ _______ _____ _____    ______ ____
ROOT
ATOM      1  C   UNL     1       2.388   4.892  20.568  0.00  0.00    +0.000 C 
ATOM      2  O   UNL     1       2.398   4.001  21.415  0.00  0.00    +0.000 OA
ENDROOT
BRANCH   1   8
ATOM      3  N   UNL     1       6.016   5.058  16.895  0.00  0.00    +0.000 N 
ATOM      4  C   UNL     1       4.867   4.903  17.591  0.00  0.00    +0.000 A 
ATOM      5  N   UNL     1       3.712   4.560  17.076  0.00  0.00    +0.000 NA
ATOM      6  C   UNL     1       2.727   4.513  18.055  0.00  0.00    +0.000 A 
ATOM      7  C   UNL     1       1.356   4.124  17.629  0.00  0.00    +0.000 C 
ATOM      8  C   UNL     1       3.161   4.822  19.335  0.00  0.00    +0.000 A 
ATOM      9  S   UNL     1       4.840   5.191  19.280  0.00  0.00    +0.000 S 
ATOM     10  H   UNL     1       6.759   5.545  17.382  0.00  0.00    +0.000 HD
BRANCH   3  12
ATOM     11  C   UNL     1       6.560   4.298  14.648  0.00  0.00    +0.000 C 
ATOM     12  C   UNL     1       5.898   5.381  15.483  0.00  0.00    +0.000 C 
ENDBRANCH   3  12
ENDBRANCH   1   8
BRANCH   1  13
ATOM     13  C   UNL     1       1.582   6.133  20.819  0.00  0.00    +0.000 C 
ATOM     14  C   UNL     1       1.997   7.362  20.468  0.00  0.00    +0.000 C 
BRANCH  14  15
ATOM     15  C   UNL     1       1.177   8.564  20.714  0.00  0.00    +0.000 A 
ATOM     16  C   UNL     1       0.764   8.931  22.007  0.00  0.00    +0.000 A 
ATOM     17  C   UNL     1      -0.026  10.061  22.215  0.00  0.00    +0.000 A 
ATOM     18  C   UNL     1      -0.399  10.858  21.136  0.00  0.00    +0.000 A 
ATOM     19  C   UNL     1       0.031  10.521  19.855  0.00  0.00    +0.000 A 
ATOM     20 CL   UNL     1      -0.419  11.514  18.523  0.00  0.00    +0.000 Cl
ATOM     21  C   UNL     1       0.819   9.386  19.639  0.00  0.00    +0.000 A 
ENDBRANCH  14  15
ENDBRANCH   1  13
TORSDOF 4
ENDMDL
MODEL 9
REMARK VINA RESULT:      -6.6      3.932      7.319
REMARK  Name = 
REMARK  6 active torsions:
REMARK  status: ('A' for Active; 'I' for Inactive)
REMARK    1  A    between atoms: C_1  and  C_2
REMARK    2  A    between atoms: C_2  and  N_3
REMARK    3  A    between atoms: C_6  and  C_7
REMARK    4  A    between atoms: C_8  and  C_9
REMARK    5  A    between atoms: C_9  and  C_11
REMARK    6  A    between atoms: C_12  and  C_13
REMARK                            x       y       z     vdW  Elec       q    Type
REMARK                         _______ _______ _______ _____ _____    ______ ____
ROOT
ATOM      1  C   UNL     1       5.095   4.585  18.914  0.00  0.00    +0.000 C 
ATOM      2  O   UNL     1       5.493   3.671  19.634  0.00  0.00    +0.000 OA
ENDROOT
BRANCH   1   8
ATOM      3  N   UNL     1       5.783   4.171  13.812  0.00  0.00    +0.000 N 
ATOM      4  C   UNL     1       5.837   4.537  15.112  0.00  0.00    +0.000 A 
ATOM      5  N   UNL     1       6.637   5.448  15.608  0.00  0.00    +0.000 NA
ATOM      6  C   UNL     1       6.462   5.568  16.980  0.00  0.00    +0.000 A 
ATOM      7  C   UNL     1       7.293   6.576  17.692  0.00  0.00    +0.000 C 
ATOM      8  C   UNL     1       5.500   4.729  17.522  0.00  0.00    +0.000 A 
ATOM      9  S   UNL     1       4.828   3.768  16.264  0.00  0.00    +0.000 S 
ATOM     10  H   UNL     1       5.291   3.305  13.622  0.00  0.00    +0.000 HD
BRANCH   3  12
ATOM     11  C   UNL     1       6.921   3.524  11.759  0.00  0.00    +0.000 C 
ATOM     12  C   UNL     1       6.978   4.381  13.012  0.00  0.00    +0.000 C 
ENDBRANCH   3  12
ENDBRANCH   1   8
BRANCH   1  13
ATOM     13  C   UNL     1       4.187   5.631  19.491  0.00  0.00    +0.000 C 
ATOM     14  C   UNL     1       3.250   6.269  18.770  0.00  0.00    +0.000 C 
BRANCH  14  15
ATOM     15  C   UNL     1       2.361   7.284  19.367  0.00  0.00    +0.000 A 
ATOM     16  C   UNL     1       1.833   7.141  20.662  0.00  0.00    +0.000 A 
ATOM     17  C   UNL     1       0.978   8.104  21.200  0.00  0.00    +0.000 A 
ATOM     18  C   UNL     1       0.655   9.238  20.462  0.00  0.00    +0.000 A 
ATOM     19  C   UNL     1       1.198   9.405  19.189  0.00  0.00    +0.000 A 
ATOM     20 CL   UNL     1       0.807  10.814  18.281  0.00  0.00    +0.000 Cl
ATOM     21  C   UNL     1       2.050   8.441  18.642  0.00  0.00    +0.000 A 
ENDBRANCH  14  15
ENDBRANCH   1  13
TORSDOF 4
ENDMDL
