MODEL 1
REMARK VINA RESULT:      -6.6      0.000      0.000
REMARK  Name = 
REMARK  5 active torsions:
REMARK  status: ('A' for Active; 'I' for Inactive)
REMARK    1  A    between atoms: C_2  and  C_3
REMARK    2  A    between atoms: C_3  and  C_4
REMARK    3  A    between atoms: C_6  and  C_7
REMARK    4  A    between atoms: N_10  and  C_11
REMARK    5  A    between atoms: C_11  and  C_12
REMARK                            x       y       z     vdW  Elec       q    Type
REMARK                         _______ _______ _______ _____ _____    ______ ____
ROOT
ATOM      1  C   UNL     1       4.790   4.713  18.683  0.00  0.00    +0.000 A 
ATOM      2  C   UNL     1       4.337   5.599  17.584  0.00  0.00    +0.000 A 
ATOM      3  N   UNL     1       5.036   5.970  16.565  0.00  0.00    +0.000 NA
ATOM      4  N   UNL     1       6.339   5.511  16.499  0.00  0.00    +0.000 N 
ATOM      5  C   UNL     1       6.928   4.712  17.468  0.00  0.00    +0.000 A 
ATOM      6  O   UNL     1       8.101   4.344  17.471  0.00  0.00    +0.000 OA
ATOM      7  C   UNL     1       6.058   4.302  18.594  0.00  0.00    +0.000 A 
ENDROOT
BRANCH   1   9
ATOM      8  C   UNL     1       3.278   3.235  20.028  0.00  0.00    +0.000 C 
ATOM      9  C   UNL     1       3.900   4.406  19.788  0.00  0.00    +0.000 C 
BRANCH   8  11
ATOM     10  N   UNL     1       3.500   1.205  18.446  0.00  0.00    +0.000 NA
ATOM     11  C   UNL     1       3.393   2.114  19.159  0.00  0.00    +0.000 C 
ENDBRANCH   8  11
BRANCH   8  12
ATOM     12  C   UNL     1       2.456   3.112  21.183  0.00  0.00    +0.000 C 
ATOM     13  N   UNL     1       1.800   2.984  22.132  0.00  0.00    +0.000 NA
ENDBRANCH   8  12
ENDBRANCH   1   9
BRANCH   4  14
ATOM     14  C   UNL     1       7.112   5.898  15.319  0.00  0.00    +0.000 C 
BRANCH  14  15
ATOM     15  C   UNL     1       6.850   4.981  14.146  0.00  0.00    +0.000 A 
ATOM     16  C   UNL     1       7.670   5.028  13.010  0.00  0.00    +0.000 A 
ATOM     17  C   UNL     1       7.379   4.243  11.892  0.00  0.00    +0.000 A 
ATOM     18  C   UNL     1       6.267   3.403  11.900  0.00  0.00    +0.000 A 
ATOM     19  C   UNL     1       5.456   3.331  13.031  0.00  0.00    +0.000 A 
ATOM     20  C   UNL     1       5.745   4.116  14.150  0.00  0.00    +0.000 A 
ENDBRANCH  14  15
ENDBRANCH   4  14
TORSDOF 5
ENDMDL
MODEL 2
REMARK VINA RESULT:      -6.6      6.057      8.186
REMARK  Name = 
REMARK  5 active torsions:
REMARK  status: ('A' for Active; 'I' for Inactive)
REMARK    1  A    between atoms: C_2  and  C_3
REMARK    2  A    between atoms: C_3  and  C_4
REMARK    3  A    between atoms: C_6  and  C_7
REMARK    4  A    between atoms: N_10  and  C_11
REMARK    5  A    between atoms: C_11  and  C_12
REMARK                            x       y       z     vdW  Elec       q    Type
REMARK                         _______ _______ _______ _____ _____    ______ ____
ROOT
ATOM      1  C   UNL     1       0.613   9.977  19.830  0.00  0.00    +0.000 A 
ATOM      2  C   UNL     1       0.826   8.918  20.845  0.00  0.00    +0.000 A 
ATOM      3  N   UNL     1       1.549   7.858  20.702  0.00  0.00    +0.000 NA
ATOM      4  N   UNL     1       2.171   7.684  19.479  0.00  0.00    +0.000 N 
ATOM      5  C   UNL     1       2.037   8.560  18.412  0.00  0.00    +0.000 A 
ATOM      6  O   UNL     1       2.521   8.398  17.293  0.00  0.00    +0.000 OA
ATOM      7  C   UNL     1       1.216   9.768  18.656  0.00  0.00    +0.000 A 
ENDROOT
BRANCH   1   9
ATOM      8  C   UNL     1      -1.449  11.374  19.553  0.00  0.00    +0.000 C 
ATOM      9  C   UNL     1      -0.257  11.102  20.119  0.00  0.00    +0.000 C 
BRANCH   8  11
ATOM     10  N   UNL     1      -2.451   9.920  17.668  0.00  0.00    +0.000 NA
ATOM     11  C   UNL     1      -2.008  10.571  18.519  0.00  0.00    +0.000 C 
ENDBRANCH   8  11
BRANCH   8  12
ATOM     12  C   UNL     1      -2.175  12.520  19.985  0.00  0.00    +0.000 C 
ATOM     13  N   UNL     1      -2.791  13.446  20.315  0.00  0.00    +0.000 NA
ENDBRANCH   8  12
ENDBRANCH   1   9
BRANCH   4  14
ATOM     14  C   UNL     1       3.024   6.505  19.338  0.00  0.00    +0.000 C 
BRANCH  14  15
ATOM     15  C   UNL     1       2.222   5.223  19.332  0.00  0.00    +0.000 A 
ATOM     16  C   UNL     1       1.796   4.645  20.536  0.00  0.00    +0.000 A 
ATOM     17  C   UNL     1       1.129   3.418  20.537  0.00  0.00    +0.000 A 
ATOM     18  C   UNL     1       0.880   2.759  19.334  0.00  0.00    +0.000 A 
ATOM     19  C   UNL     1       1.278   3.334  18.129  0.00  0.00    +0.000 A 
ATOM     20  C   UNL     1       1.945   4.561  18.126  0.00  0.00    +0.000 A 
ENDBRANCH  14  15
ENDBRANCH   4  14
TORSDOF 5
ENDMDL
MODEL 3
REMARK VINA RESULT:      -6.5      5.996      8.103
REMARK  Name = 
REMARK  5 active torsions:
REMARK  status: ('A' for Active; 'I' for Inactive)
REMARK    1  A    between atoms: C_2  and  C_3
REMARK    2  A    between atoms: C_3  and  C_4
REMARK    3  A    between atoms: C_6  and  C_7
REMARK    4  A    between atoms: N_10  and  C_11
REMARK    5  A    between atoms: C_11  and  C_12
REMARK                            x       y       z     vdW  Elec       q    Type
REMARK                         _______ _______ _______ _____ _____    ______ ____
ROOT
ATOM      1  C   UNL     1       0.637   9.925  19.747  0.00  0.00    +0.000 A 
ATOM      2  C   UNL     1       0.861   8.868  20.762  0.00  0.00    +0.000 A 
ATOM      3  N   UNL     1       1.606   7.823  20.624  0.00  0.00    +0.000 NA
ATOM      4  N   UNL     1       2.243   7.664  19.406  0.00  0.00    +0.000 N 
ATOM      5  C   UNL     1       2.102   8.539  18.340  0.00  0.00    +0.000 A 
ATOM      6  O   UNL     1       2.600   8.390  17.226  0.00  0.00    +0.000 OA
ATOM      7  C   UNL     1       1.255   9.731  18.579  0.00  0.00    +0.000 A 
ENDROOT
BRANCH   1   9
ATOM      8  C   UNL     1      -1.452  11.279  19.458  0.00  0.00    +0.000 C 
ATOM      9  C   UNL     1      -0.257  11.032  20.031  0.00  0.00    +0.000 C 
BRANCH   8  11
ATOM     10  N   UNL     1      -2.439   9.800  17.585  0.00  0.00    +0.000 NA
ATOM     11  C   UNL     1      -1.988  10.463  18.423  0.00  0.00    +0.000 C 
ENDBRANCH   8  11
BRANCH   8  12
ATOM     12  C   UNL     1      -2.204  12.410  19.884  0.00  0.00    +0.000 C 
ATOM     13  N   UNL     1      -2.814  13.322  20.263  0.00  0.00    +0.000 NA
ENDBRANCH   8  12
ENDBRANCH   1   9
BRANCH   4  14
ATOM     14  C   UNL     1       3.121   6.502  19.272  0.00  0.00    +0.000 C 
BRANCH  14  15
ATOM     15  C   UNL     1       2.351   5.202  19.332  0.00  0.00    +0.000 A 
ATOM     16  C   UNL     1       1.977   4.542  18.152  0.00  0.00    +0.000 A 
ATOM     17  C   UNL     1       1.194   3.387  18.203  0.00  0.00    +0.000 A 
ATOM     18  C   UNL     1       0.778   2.880  19.433  0.00  0.00    +0.000 A 
ATOM     19  C   UNL     1       1.160   3.514  20.613  0.00  0.00    +0.000 A 
ATOM     20  C   UNL     1       1.944   4.669  20.564  0.00  0.00    +0.000 A 
ENDBRANCH  14  15
ENDBRANCH   4  14
TORSDOF 5
ENDMDL
MODEL 4
REMARK VINA RESULT:      -6.5      0.061      1.081
REMARK  Name = 
REMARK  5 active torsions:
REMARK  status: ('A' for Active; 'I' for Inactive)
REMARK    1  A    between atoms: C_2  and  C_3
REMARK    2  A    between atoms: C_3  and  C_4
REMARK    3  A    between atoms: C_6  and  C_7
REMARK    4  A    between atoms: N_10  and  C_11
REMARK    5  A    between atoms: C_11  and  C_12
REMARK                            x       y       z     vdW  Elec       q    Type
REMARK                         _______ _______ _______ _____ _____    ______ ____
ROOT
ATOM      1  C   UNL     1       4.772   4.730  18.631  0.00  0.00    +0.000 A 
ATOM      2  C   UNL     1       4.328   5.605  17.520  0.00  0.00    +0.000 A 
ATOM      3  N   UNL     1       5.036   5.968  16.504  0.00  0.00    +0.000 NA
ATOM      4  N   UNL     1       6.341   5.513  16.455  0.00  0.00    +0.000 N 
ATOM      5  C   UNL     1       6.922   4.723  17.436  0.00  0.00    +0.000 A 
ATOM      6  O   UNL     1       8.096   4.359  17.455  0.00  0.00    +0.000 OA
ATOM      7  C   UNL     1       6.042   4.321  18.558  0.00  0.00    +0.000 A 
ENDROOT
BRANCH   1   9
ATOM      8  C   UNL     1       3.266   3.254  19.985  0.00  0.00    +0.000 C 
ATOM      9  C   UNL     1       3.873   4.430  19.729  0.00  0.00    +0.000 C 
BRANCH   8  11
ATOM     10  N   UNL     1       3.513   1.195  18.446  0.00  0.00    +0.000 NA
ATOM     11  C   UNL     1       3.410   2.118  19.139  0.00  0.00    +0.000 C 
ENDBRANCH   8  11
BRANCH   8  12
ATOM     12  C   UNL     1       2.430   3.141  21.131  0.00  0.00    +0.000 C 
ATOM     13  N   UNL     1       1.771   3.033  22.081  0.00  0.00    +0.000 NA
ENDBRANCH   8  12
ENDBRANCH   1   9
BRANCH   4  14
ATOM     14  C   UNL     1       7.125   5.891  15.280  0.00  0.00    +0.000 C 
BRANCH  14  15
ATOM     15  C   UNL     1       6.796   5.030  14.080  0.00  0.00    +0.000 A 
ATOM     16  C   UNL     1       5.712   4.143  14.118  0.00  0.00    +0.000 A 
ATOM     17  C   UNL     1       5.458   3.287  13.045  0.00  0.00    +0.000 A 
ATOM     18  C   UNL     1       6.285   3.311  11.923  0.00  0.00    +0.000 A 
ATOM     19  C   UNL     1       7.353   4.203  11.864  0.00  0.00    +0.000 A 
ATOM     20  C   UNL     1       7.609   5.060  12.937  0.00  0.00    +0.000 A 
ENDBRANCH  14  15
ENDBRANCH   4  14
TORSDOF 5
ENDMDL
MODEL 5
REMARK VINA RESULT:      -6.5      6.185      8.423
REMARK  Name = 
REMARK  5 active torsions:
REMARK  status: ('A' for Active; 'I' for Inactive)
REMARK    1  A    between atoms: C_2  and  C_3
REMARK    2  A    between atoms: C_3  and  C_4
REMARK    3  A    between atoms: C_6  and  C_7
REMARK    4  A    between atoms: N_10  and  C_11
REMARK    5  A    between atoms: C_11  and  C_12
REMARK                            x       y       z     vdW  Elec       q    Type
REMARK                         _______ _______ _______ _____ _____    ______ ____
ROOT
ATOM      1  C   UNL     1       0.374   9.974  19.733  0.00  0.00    +0.000 A 
ATOM      2  C   UNL     1       0.650   8.987  20.805  0.00  0.00    +0.000 A 
ATOM      3  N   UNL     1       1.447   7.975  20.723  0.00  0.00    +0.000 NA
ATOM      4  N   UNL     1       2.092   7.781  19.515  0.00  0.00    +0.000 N 
ATOM      5  C   UNL     1       1.908   8.588  18.402  0.00  0.00    +0.000 A 
ATOM      6  O   UNL     1       2.414   8.402  17.297  0.00  0.00    +0.000 OA
ATOM      7  C   UNL     1       1.002   9.746  18.576  0.00  0.00    +0.000 A 
ENDROOT
BRANCH   1   9
ATOM      8  C   UNL     1      -0.305  12.292  20.402  0.00  0.00    +0.000 C 
ATOM      9  C   UNL     1      -0.575  11.049  19.957  0.00  0.00    +0.000 C 
BRANCH   8  11
ATOM     10  N   UNL     1       2.082  13.036  21.050  0.00  0.00    +0.000 NA
ATOM     11  C   UNL     1       1.007  12.707  20.764  0.00  0.00    +0.000 C 
ENDBRANCH   8  11
BRANCH   8  12
ATOM     12  C   UNL     1      -1.371  13.225  20.538  0.00  0.00    +0.000 C 
ATOM     13  N   UNL     1      -2.233  13.998  20.619  0.00  0.00    +0.000 NA
ENDBRANCH   8  12
ENDBRANCH   1   9
BRANCH   4  14
ATOM     14  C   UNL     1       3.027   6.659  19.443  0.00  0.00    +0.000 C 
BRANCH  14  15
ATOM     15  C   UNL     1       2.312   5.327  19.425  0.00  0.00    +0.000 A 
ATOM     16  C   UNL     1       2.016   4.696  18.209  0.00  0.00    +0.000 A 
ATOM     17  C   UNL     1       1.282   3.509  18.186  0.00  0.00    +0.000 A 
ATOM     18  C   UNL     1       0.837   2.940  19.379  0.00  0.00    +0.000 A 
ATOM     19  C   UNL     1       1.144   3.546  20.595  0.00  0.00    +0.000 A 
ATOM     20  C   UNL     1       1.878   4.734  20.620  0.00  0.00    +0.000 A 
ENDBRANCH  14  15
ENDBRANCH   4  14
TORSDOF 5
ENDMDL
MODEL 6
REMARK VINA RESULT:      -6.5      5.832      7.910
REMARK  Name = 
REMARK  5 active torsions:
REMARK  status: ('A' for Active; 'I' for Inactive)
REMARK    1  A    between atoms: C_2  and  C_3
REMARK    2  A    between atoms: C_3  and  C_4
REMARK    3  A    between atoms: C_6  and  C_7
REMARK    4  A    between atoms: N_10  and  C_11
REMARK    5  A    between atoms: C_11  and  C_12
REMARK                            x       y       z     vdW  Elec       q    Type
REMARK                         _______ _______ _______ _____ _____    ______ ____
ROOT
ATOM      1  C   UNL     1       1.841   6.950  20.206  0.00  0.00    +0.000 A 
ATOM      2  C   UNL     1       1.045   7.984  20.910  0.00  0.00    +0.000 A 
ATOM      3  N   UNL     1       0.719   9.144  20.445  0.00  0.00    +0.000 NA
ATOM      4  N   UNL     1       1.170   9.459  19.176  0.00  0.00    +0.000 N 
ATOM      5  C   UNL     1       1.960   8.620  18.405  0.00  0.00    +0.000 A 
ATOM      6  O   UNL     1       2.431   8.898  17.304  0.00  0.00    +0.000 OA
ATOM      7  C   UNL     1       2.271   7.295  18.989  0.00  0.00    +0.000 A 
ENDROOT
BRANCH   1   9
ATOM      8  C   UNL     1       2.083   4.460  20.342  0.00  0.00    +0.000 C 
ATOM      9  C   UNL     1       2.160   5.698  20.867  0.00  0.00    +0.000 C 
BRANCH   8  11
ATOM     10  N   UNL     1       1.240   4.001  17.945  0.00  0.00    +0.000 NA
ATOM     11  C   UNL     1       1.616   4.215  19.020  0.00  0.00    +0.000 C 
ENDBRANCH   8  11
BRANCH   8  12
ATOM     12  C   UNL     1       2.462   3.344  21.141  0.00  0.00    +0.000 C 
ATOM     13  N   UNL     1       2.744   2.438  21.809  0.00  0.00    +0.000 NA
ENDBRANCH   8  12
ENDBRANCH   1   9
BRANCH   4  14
ATOM     14  C   UNL     1       0.759  10.756  18.638  0.00  0.00    +0.000 C 
BRANCH  14  15
ATOM     15  C   UNL     1      -0.723  10.803  18.345  0.00  0.00    +0.000 A 
ATOM     16  C   UNL     1      -1.546  11.739  18.987  0.00  0.00    +0.000 A 
ATOM     17  C   UNL     1      -2.926  11.729  18.782  0.00  0.00    +0.000 A 
ATOM     18  C   UNL     1      -3.499  10.783  17.933  0.00  0.00    +0.000 A 
ATOM     19  C   UNL     1      -2.691   9.861  17.272  0.00  0.00    +0.000 A 
ATOM     20  C   UNL     1      -1.309   9.869  17.475  0.00  0.00    +0.000 A 
ENDBRANCH  14  15
ENDBRANCH   4  14
TORSDOF 5
ENDMDL
MODEL 7
REMARK VINA RESULT:      -6.4      1.413      1.704
REMARK  Name = 
REMARK  5 active torsions:
REMARK  status: ('A' for Active; 'I' for Inactive)
REMARK    1  A    between atoms: C_2  and  C_3
REMARK    2  A    between atoms: C_3  and  C_4
REMARK    3  A    between atoms: C_6  and  C_7
REMARK    4  A    between atoms: N_10  and  C_11
REMARK    5  A    between atoms: C_11  and  C_12
REMARK                            x       y       z     vdW  Elec       q    Type
REMARK                         _______ _______ _______ _____ _____    ______ ____
ROOT
ATOM      1  C   UNL     1       4.260   4.747  19.054  0.00  0.00    +0.000 A 
ATOM      2  C   UNL     1       5.526   4.066  18.689  0.00  0.00    +0.000 A 
ATOM      3  N   UNL     1       6.320   4.396  17.726  0.00  0.00    +0.000 NA
ATOM      4  N   UNL     1       5.946   5.478  16.949  0.00  0.00    +0.000 N 
ATOM      5  C   UNL     1       4.773   6.193  17.132  0.00  0.00    +0.000 A 
ATOM      6  O   UNL     1       4.381   7.114  16.418  0.00  0.00    +0.000 OA
ATOM      7  C   UNL     1       3.924   5.777  18.272  0.00  0.00    +0.000 A 
ENDROOT
BRANCH   1   9
ATOM      8  C   UNL     1       2.470   3.319  20.072  0.00  0.00    +0.000 C 
ATOM      9  C   UNL     1       3.448   4.243  20.146  0.00  0.00    +0.000 C 
BRANCH   8  11
ATOM     10  N   UNL     1       1.749   2.252  17.834  0.00  0.00    +0.000 NA
ATOM     11  C   UNL     1       2.067   2.727  18.843  0.00  0.00    +0.000 C 
ENDBRANCH   8  11
BRANCH   8  12
ATOM     12  C   UNL     1       1.793   2.930  21.263  0.00  0.00    +0.000 C 
ATOM     13  N   UNL     1       1.270   2.607  22.247  0.00  0.00    +0.000 NA
ENDBRANCH   8  12
ENDBRANCH   1   9
BRANCH   4  14
ATOM     14  C   UNL     1       6.872   5.874  15.889  0.00  0.00    +0.000 C 
BRANCH  14  15
ATOM     15  C   UNL     1       6.690   5.043  14.639  0.00  0.00    +0.000 A 
ATOM     16  C   UNL     1       7.616   5.125  13.589  0.00  0.00    +0.000 A 
ATOM     17  C   UNL     1       7.404   4.424  12.400  0.00  0.00    +0.000 A 
ATOM     18  C   UNL     1       6.266   3.633  12.250  0.00  0.00    +0.000 A 
ATOM     19  C   UNL     1       5.350   3.526  13.293  0.00  0.00    +0.000 A 
ATOM     20  C   UNL     1       5.559   4.227  14.483  0.00  0.00    +0.000 A 
ENDBRANCH  14  15
ENDBRANCH   4  14
TORSDOF 5
ENDMDL
MODEL 8
REMARK VINA RESULT:      -6.4      6.287      8.508
REMARK  Name = 
REMARK  5 active torsions:
REMARK  status: ('A' for Active; 'I' for Inactive)
REMARK    1  A    between atoms: C_2  and  C_3
REMARK    2  A    between atoms: C_3  and  C_4
REMARK    3  A    between atoms: C_6  and  C_7
REMARK    4  A    between atoms: N_10  and  C_11
REMARK    5  A    between atoms: C_11  and  C_12
REMARK                            x       y       z     vdW  Elec       q    Type
REMARK                         _______ _______ _______ _____ _____    ______ ____
ROOT
ATOM      1  C   UNL     1       0.354  10.095  19.851  0.00  0.00    +0.000 A 
ATOM      2  C   UNL     1       0.588   9.057  20.883  0.00  0.00    +0.000 A 
ATOM      3  N   UNL     1       1.362   8.030  20.770  0.00  0.00    +0.000 NA
ATOM      4  N   UNL     1       2.022   7.872  19.565  0.00  0.00    +0.000 N 
ATOM      5  C   UNL     1       1.877   8.730  18.485  0.00  0.00    +0.000 A 
ATOM      6  O   UNL     1       2.397   8.580  17.382  0.00  0.00    +0.000 OA
ATOM      7  C   UNL     1       0.996   9.902  18.695  0.00  0.00    +0.000 A 
ENDROOT
BRANCH   1   9
ATOM      8  C   UNL     1      -0.269  12.428  20.520  0.00  0.00    +0.000 C 
ATOM      9  C   UNL     1      -0.572  11.183  20.105  0.00  0.00    +0.000 C 
BRANCH   8  11
ATOM     10  N   UNL     1       2.147  13.177  21.042  0.00  0.00    +0.000 NA
ATOM     11  C   UNL     1       1.063  12.835  20.814  0.00  0.00    +0.000 C 
ENDBRANCH   8  11
BRANCH   8  12
ATOM     12  C   UNL     1      -1.317  13.375  20.695  0.00  0.00    +0.000 C 
ATOM     13  N   UNL     1      -2.191  14.124  20.850  0.00  0.00    +0.000 NA
ENDBRANCH   8  12
ENDBRANCH   1   9
BRANCH   4  14
ATOM     14  C   UNL     1       2.931   6.731  19.460  0.00  0.00    +0.000 C 
BRANCH  14  15
ATOM     15  C   UNL     1       2.185   5.421  19.356  0.00  0.00    +0.000 A 
ATOM     16  C   UNL     1       1.743   4.760  20.512  0.00  0.00    +0.000 A 
ATOM     17  C   UNL     1       1.129   3.510  20.424  0.00  0.00    +0.000 A 
ATOM     18  C   UNL     1       0.949   2.908  19.179  0.00  0.00    +0.000 A 
ATOM     19  C   UNL     1       1.363   3.563  18.022  0.00  0.00    +0.000 A 
ATOM     20  C   UNL     1       1.978   4.814  18.108  0.00  0.00    +0.000 A 
ENDBRANCH  14  15
ENDBRANCH   4  14
TORSDOF 5
ENDMDL
MODEL 9
REMARK VINA RESULT:      -6.4      5.892      7.950
REMARK  Name = 
REMARK  5 active torsions:
REMARK  status: ('A' for Active; 'I' for Inactive)
REMARK    1  A    between atoms: C_2  and  C_3
REMARK    2  A    between atoms: C_3  and  C_4
REMARK    3  A    between atoms: C_6  and  C_7
REMARK    4  A    between atoms: N_10  and  C_11
REMARK    5  A    between atoms: C_11  and  C_12
REMARK                            x       y       z     vdW  Elec       q    Type
REMARK                         _______ _______ _______ _____ _____    ______ ____
ROOT
ATOM      1  C   UNL     1       2.160   7.009  19.785  0.00  0.00    +0.000 A 
ATOM      2  C   UNL     1       1.356   7.863  20.691  0.00  0.00    +0.000 A 
ATOM      3  N   UNL     1       0.892   9.037  20.422  0.00  0.00    +0.000 NA
ATOM      4  N   UNL     1       1.190   9.557  19.175  0.00  0.00    +0.000 N 
ATOM      5  C   UNL     1       1.967   8.904  18.230  0.00  0.00    +0.000 A 
ATOM      6  O   UNL     1       2.303   9.367  17.142  0.00  0.00    +0.000 OA
ATOM      7  C   UNL     1       2.441   7.549  18.596  0.00  0.00    +0.000 A 
ENDROOT
BRANCH   1   9
ATOM      8  C   UNL     1       2.494   4.531  19.614  0.00  0.00    +0.000 C 
ATOM      9  C   UNL     1       2.643   5.717  20.237  0.00  0.00    +0.000 C 
BRANCH   8  11
ATOM     10  N   UNL     1       1.194   4.285  17.396  0.00  0.00    +0.000 NA
ATOM     11  C   UNL     1       1.772   4.391  18.396  0.00  0.00    +0.000 C 
ENDBRANCH   8  11
BRANCH   8  12
ATOM     12  C   UNL     1       3.061   3.365  20.201  0.00  0.00    +0.000 C 
ATOM     13  N   UNL     1       3.499   2.414  20.702  0.00  0.00    +0.000 NA
ENDBRANCH   8  12
ENDBRANCH   1   9
BRANCH   4  14
ATOM     14  C   UNL     1       0.625  10.868  18.859  0.00  0.00    +0.000 C 
BRANCH  14  15
ATOM     15  C   UNL     1      -0.846  10.783  18.519  0.00  0.00    +0.000 A 
ATOM     16  C   UNL     1      -1.301   9.874  17.554  0.00  0.00    +0.000 A 
ATOM     17  C   UNL     1      -2.646   9.853  17.178  0.00  0.00    +0.000 A 
ATOM     18  C   UNL     1      -3.548  10.739  17.764  0.00  0.00    +0.000 A 
ATOM     19  C   UNL     1      -3.113  11.632  18.740  0.00  0.00    +0.000 A 
ATOM     20  C   UNL     1      -1.768  11.655  19.117  0.00  0.00    +0.000 A 
ENDBRANCH  14  15
ENDBRANCH   4  14
TORSDOF 5
ENDMDL
