MODEL 1
REMARK VINA RESULT:      -7.7      0.000      0.000
REMARK  Name = 
REMARK  9 active torsions:
REMARK  status: ('A' for Active; 'I' for Inactive)
REMARK    1  A    between atoms: C_2  and  C_3
REMARK    2  A    between atoms: C_3  and  C_4
REMARK    3  A    between atoms: C_4  and  C_5
REMARK    4  A    between atoms: C_5  and  C_6
REMARK    5  A    between atoms: C_6  and  C_7
REMARK    6  A    between atoms: C_7  and  C_8
REMARK    7  A    between atoms: C_8  and  C_9
REMARK    8  A    between atoms: C_9  and  C_11
REMARK    9  A    between atoms: C_18  and  C_19
REMARK                            x       y       z     vdW  Elec       q    Type
REMARK                         _______ _______ _______ _____ _____    ______ ____
ROOT
ATOM      1  O   UNL     1       3.933   2.522  20.315  0.00  0.00    +0.000 OA
ATOM      2  C   UNL     1       4.405   2.934  19.263  0.00  0.00    +0.000 C 
ATOM      3  N   UNL     1       5.426   3.849  19.307  0.00  0.00    +0.000 N 
ATOM      4  C   UNL     1       6.041   4.389  18.217  0.00  0.00    +0.000 A 
ATOM      5  N   UNL     1       5.984   3.978  16.979  0.00  0.00    +0.000 NA
ATOM      6  C   UNL     1       6.696   4.830  16.162  0.00  0.00    +0.000 A 
ATOM      7  C   UNL     1       7.342   5.851  16.830  0.00  0.00    +0.000 A 
ATOM      8  S   UNL     1       6.972   5.782  18.509  0.00  0.00    +0.000 S 
ATOM      9  H   UNL     1       5.696   4.176  20.223  0.00  0.00    +0.000 HD
ENDROOT
BRANCH   6  10
ATOM     10  C   UNL     1       6.706   4.635  14.718  0.00  0.00    +0.000 A 
ATOM     11  C   UNL     1       5.843   3.719  14.106  0.00  0.00    +0.000 A 
ATOM     12  C   UNL     1       5.911   3.482  12.736  0.00  0.00    +0.000 A 
ATOM     13  C   UNL     1       6.839   4.165  11.955  0.00  0.00    +0.000 A 
ATOM     14  C   UNL     1       7.694   5.094  12.547  0.00  0.00    +0.000 A 
ATOM     15  C   UNL     1       7.636   5.326  13.920  0.00  0.00    +0.000 A 
ENDBRANCH   6  10
BRANCH   2  16
ATOM     16  C   UNL     1       3.906   2.453  17.907  0.00  0.00    +0.000 C 
BRANCH  16  17
ATOM     17  C   UNL     1       2.419   2.673  17.678  0.00  0.00    +0.000 C 
BRANCH  17  18
ATOM     18  C   UNL     1       2.054   4.108  18.060  0.00  0.00    +0.000 C 
BRANCH  18  19
ATOM     19  C   UNL     1       1.205   4.140  19.326  0.00  0.00    +0.000 C 
BRANCH  19  20
ATOM     20  C   UNL     1       1.705   5.229  20.271  0.00  0.00    +0.000 C 
BRANCH  20  21
ATOM     21  C   UNL     1       2.727   6.138  19.598  0.00  0.00    +0.000 C 
BRANCH  21  22
ATOM     22  C   UNL     1       2.212   7.562  19.470  0.00  0.00    +0.000 C 
ATOM     23  O   UNL     1       1.752   8.173  20.440  0.00  0.00    +0.000 OA
BRANCH  22  24
ATOM     24  C   UNL     1       2.302   8.174  18.083  0.00  0.00    +0.000 C 
ATOM     25  F   UNL     1       2.532   9.518  18.117  0.00  0.00    +0.000 F 
ATOM     26  F   UNL     1       3.311   7.637  17.344  0.00  0.00    +0.000 F 
ATOM     27  F   UNL     1       1.158   8.005  17.367  0.00  0.00    +0.000 F 
ENDBRANCH  22  24
ENDBRANCH  21  22
ENDBRANCH  20  21
ENDBRANCH  19  20
ENDBRANCH  18  19
ENDBRANCH  17  18
ENDBRANCH  16  17
ENDBRANCH   2  16
TORSDOF 9
ENDMDL
MODEL 2
REMARK VINA RESULT:      -7.5      5.232      7.971
REMARK  Name = 
REMARK  9 active torsions:
REMARK  status: ('A' for Active; 'I' for Inactive)
REMARK    1  A    between atoms: C_2  and  C_3
REMARK    2  A    between atoms: C_3  and  C_4
REMARK    3  A    between atoms: C_4  and  C_5
REMARK    4  A    between atoms: C_5  and  C_6
REMARK    5  A    between atoms: C_6  and  C_7
REMARK    6  A    between atoms: C_7  and  C_8
REMARK    7  A    between atoms: C_8  and  C_9
REMARK    8  A    between atoms: C_9  and  C_11
REMARK    9  A    between atoms: C_18  and  C_19
REMARK                            x       y       z     vdW  Elec       q    Type
REMARK                         _______ _______ _______ _____ _____    ______ ____
ROOT
ATOM      1  O   UNL     1       8.057   4.464  16.673  0.00  0.00    +0.000 OA
ATOM      2  C   UNL     1       6.993   4.964  17.015  0.00  0.00    +0.000 C 
ATOM      3  N   UNL     1       5.914   4.146  17.231  0.00  0.00    +0.000 N 
ATOM      4  C   UNL     1       4.676   4.569  17.613  0.00  0.00    +0.000 A 
ATOM      5  N   UNL     1       4.339   5.737  18.092  0.00  0.00    +0.000 NA
ATOM      6  C   UNL     1       2.978   5.791  18.299  0.00  0.00    +0.000 A 
ATOM      7  C   UNL     1       2.313   4.612  18.026  0.00  0.00    +0.000 A 
ATOM      8  S   UNL     1       3.417   3.442  17.415  0.00  0.00    +0.000 S 
ATOM      9  H   UNL     1       6.048   3.165  17.037  0.00  0.00    +0.000 HD
ENDROOT
BRANCH   6  10
ATOM     10  C   UNL     1       2.345   7.026  18.743  0.00  0.00    +0.000 A 
ATOM     11  C   UNL     1       2.199   8.115  17.876  0.00  0.00    +0.000 A 
ATOM     12  C   UNL     1       1.663   9.319  18.328  0.00  0.00    +0.000 A 
ATOM     13  C   UNL     1       1.258   9.447  19.654  0.00  0.00    +0.000 A 
ATOM     14  C   UNL     1       1.381   8.366  20.525  0.00  0.00    +0.000 A 
ATOM     15  C   UNL     1       1.926   7.164  20.078  0.00  0.00    +0.000 A 
ENDBRANCH   6  10
BRANCH   2  16
ATOM     16  C   UNL     1       6.834   6.464  17.225  0.00  0.00    +0.000 C 
BRANCH  16  17
ATOM     17  C   UNL     1       7.887   7.080  18.133  0.00  0.00    +0.000 C 
BRANCH  17  18
ATOM     18  C   UNL     1       8.056   8.558  17.782  0.00  0.00    +0.000 C 
BRANCH  18  19
ATOM     19  C   UNL     1       8.892   9.280  18.833  0.00  0.00    +0.000 C 
BRANCH  19  20
ATOM     20  C   UNL     1       8.985  10.767  18.507  0.00  0.00    +0.000 C 
BRANCH  20  21
ATOM     21  C   UNL     1      10.430  11.219  18.329  0.00  0.00    +0.000 C 
BRANCH  21  22
ATOM     22  C   UNL     1      10.551  12.733  18.358  0.00  0.00    +0.000 C 
ATOM     23  O   UNL     1      10.313  13.420  17.359  0.00  0.00    +0.000 OA
BRANCH  22  24
ATOM     24  C   UNL     1      10.980  13.336  19.685  0.00  0.00    +0.000 C 
ATOM     25  F   UNL     1      12.328  13.521  19.765  0.00  0.00    +0.000 F 
ATOM     26  F   UNL     1      10.418  14.555  19.907  0.00  0.00    +0.000 F 
ATOM     27  F   UNL     1      10.643  12.550  20.744  0.00  0.00    +0.000 F 
ENDBRANCH  22  24
ENDBRANCH  21  22
ENDBRANCH  20  21
ENDBRANCH  19  20
ENDBRANCH  18  19
ENDBRANCH  17  18
ENDBRANCH  16  17
ENDBRANCH   2  16
TORSDOF 9
ENDMDL
MODEL 3
REMARK VINA RESULT:      -7.5      4.451      7.233
REMARK  Name = 
REMARK  9 active torsions:
REMARK  status: ('A' for Active; 'I' for Inactive)
REMARK    1  A    between atoms: C_2  and  C_3
REMARK    2  A    between atoms: C_3  and  C_4
REMARK    3  A    between atoms: C_4  and  C_5
REMARK    4  A    between atoms: C_5  and  C_6
REMARK    5  A    between atoms: C_6  and  C_7
REMARK    6  A    between atoms: C_7  and  C_8
REMARK    7  A    between atoms: C_8  and  C_9
REMARK    8  A    between atoms: C_9  and  C_11
REMARK    9  A    between atoms: C_18  and  C_19
REMARK                            x       y       z     vdW  Elec       q    Type
REMARK                         _______ _______ _______ _____ _____    ______ ____
ROOT
ATOM      1  O   UNL     1       8.309   4.087  17.548  0.00  0.00    +0.000 OA
ATOM      2  C   UNL     1       7.241   4.646  17.768  0.00  0.00    +0.000 C 
ATOM      3  N   UNL     1       6.227   3.933  18.355  0.00  0.00    +0.000 N 
ATOM      4  C   UNL     1       4.994   4.430  18.654  0.00  0.00    +0.000 A 
ATOM      5  N   UNL     1       4.621   5.681  18.696  0.00  0.00    +0.000 NA
ATOM      6  C   UNL     1       3.275   5.767  18.978  0.00  0.00    +0.000 A 
ATOM      7  C   UNL     1       2.664   4.551  19.211  0.00  0.00    +0.000 A 
ATOM      8  S   UNL     1       3.792   3.272  18.984  0.00  0.00    +0.000 S 
ATOM      9  H   UNL     1       6.406   2.955  18.524  0.00  0.00    +0.000 HD
ENDROOT
BRANCH   6  10
ATOM     10  C   UNL     1       2.601   7.059  18.987  0.00  0.00    +0.000 A 
ATOM     11  C   UNL     1       2.626   7.895  17.865  0.00  0.00    +0.000 A 
ATOM     12  C   UNL     1       2.046   9.160  17.907  0.00  0.00    +0.000 A 
ATOM     13  C   UNL     1       1.425   9.605  19.070  0.00  0.00    +0.000 A 
ATOM     14  C   UNL     1       1.376   8.776  20.190  0.00  0.00    +0.000 A 
ATOM     15  C   UNL     1       1.964   7.514  20.156  0.00  0.00    +0.000 A 
ENDBRANCH   6  10
BRANCH   2  16
ATOM     16  C   UNL     1       7.009   6.111  17.425  0.00  0.00    +0.000 C 
BRANCH  16  17
ATOM     17  C   UNL     1       7.877   7.079  18.214  0.00  0.00    +0.000 C 
BRANCH  17  18
ATOM     18  C   UNL     1       7.535   8.513  17.807  0.00  0.00    +0.000 C 
BRANCH  18  19
ATOM     19  C   UNL     1       8.784   9.387  17.775  0.00  0.00    +0.000 C 
BRANCH  19  20
ATOM     20  C   UNL     1       8.993  10.062  19.127  0.00  0.00    +0.000 C 
BRANCH  20  21
ATOM     21  C   UNL     1       9.900  11.282  19.018  0.00  0.00    +0.000 C 
BRANCH  21  22
ATOM     22  C   UNL     1       9.145  12.569  19.304  0.00  0.00    +0.000 C 
ATOM     23  O   UNL     1       8.897  12.931  20.459  0.00  0.00    +0.000 OA
BRANCH  22  24
ATOM     24  C   UNL     1       8.720  13.369  18.085  0.00  0.00    +0.000 C 
ATOM     25  F   UNL     1       9.759  14.044  17.513  0.00  0.00    +0.000 F 
ATOM     26  F   UNL     1       8.196  12.584  17.106  0.00  0.00    +0.000 F 
ATOM     27  F   UNL     1       7.780  14.307  18.382  0.00  0.00    +0.000 F 
ENDBRANCH  22  24
ENDBRANCH  21  22
ENDBRANCH  20  21
ENDBRANCH  19  20
ENDBRANCH  18  19
ENDBRANCH  17  18
ENDBRANCH  16  17
ENDBRANCH   2  16
TORSDOF 9
ENDMDL
MODEL 4
REMARK VINA RESULT:      -7.3      4.167      7.349
REMARK  Name = 
REMARK  9 active torsions:
REMARK  status: ('A' for Active; 'I' for Inactive)
REMARK    1  A    between atoms: C_2  and  C_3
REMARK    2  A    between atoms: C_3  and  C_4
REMARK    3  A    between atoms: C_4  and  C_5
REMARK    4  A    between atoms: C_5  and  C_6
REMARK    5  A    between atoms: C_6  and  C_7
REMARK    6  A    between atoms: C_7  and  C_8
REMARK    7  A    between atoms: C_8  and  C_9
REMARK    8  A    between atoms: C_9  and  C_11
REMARK    9  A    between atoms: C_18  and  C_19
REMARK                            x       y       z     vdW  Elec       q    Type
REMARK                         _______ _______ _______ _____ _____    ______ ____
ROOT
ATOM      1  O   UNL     1       8.448   4.125  17.870  0.00  0.00    +0.000 OA
ATOM      2  C   UNL     1       7.367   4.668  18.063  0.00  0.00    +0.000 C 
ATOM      3  N   UNL     1       6.365   3.955  18.670  0.00  0.00    +0.000 N 
ATOM      4  C   UNL     1       5.120   4.435  18.945  0.00  0.00    +0.000 A 
ATOM      5  N   UNL     1       4.720   5.679  18.941  0.00  0.00    +0.000 NA
ATOM      6  C   UNL     1       3.370   5.746  19.213  0.00  0.00    +0.000 A 
ATOM      7  C   UNL     1       2.784   4.526  19.486  0.00  0.00    +0.000 A 
ATOM      8  S   UNL     1       3.941   3.264  19.311  0.00  0.00    +0.000 S 
ATOM      9  H   UNL     1       6.564   2.988  18.875  0.00  0.00    +0.000 HD
ENDROOT
BRANCH   6  10
ATOM     10  C   UNL     1       2.669   7.022  19.173  0.00  0.00    +0.000 A 
ATOM     11  C   UNL     1       1.956   7.490  20.283  0.00  0.00    +0.000 A 
ATOM     12  C   UNL     1       1.225   8.673  20.213  0.00  0.00    +0.000 A 
ATOM     13  C   UNL     1       1.204   9.411  19.032  0.00  0.00    +0.000 A 
ATOM     14  C   UNL     1       1.923   8.966  17.924  0.00  0.00    +0.000 A 
ATOM     15  C   UNL     1       2.647   7.778  17.987  0.00  0.00    +0.000 A 
ENDBRANCH   6  10
BRANCH   2  16
ATOM     16  C   UNL     1       7.105   6.115  17.668  0.00  0.00    +0.000 C 
BRANCH  16  17
ATOM     17  C   UNL     1       6.977   6.335  16.168  0.00  0.00    +0.000 C 
BRANCH  17  18
ATOM     18  C   UNL     1       5.496   6.396  15.791  0.00  0.00    +0.000 C 
BRANCH  18  19
ATOM     19  C   UNL     1       4.988   5.031  15.338  0.00  0.00    +0.000 C 
BRANCH  19  20
ATOM     20  C   UNL     1       6.039   4.333  14.480  0.00  0.00    +0.000 C 
BRANCH  20  21
ATOM     21  C   UNL     1       5.403   3.501  13.372  0.00  0.00    +0.000 C 
BRANCH  21  22
ATOM     22  C   UNL     1       6.352   3.312  12.200  0.00  0.00    +0.000 C 
ATOM     23  O   UNL     1       7.241   4.132  11.949  0.00  0.00    +0.000 OA
BRANCH  22  24
ATOM     24  C   UNL     1       6.132   2.061  11.368  0.00  0.00    +0.000 C 
ATOM     25  F   UNL     1       5.078   2.178  10.511  0.00  0.00    +0.000 F 
ATOM     26  F   UNL     1       7.211   1.753  10.599  0.00  0.00    +0.000 F 
ATOM     27  F   UNL     1       5.874   0.967  12.136  0.00  0.00    +0.000 F 
ENDBRANCH  22  24
ENDBRANCH  21  22
ENDBRANCH  20  21
ENDBRANCH  19  20
ENDBRANCH  18  19
ENDBRANCH  17  18
ENDBRANCH  16  17
ENDBRANCH   2  16
TORSDOF 9
ENDMDL
MODEL 5
REMARK VINA RESULT:      -7.3      5.263      8.015
REMARK  Name = 
REMARK  9 active torsions:
REMARK  status: ('A' for Active; 'I' for Inactive)
REMARK    1  A    between atoms: C_2  and  C_3
REMARK    2  A    between atoms: C_3  and  C_4
REMARK    3  A    between atoms: C_4  and  C_5
REMARK    4  A    between atoms: C_5  and  C_6
REMARK    5  A    between atoms: C_6  and  C_7
REMARK    6  A    between atoms: C_7  and  C_8
REMARK    7  A    between atoms: C_8  and  C_9
REMARK    8  A    between atoms: C_9  and  C_11
REMARK    9  A    between atoms: C_18  and  C_19
REMARK                            x       y       z     vdW  Elec       q    Type
REMARK                         _______ _______ _______ _____ _____    ______ ____
ROOT
ATOM      1  O   UNL     1       8.023   4.416  17.842  0.00  0.00    +0.000 OA
ATOM      2  C   UNL     1       6.952   4.995  17.982  0.00  0.00    +0.000 C 
ATOM      3  N   UNL     1       5.791   4.266  17.920  0.00  0.00    +0.000 N 
ATOM      4  C   UNL     1       4.537   4.781  18.058  0.00  0.00    +0.000 A 
ATOM      5  N   UNL     1       4.198   5.954  18.522  0.00  0.00    +0.000 NA
ATOM      6  C   UNL     1       2.832   6.120  18.442  0.00  0.00    +0.000 A 
ATOM      7  C   UNL     1       2.151   5.015  17.969  0.00  0.00    +0.000 A 
ATOM      8  S   UNL     1       3.266   3.778  17.536  0.00  0.00    +0.000 S 
ATOM      9  H   UNL     1       5.888   3.286  17.703  0.00  0.00    +0.000 HD
ENDROOT
BRANCH   6  10
ATOM     10  C   UNL     1       2.216   7.387  18.814  0.00  0.00    +0.000 A 
ATOM     11  C   UNL     1       1.833   7.644  20.135  0.00  0.00    +0.000 A 
ATOM     12  C   UNL     1       1.176   8.825  20.470  0.00  0.00    +0.000 A 
ATOM     13  C   UNL     1       0.900   9.772  19.487  0.00  0.00    +0.000 A 
ATOM     14  C   UNL     1       1.292   9.538  18.170  0.00  0.00    +0.000 A 
ATOM     15  C   UNL     1       1.940   8.352  17.830  0.00  0.00    +0.000 A 
ENDBRANCH   6  10
BRANCH   2  16
ATOM     16  C   UNL     1       6.868   6.493  18.240  0.00  0.00    +0.000 C 
BRANCH  16  17
ATOM     17  C   UNL     1       8.219   7.169  18.419  0.00  0.00    +0.000 C 
BRANCH  17  18
ATOM     18  C   UNL     1       8.141   8.602  17.893  0.00  0.00    +0.000 C 
BRANCH  18  19
ATOM     19  C   UNL     1       9.002   9.542  18.730  0.00  0.00    +0.000 C 
BRANCH  19  20
ATOM     20  C   UNL     1       8.864  10.975  18.227  0.00  0.00    +0.000 C 
BRANCH  20  21
ATOM     21  C   UNL     1       9.627  11.960  19.105  0.00  0.00    +0.000 C 
BRANCH  21  22
ATOM     22  C   UNL     1      11.012  12.251  18.550  0.00  0.00    +0.000 C 
ATOM     23  O   UNL     1      11.995  11.579  18.880  0.00  0.00    +0.000 OA
BRANCH  22  24
ATOM     24  C   UNL     1      11.101  13.410  17.574  0.00  0.00    +0.000 C 
ATOM     25  F   UNL     1       9.883  13.960  17.300  0.00  0.00    +0.000 F 
ATOM     26  F   UNL     1      11.876  14.425  18.043  0.00  0.00    +0.000 F 
ATOM     27  F   UNL     1      11.624  13.039  16.374  0.00  0.00    +0.000 F 
ENDBRANCH  22  24
ENDBRANCH  21  22
ENDBRANCH  20  21
ENDBRANCH  19  20
ENDBRANCH  18  19
ENDBRANCH  17  18
ENDBRANCH  16  17
ENDBRANCH   2  16
TORSDOF 9
ENDMDL
MODEL 6
REMARK VINA RESULT:      -7.3      4.978      7.795
REMARK  Name = 
REMARK  9 active torsions:
REMARK  status: ('A' for Active; 'I' for Inactive)
REMARK    1  A    between atoms: C_2  and  C_3
REMARK    2  A    between atoms: C_3  and  C_4
REMARK    3  A    between atoms: C_4  and  C_5
REMARK    4  A    between atoms: C_5  and  C_6
REMARK    5  A    between atoms: C_6  and  C_7
REMARK    6  A    between atoms: C_7  and  C_8
REMARK    7  A    between atoms: C_8  and  C_9
REMARK    8  A    between atoms: C_9  and  C_11
REMARK    9  A    between atoms: C_18  and  C_19
REMARK                            x       y       z     vdW  Elec       q    Type
REMARK                         _______ _______ _______ _____ _____    ______ ____
ROOT
ATOM      1  O   UNL     1       8.184   4.162  18.172  0.00  0.00    +0.000 OA
ATOM      2  C   UNL     1       7.089   4.678  18.360  0.00  0.00    +0.000 C 
ATOM      3  N   UNL     1       6.012   3.870  18.627  0.00  0.00    +0.000 N 
ATOM      4  C   UNL     1       4.743   4.311  18.855  0.00  0.00    +0.000 A 
ATOM      5  N   UNL     1       4.351   5.527  19.122  0.00  0.00    +0.000 NA
ATOM      6  C   UNL     1       2.977   5.573  19.227  0.00  0.00    +0.000 A 
ATOM      7  C   UNL     1       2.356   4.346  19.097  0.00  0.00    +0.000 A 
ATOM      8  S   UNL     1       3.523   3.130  18.751  0.00  0.00    +0.000 S 
ATOM      9  H   UNL     1       6.179   2.876  18.598  0.00  0.00    +0.000 HD
ENDROOT
BRANCH   6  10
ATOM     10  C   UNL     1       2.292   6.842  19.430  0.00  0.00    +0.000 A 
ATOM     11  C   UNL     1       2.209   7.791  18.404  0.00  0.00    +0.000 A 
ATOM     12  C   UNL     1       1.619   9.032  18.628  0.00  0.00    +0.000 A 
ATOM     13  C   UNL     1       1.096   9.340  19.881  0.00  0.00    +0.000 A 
ATOM     14  C   UNL     1       1.156   8.399  20.907  0.00  0.00    +0.000 A 
ATOM     15  C   UNL     1       1.754   7.160  20.690  0.00  0.00    +0.000 A 
ENDBRANCH   6  10
BRANCH   2  16
ATOM     16  C   UNL     1       6.886   6.186  18.323  0.00  0.00    +0.000 C 
BRANCH  16  17
ATOM     17  C   UNL     1       7.364   6.845  17.038  0.00  0.00    +0.000 C 
BRANCH  17  18
ATOM     18  C   UNL     1       7.504   8.351  17.263  0.00  0.00    +0.000 C 
BRANCH  18  19
ATOM     19  C   UNL     1       8.417   8.646  18.449  0.00  0.00    +0.000 C 
BRANCH  19  20
ATOM     20  C   UNL     1       8.884  10.097  18.409  0.00  0.00    +0.000 C 
BRANCH  20  21
ATOM     21  C   UNL     1       9.730  10.453  19.626  0.00  0.00    +0.000 C 
BRANCH  21  22
ATOM     22  C   UNL     1      10.020  11.944  19.690  0.00  0.00    +0.000 C 
ATOM     23  O   UNL     1       9.119  12.771  19.864  0.00  0.00    +0.000 OA
BRANCH  22  24
ATOM     24  C   UNL     1      11.477  12.340  19.526  0.00  0.00    +0.000 C 
ATOM     25  F   UNL     1      11.993  11.958  18.323  0.00  0.00    +0.000 F 
ATOM     26  F   UNL     1      11.661  13.686  19.605  0.00  0.00    +0.000 F 
ATOM     27  F   UNL     1      12.276  11.778  20.474  0.00  0.00    +0.000 F 
ENDBRANCH  22  24
ENDBRANCH  21  22
ENDBRANCH  20  21
ENDBRANCH  19  20
ENDBRANCH  18  19
ENDBRANCH  17  18
ENDBRANCH  16  17
ENDBRANCH   2  16
TORSDOF 9
ENDMDL
MODEL 7
REMARK VINA RESULT:      -7.3      4.807      7.603
REMARK  Name = 
REMARK  9 active torsions:
REMARK  status: ('A' for Active; 'I' for Inactive)
REMARK    1  A    between atoms: C_2  and  C_3
REMARK    2  A    between atoms: C_3  and  C_4
REMARK    3  A    between atoms: C_4  and  C_5
REMARK    4  A    between atoms: C_5  and  C_6
REMARK    5  A    between atoms: C_6  and  C_7
REMARK    6  A    between atoms: C_7  and  C_8
REMARK    7  A    between atoms: C_8  and  C_9
REMARK    8  A    between atoms: C_9  and  C_11
REMARK    9  A    between atoms: C_18  and  C_19
REMARK                            x       y       z     vdW  Elec       q    Type
REMARK                         _______ _______ _______ _____ _____    ______ ____
ROOT
ATOM      1  O   UNL     1       7.873   4.379  16.693  0.00  0.00    +0.000 OA
ATOM      2  C   UNL     1       6.822   4.918  17.020  0.00  0.00    +0.000 C 
ATOM      3  N   UNL     1       5.722   4.134  17.260  0.00  0.00    +0.000 N 
ATOM      4  C   UNL     1       4.496   4.601  17.630  0.00  0.00    +0.000 A 
ATOM      5  N   UNL     1       4.190   5.791  18.072  0.00  0.00    +0.000 NA
ATOM      6  C   UNL     1       2.830   5.888  18.278  0.00  0.00    +0.000 A 
ATOM      7  C   UNL     1       2.135   4.718  18.041  0.00  0.00    +0.000 A 
ATOM      8  S   UNL     1       3.208   3.502  17.465  0.00  0.00    +0.000 S 
ATOM      9  H   UNL     1       5.831   3.145  17.096  0.00  0.00    +0.000 HD
ENDROOT
BRANCH   6  10
ATOM     10  C   UNL     1       2.231   7.151  18.684  0.00  0.00    +0.000 A 
ATOM     11  C   UNL     1       2.048   8.193  17.767  0.00  0.00    +0.000 A 
ATOM     12  C   UNL     1       1.545   9.424  18.178  0.00  0.00    +0.000 A 
ATOM     13  C   UNL     1       1.210   9.630  19.513  0.00  0.00    +0.000 A 
ATOM     14  C   UNL     1       1.370   8.597  20.435  0.00  0.00    +0.000 A 
ATOM     15  C   UNL     1       1.882   7.367  20.030  0.00  0.00    +0.000 A 
ENDBRANCH   6  10
BRANCH   2  16
ATOM     16  C   UNL     1       6.702   6.426  17.184  0.00  0.00    +0.000 C 
BRANCH  16  17
ATOM     17  C   UNL     1       7.839   7.058  17.971  0.00  0.00    +0.000 C 
BRANCH  17  18
ATOM     18  C   UNL     1       7.880   8.560  17.686  0.00  0.00    +0.000 C 
BRANCH  18  19
ATOM     19  C   UNL     1       8.685   9.299  18.749  0.00  0.00    +0.000 C 
BRANCH  19  20
ATOM     20  C   UNL     1       9.331  10.545  18.152  0.00  0.00    +0.000 C 
BRANCH  20  21
ATOM     21  C   UNL     1      10.286  11.214  19.134  0.00  0.00    +0.000 C 
BRANCH  21  22
ATOM     22  C   UNL     1       9.583  12.274  19.966  0.00  0.00    +0.000 C 
ATOM     23  O   UNL     1       8.996  11.988  21.015  0.00  0.00    +0.000 OA
BRANCH  22  24
ATOM     24  C   UNL     1       9.652  13.691  19.425  0.00  0.00    +0.000 C 
ATOM     25  F   UNL     1      10.700  14.397  19.937  0.00  0.00    +0.000 F 
ATOM     26  F   UNL     1       9.801  13.723  18.072  0.00  0.00    +0.000 F 
ATOM     27  F   UNL     1       8.535  14.411  19.713  0.00  0.00    +0.000 F 
ENDBRANCH  22  24
ENDBRANCH  21  22
ENDBRANCH  20  21
ENDBRANCH  19  20
ENDBRANCH  18  19
ENDBRANCH  17  18
ENDBRANCH  16  17
ENDBRANCH   2  16
TORSDOF 9
ENDMDL
MODEL 8
REMARK VINA RESULT:      -7.1      1.090      1.564
REMARK  Name = 
REMARK  9 active torsions:
REMARK  status: ('A' for Active; 'I' for Inactive)
REMARK    1  A    between atoms: C_2  and  C_3
REMARK    2  A    between atoms: C_3  and  C_4
REMARK    3  A    between atoms: C_4  and  C_5
REMARK    4  A    between atoms: C_5  and  C_6
REMARK    5  A    between atoms: C_6  and  C_7
REMARK    6  A    between atoms: C_7  and  C_8
REMARK    7  A    between atoms: C_8  and  C_9
REMARK    8  A    between atoms: C_9  and  C_11
REMARK    9  A    between atoms: C_18  and  C_19
REMARK                            x       y       z     vdW  Elec       q    Type
REMARK                         _______ _______ _______ _____ _____    ______ ____
ROOT
ATOM      1  O   UNL     1       3.836   2.389  20.295  0.00  0.00    +0.000 OA
ATOM      2  C   UNL     1       4.323   2.802  19.249  0.00  0.00    +0.000 C 
ATOM      3  N   UNL     1       5.247   3.814  19.302  0.00  0.00    +0.000 N 
ATOM      4  C   UNL     1       5.865   4.365  18.219  0.00  0.00    +0.000 A 
ATOM      5  N   UNL     1       5.915   3.899  17.000  0.00  0.00    +0.000 NA
ATOM      6  C   UNL     1       6.585   4.782  16.180  0.00  0.00    +0.000 A 
ATOM      7  C   UNL     1       7.093   5.889  16.831  0.00  0.00    +0.000 A 
ATOM      8  S   UNL     1       6.639   5.855  18.490  0.00  0.00    +0.000 S 
ATOM      9  H   UNL     1       5.434   4.204  20.213  0.00  0.00    +0.000 HD
ENDROOT
BRANCH   6  10
ATOM     10  C   UNL     1       6.693   4.528  14.750  0.00  0.00    +0.000 A 
ATOM     11  C   UNL     1       7.636   5.202  13.965  0.00  0.00    +0.000 A 
ATOM     12  C   UNL     1       7.682   5.012  12.586  0.00  0.00    +0.000 A 
ATOM     13  C   UNL     1       6.790   4.137  11.973  0.00  0.00    +0.000 A 
ATOM     14  C   UNL     1       5.857   3.446  12.743  0.00  0.00    +0.000 A 
ATOM     15  C   UNL     1       5.801   3.641  14.121  0.00  0.00    +0.000 A 
ENDBRANCH   6  10
BRANCH   2  16
ATOM     16  C   UNL     1       3.948   2.217  17.895  0.00  0.00    +0.000 C 
BRANCH  16  17
ATOM     17  C   UNL     1       2.734   2.868  17.251  0.00  0.00    +0.000 C 
BRANCH  17  18
ATOM     18  C   UNL     1       1.557   2.821  18.227  0.00  0.00    +0.000 C 
BRANCH  18  19
ATOM     19  C   UNL     1       1.318   4.185  18.865  0.00  0.00    +0.000 C 
BRANCH  19  20
ATOM     20  C   UNL     1       1.933   5.286  18.008  0.00  0.00    +0.000 C 
BRANCH  20  21
ATOM     21  C   UNL     1       2.535   6.398  18.859  0.00  0.00    +0.000 C 
BRANCH  21  22
ATOM     22  C   UNL     1       2.839   7.636  18.031  0.00  0.00    +0.000 C 
ATOM     23  O   UNL     1       3.763   7.655  17.211  0.00  0.00    +0.000 OA
BRANCH  22  24
ATOM     24  C   UNL     1       1.939   8.833  18.279  0.00  0.00    +0.000 C 
ATOM     25  F   UNL     1       2.552  10.018  17.996  0.00  0.00    +0.000 F 
ATOM     26  F   UNL     1       0.811   8.801  17.519  0.00  0.00    +0.000 F 
ATOM     27  F   UNL     1       1.535   8.918  19.576  0.00  0.00    +0.000 F 
ENDBRANCH  22  24
ENDBRANCH  21  22
ENDBRANCH  20  21
ENDBRANCH  19  20
ENDBRANCH  18  19
ENDBRANCH  17  18
ENDBRANCH  16  17
ENDBRANCH   2  16
TORSDOF 9
ENDMDL
MODEL 9
REMARK VINA RESULT:      -7.1      1.112      1.306
REMARK  Name = 
REMARK  9 active torsions:
REMARK  status: ('A' for Active; 'I' for Inactive)
REMARK    1  A    between atoms: C_2  and  C_3
REMARK    2  A    between atoms: C_3  and  C_4
REMARK    3  A    between atoms: C_4  and  C_5
REMARK    4  A    between atoms: C_5  and  C_6
REMARK    5  A    between atoms: C_6  and  C_7
REMARK    6  A    between atoms: C_7  and  C_8
REMARK    7  A    between atoms: C_8  and  C_9
REMARK    8  A    between atoms: C_9  and  C_11
REMARK    9  A    between atoms: C_18  and  C_19
REMARK                            x       y       z     vdW  Elec       q    Type
REMARK                         _______ _______ _______ _____ _____    ______ ____
ROOT
ATOM      1  O   UNL     1       4.508   2.555  20.582  0.00  0.00    +0.000 OA
ATOM      2  C   UNL     1       4.833   2.948  19.469  0.00  0.00    +0.000 C 
ATOM      3  N   UNL     1       5.760   3.954  19.364  0.00  0.00    +0.000 N 
ATOM      4  C   UNL     1       6.210   4.483  18.191  0.00  0.00    +0.000 A 
ATOM      5  N   UNL     1       6.073   3.998  16.987  0.00  0.00    +0.000 NA
ATOM      6  C   UNL     1       6.616   4.862  16.061  0.00  0.00    +0.000 A 
ATOM      7  C   UNL     1       7.222   5.976  16.609  0.00  0.00    +0.000 A 
ATOM      8  S   UNL     1       7.024   5.971  18.318  0.00  0.00    +0.000 S 
ATOM      9  H   UNL     1       6.084   4.357  20.230  0.00  0.00    +0.000 HD
ENDROOT
BRANCH   6  10
ATOM     10  C   UNL     1       6.505   4.586  14.635  0.00  0.00    +0.000 A 
ATOM     11  C   UNL     1       5.425   3.858  14.122  0.00  0.00    +0.000 A 
ATOM     12  C   UNL     1       5.364   3.531  12.770  0.00  0.00    +0.000 A 
ATOM     13  C   UNL     1       6.380   3.935  11.908  0.00  0.00    +0.000 A 
ATOM     14  C   UNL     1       7.453   4.675  12.401  0.00  0.00    +0.000 A 
ATOM     15  C   UNL     1       7.522   4.995  13.755  0.00  0.00    +0.000 A 
ENDBRANCH   6  10
BRANCH   2  16
ATOM     16  C   UNL     1       4.255   2.345  18.196  0.00  0.00    +0.000 C 
BRANCH  16  17
ATOM     17  C   UNL     1       2.926   1.632  18.395  0.00  0.00    +0.000 C 
BRANCH  17  18
ATOM     18  C   UNL     1       1.816   2.668  18.571  0.00  0.00    +0.000 C 
BRANCH  18  19
ATOM     19  C   UNL     1       1.163   2.546  19.944  0.00  0.00    +0.000 C 
BRANCH  19  20
ATOM     20  C   UNL     1       1.511   3.755  20.805  0.00  0.00    +0.000 C 
BRANCH  20  21
ATOM     21  C   UNL     1       1.192   5.067  20.097  0.00  0.00    +0.000 C 
BRANCH  21  22
ATOM     22  C   UNL     1       2.443   5.717  19.532  0.00  0.00    +0.000 C 
ATOM     23  O   UNL     1       3.476   5.825  20.202  0.00  0.00    +0.000 OA
BRANCH  22  24
ATOM     24  C   UNL     1       2.337   6.220  18.103  0.00  0.00    +0.000 C 
ATOM     25  F   UNL     1       1.989   7.537  18.035  0.00  0.00    +0.000 F 
ATOM     26  F   UNL     1       3.510   6.104  17.423  0.00  0.00    +0.000 F 
ATOM     27  F   UNL     1       1.399   5.545  17.384  0.00  0.00    +0.000 F 
ENDBRANCH  22  24
ENDBRANCH  21  22
ENDBRANCH  20  21
ENDBRANCH  19  20
ENDBRANCH  18  19
ENDBRANCH  17  18
ENDBRANCH  16  17
ENDBRANCH   2  16
TORSDOF 9
ENDMDL
