MODEL 1
REMARK VINA RESULT:      -8.3      0.000      0.000
REMARK  Name = 
REMARK  8 active torsions:
REMARK  status: ('A' for Active; 'I' for Inactive)
REMARK    1  A    between atoms: C_1  and  C_2
REMARK    2  A    between atoms: C_2  and  O_3
REMARK    3  A    between atoms: O_3  and  C_4
REMARK    4  A    between atoms: C_4  and  C_6
REMARK    5  A    between atoms: C_9  and  N_10
REMARK    6  A    between atoms: C_11  and  C_13
REMARK    7  A    between atoms: N_20  and  C_21
REMARK    8  A    between atoms: C_21  and  C_22
REMARK                            x       y       z     vdW  Elec       q    Type
REMARK                         _______ _______ _______ _____ _____    ______ ____
ROOT
ATOM      1  C   UNL     1       1.373   8.773  19.613  0.00  0.00    +0.000 A 
ATOM      2  C   UNL     1       1.245   8.211  20.876  0.00  0.00    +0.000 A 
ATOM      3  C   UNL     1       0.492   9.131  21.647  0.00  0.00    +0.000 A 
ATOM      4  S   UNL     1      -0.057   9.321  23.276  0.00  0.00    +0.000 S 
ATOM      5  C   UNL     1      -0.741  10.841  22.858  0.00  0.00    +0.000 A 
ATOM      6  C   UNL     1      -0.635  11.161  21.521  0.00  0.00    +0.000 A 
ATOM      7  C   UNL     1       0.114  10.162  20.840  0.00  0.00    +0.000 A 
ATOM      8  N   UNL     1       0.583   9.913  19.565  0.00  0.00    +0.000 N 
ENDROOT
BRANCH   1  10
ATOM      9  N   UNL     1       2.875   7.120  18.814  0.00  0.00    +0.000 N 
ATOM     10  C   UNL     1       2.163   8.269  18.503  0.00  0.00    +0.000 C 
ATOM     11  O   UNL     1       2.197   8.861  17.428  0.00  0.00    +0.000 OA
ATOM     12  H   UNL     1       2.747   6.745  19.746  0.00  0.00    +0.000 HD
BRANCH   9  16
ATOM     13  C   UNL     1       5.600   5.062  16.327  0.00  0.00    +0.000 A 
ATOM     14  C   UNL     1       5.814   6.405  16.627  0.00  0.00    +0.000 A 
ATOM     15  C   UNL     1       4.925   7.092  17.451  0.00  0.00    +0.000 A 
ATOM     16  C   UNL     1       3.808   6.455  17.994  0.00  0.00    +0.000 A 
ATOM     17  C   UNL     1       3.604   5.096  17.713  0.00  0.00    +0.000 A 
ATOM     18  C   UNL     1       4.494   4.401  16.879  0.00  0.00    +0.000 A 
BRANCH  13  19
ATOM     19  C   UNL     1       6.523   4.438  15.345  0.00  0.00    +0.000 C 
ATOM     20  O   UNL     1       7.667   4.819  15.158  0.00  0.00    +0.000 OA
BRANCH  19  21
ATOM     21  O   UNL     1       5.859   3.514  14.614  0.00  0.00    +0.000 OA
BRANCH  21  23
ATOM     22  C   UNL     1       6.282   3.405  12.273  0.00  0.00    +0.000 C 
ATOM     23  C   UNL     1       5.383   3.988  13.349  0.00  0.00    +0.000 C 
ENDBRANCH  21  23
ENDBRANCH  19  21
ENDBRANCH  13  19
ENDBRANCH   9  16
ENDBRANCH   1  10
BRANCH   8  24
ATOM     24  C   UNL     1       0.217  10.722  18.408  0.00  0.00    +0.000 C 
BRANCH  24  25
ATOM     25  C   UNL     1      -1.272  10.804  18.163  0.00  0.00    +0.000 A 
ATOM     26  C   UNL     1      -1.991   9.671  17.750  0.00  0.00    +0.000 A 
ATOM     27  C   UNL     1      -3.379   9.716  17.603  0.00  0.00    +0.000 A 
ATOM     28  C   UNL     1      -4.066  10.896  17.874  0.00  0.00    +0.000 A 
ATOM     29 CL   UNL     1      -5.781  10.938  17.747  0.00  0.00    +0.000 Cl
ATOM     30  C   UNL     1      -3.372  12.036  18.269  0.00  0.00    +0.000 A 
ATOM     31  C   UNL     1      -1.980  11.992  18.406  0.00  0.00    +0.000 A 
ENDBRANCH  24  25
ENDBRANCH   8  24
TORSDOF 7
ENDMDL
MODEL 2
REMARK VINA RESULT:      -8.2      0.219      1.246
REMARK  Name = 
REMARK  8 active torsions:
REMARK  status: ('A' for Active; 'I' for Inactive)
REMARK    1  A    between atoms: C_1  and  C_2
REMARK    2  A    between atoms: C_2  and  O_3
REMARK    3  A    between atoms: O_3  and  C_4
REMARK    4  A    between atoms: C_4  and  C_6
REMARK    5  A    between atoms: C_9  and  N_10
REMARK    6  A    between atoms: C_11  and  C_13
REMARK    7  A    between atoms: N_20  and  C_21
REMARK    8  A    between atoms: C_21  and  C_22
REMARK                            x       y       z     vdW  Elec       q    Type
REMARK                         _______ _______ _______ _____ _____    ______ ____
ROOT
ATOM      1  C   UNL     1       1.375   8.811  19.616  0.00  0.00    +0.000 A 
ATOM      2  C   UNL     1       1.300   8.271  20.893  0.00  0.00    +0.000 A 
ATOM      3  C   UNL     1       0.546   9.187  21.668  0.00  0.00    +0.000 A 
ATOM      4  S   UNL     1       0.039   9.396  23.308  0.00  0.00    +0.000 S 
ATOM      5  C   UNL     1      -0.698  10.888  22.881  0.00  0.00    +0.000 A 
ATOM      6  C   UNL     1      -0.640  11.183  21.535  0.00  0.00    +0.000 A 
ATOM      7  C   UNL     1       0.115  10.190  20.852  0.00  0.00    +0.000 A 
ATOM      8  N   UNL     1       0.554   9.928  19.569  0.00  0.00    +0.000 N 
ENDROOT
BRANCH   1  10
ATOM      9  N   UNL     1       2.801   7.115  18.770  0.00  0.00    +0.000 N 
ATOM     10  C   UNL     1       2.147   8.305  18.493  0.00  0.00    +0.000 C 
ATOM     11  O   UNL     1       2.213   8.929  17.437  0.00  0.00    +0.000 OA
ATOM     12  H   UNL     1       2.652   6.717  19.689  0.00  0.00    +0.000 HD
BRANCH   9  16
ATOM     13  C   UNL     1       5.577   5.149  16.264  0.00  0.00    +0.000 A 
ATOM     14  C   UNL     1       4.663   4.404  17.004  0.00  0.00    +0.000 A 
ATOM     15  C   UNL     1       3.739   5.041  17.829  0.00  0.00    +0.000 A 
ATOM     16  C   UNL     1       3.706   6.433  17.931  0.00  0.00    +0.000 A 
ATOM     17  C   UNL     1       4.609   7.186  17.167  0.00  0.00    +0.000 A 
ATOM     18  C   UNL     1       5.545   6.548  16.338  0.00  0.00    +0.000 A 
BRANCH  13  19
ATOM     19  C   UNL     1       6.605   4.390  15.507  0.00  0.00    +0.000 C 
ATOM     20  O   UNL     1       7.800   4.633  15.562  0.00  0.00    +0.000 OA
BRANCH  19  21
ATOM     21  O   UNL     1       6.005   3.520  14.663  0.00  0.00    +0.000 OA
BRANCH  21  23
ATOM     22  C   UNL     1       6.342   3.382  12.310  0.00  0.00    +0.000 C 
ATOM     23  C   UNL     1       5.587   4.093  13.419  0.00  0.00    +0.000 C 
ENDBRANCH  21  23
ENDBRANCH  19  21
ENDBRANCH  13  19
ENDBRANCH   9  16
ENDBRANCH   1  10
BRANCH   8  24
ATOM     24  C   UNL     1       0.133  10.704  18.408  0.00  0.00    +0.000 C 
BRANCH  24  25
ATOM     25  C   UNL     1      -1.367  10.788  18.238  0.00  0.00    +0.000 A 
ATOM     26  C   UNL     1      -2.077  11.904  18.708  0.00  0.00    +0.000 A 
ATOM     27  C   UNL     1      -3.450  12.029  18.480  0.00  0.00    +0.000 A 
ATOM     28  C   UNL     1      -4.127  11.041  17.772  0.00  0.00    +0.000 A 
ATOM     29 CL   UNL     1      -5.806  11.220  17.443  0.00  0.00    +0.000 Cl
ATOM     30  C   UNL     1      -3.446   9.918  17.311  0.00  0.00    +0.000 A 
ATOM     31  C   UNL     1      -2.073   9.789  17.548  0.00  0.00    +0.000 A 
ENDBRANCH  24  25
ENDBRANCH   8  24
TORSDOF 7
ENDMDL
MODEL 3
REMARK VINA RESULT:      -8.1      4.341      9.806
REMARK  Name = 
REMARK  8 active torsions:
REMARK  status: ('A' for Active; 'I' for Inactive)
REMARK    1  A    between atoms: C_1  and  C_2
REMARK    2  A    between atoms: C_2  and  O_3
REMARK    3  A    between atoms: O_3  and  C_4
REMARK    4  A    between atoms: C_4  and  C_6
REMARK    5  A    between atoms: C_9  and  N_10
REMARK    6  A    between atoms: C_11  and  C_13
REMARK    7  A    between atoms: N_20  and  C_21
REMARK    8  A    between atoms: C_21  and  C_22
REMARK                            x       y       z     vdW  Elec       q    Type
REMARK                         _______ _______ _______ _____ _____    ______ ____
ROOT
ATOM      1  C   UNL     1       2.361   5.704  19.652  0.00  0.00    +0.000 A 
ATOM      2  C   UNL     1       1.477   4.664  19.905  0.00  0.00    +0.000 A 
ATOM      3  C   UNL     1       2.155   3.470  19.553  0.00  0.00    +0.000 A 
ATOM      4  S   UNL     1       1.834   1.774  19.446  0.00  0.00    +0.000 S 
ATOM      5  C   UNL     1       3.420   1.522  18.836  0.00  0.00    +0.000 A 
ATOM      6  C   UNL     1       4.197   2.660  18.792  0.00  0.00    +0.000 A 
ATOM      7  C   UNL     1       3.428   3.789  19.188  0.00  0.00    +0.000 A 
ATOM      8  N   UNL     1       3.591   5.154  19.321  0.00  0.00    +0.000 N 
ENDROOT
BRANCH   1  10
ATOM      9  N   UNL     1       1.363   7.481  20.865  0.00  0.00    +0.000 N 
ATOM     10  C   UNL     1       2.089   7.128  19.737  0.00  0.00    +0.000 C 
ATOM     11  O   UNL     1       2.451   7.897  18.851  0.00  0.00    +0.000 OA
ATOM     12  H   UNL     1       1.133   6.735  21.509  0.00  0.00    +0.000 HD
BRANCH   9  16
ATOM     13  C   UNL     1      -0.144  11.291  21.898  0.00  0.00    +0.000 A 
ATOM     14  C   UNL     1       0.352  11.066  20.616  0.00  0.00    +0.000 A 
ATOM     15  C   UNL     1       0.846   9.812  20.263  0.00  0.00    +0.000 A 
ATOM     16  C   UNL     1       0.854   8.758  21.177  0.00  0.00    +0.000 A 
ATOM     17  C   UNL     1       0.331   8.975  22.460  0.00  0.00    +0.000 A 
ATOM     18  C   UNL     1      -0.163  10.238  22.823  0.00  0.00    +0.000 A 
BRANCH  13  19
ATOM     19  C   UNL     1      -0.536  12.684  22.231  0.00  0.00    +0.000 C 
ATOM     20  O   UNL     1      -0.210  13.654  21.567  0.00  0.00    +0.000 OA
BRANCH  19  21
ATOM     21  O   UNL     1      -1.160  12.710  23.431  0.00  0.00    +0.000 OA
BRANCH  21  23
ATOM     22  C   UNL     1      -3.532  12.550  23.564  0.00  0.00    +0.000 C 
ATOM     23  C   UNL     1      -2.353  13.502  23.462  0.00  0.00    +0.000 C 
ENDBRANCH  21  23
ENDBRANCH  19  21
ENDBRANCH  13  19
ENDBRANCH   9  16
ENDBRANCH   1  10
BRANCH   8  24
ATOM     24  C   UNL     1       4.881   5.821  19.180  0.00  0.00    +0.000 C 
BRANCH  24  25
ATOM     25  C   UNL     1       5.510   5.658  17.815  0.00  0.00    +0.000 A 
ATOM     26  C   UNL     1       6.740   4.997  17.671  0.00  0.00    +0.000 A 
ATOM     27  C   UNL     1       7.287   4.767  16.405  0.00  0.00    +0.000 A 
ATOM     28  C   UNL     1       6.604   5.191  15.269  0.00  0.00    +0.000 A 
ATOM     29 CL   UNL     1       7.250   4.860  13.709  0.00  0.00    +0.000 Cl
ATOM     30  C   UNL     1       5.391   5.862  15.390  0.00  0.00    +0.000 A 
ATOM     31  C   UNL     1       4.849   6.101  16.658  0.00  0.00    +0.000 A 
ENDBRANCH  24  25
ENDBRANCH   8  24
TORSDOF 7
ENDMDL
MODEL 4
REMARK VINA RESULT:      -8.0      4.080      9.583
REMARK  Name = 
REMARK  8 active torsions:
REMARK  status: ('A' for Active; 'I' for Inactive)
REMARK    1  A    between atoms: C_1  and  C_2
REMARK    2  A    between atoms: C_2  and  O_3
REMARK    3  A    between atoms: O_3  and  C_4
REMARK    4  A    between atoms: C_4  and  C_6
REMARK    5  A    between atoms: C_9  and  N_10
REMARK    6  A    between atoms: C_11  and  C_13
REMARK    7  A    between atoms: N_20  and  C_21
REMARK    8  A    between atoms: C_21  and  C_22
REMARK                            x       y       z     vdW  Elec       q    Type
REMARK                         _______ _______ _______ _____ _____    ______ ____
ROOT
ATOM      1  C   UNL     1       2.314   5.737  19.730  0.00  0.00    +0.000 A 
ATOM      2  C   UNL     1       1.427   4.697  19.972  0.00  0.00    +0.000 A 
ATOM      3  C   UNL     1       2.094   3.508  19.587  0.00  0.00    +0.000 A 
ATOM      4  S   UNL     1       1.763   1.816  19.448  0.00  0.00    +0.000 S 
ATOM      5  C   UNL     1       3.341   1.569  18.815  0.00  0.00    +0.000 A 
ATOM      6  C   UNL     1       4.123   2.703  18.786  0.00  0.00    +0.000 A 
ATOM      7  C   UNL     1       3.365   3.828  19.214  0.00  0.00    +0.000 A 
ATOM      8  N   UNL     1       3.537   5.189  19.373  0.00  0.00    +0.000 N 
ENDROOT
BRANCH   1  10
ATOM      9  N   UNL     1       1.334   7.494  20.988  0.00  0.00    +0.000 N 
ATOM     10  C   UNL     1       2.050   7.162  19.848  0.00  0.00    +0.000 C 
ATOM     11  O   UNL     1       2.411   7.948  18.977  0.00  0.00    +0.000 OA
ATOM     12  H   UNL     1       1.104   6.734  21.618  0.00  0.00    +0.000 HD
BRANCH   9  16
ATOM     13  C   UNL     1      -0.171  11.331  21.919  0.00  0.00    +0.000 A 
ATOM     14  C   UNL     1      -0.353  10.278  22.814  0.00  0.00    +0.000 A 
ATOM     15  C   UNL     1       0.144   9.011  22.520  0.00  0.00    +0.000 A 
ATOM     16  C   UNL     1       0.834   8.766  21.331  0.00  0.00    +0.000 A 
ATOM     17  C   UNL     1       1.040   9.829  20.440  0.00  0.00    +0.000 A 
ATOM     18  C   UNL     1       0.537  11.107  20.730  0.00  0.00    +0.000 A 
BRANCH  13  19
ATOM     19  C   UNL     1      -0.837  12.616  22.250  0.00  0.00    +0.000 C 
ATOM     20  O   UNL     1      -1.011  13.012  23.391  0.00  0.00    +0.000 OA
BRANCH  19  21
ATOM     21  O   UNL     1      -1.334  13.178  21.124  0.00  0.00    +0.000 OA
BRANCH  21  23
ATOM     22  C   UNL     1      -2.862  12.223  19.567  0.00  0.00    +0.000 C 
ATOM     23  C   UNL     1      -2.728  12.931  20.904  0.00  0.00    +0.000 C 
ENDBRANCH  21  23
ENDBRANCH  19  21
ENDBRANCH  13  19
ENDBRANCH   9  16
ENDBRANCH   1  10
BRANCH   8  24
ATOM     24  C   UNL     1       4.828   5.852  19.232  0.00  0.00    +0.000 C 
BRANCH  24  25
ATOM     25  C   UNL     1       5.462   5.676  17.871  0.00  0.00    +0.000 A 
ATOM     26  C   UNL     1       6.670   4.975  17.731  0.00  0.00    +0.000 A 
ATOM     27  C   UNL     1       7.218   4.735  16.468  0.00  0.00    +0.000 A 
ATOM     28  C   UNL     1       6.559   5.189  15.330  0.00  0.00    +0.000 A 
ATOM     29 CL   UNL     1       7.205   4.846  13.772  0.00  0.00    +0.000 Cl
ATOM     30  C   UNL     1       5.369   5.900  15.446  0.00  0.00    +0.000 A 
ATOM     31  C   UNL     1       4.826   6.149  16.711  0.00  0.00    +0.000 A 
ENDBRANCH  24  25
ENDBRANCH   8  24
TORSDOF 7
ENDMDL
MODEL 5
REMARK VINA RESULT:      -7.9      4.149      9.636
REMARK  Name = 
REMARK  8 active torsions:
REMARK  status: ('A' for Active; 'I' for Inactive)
REMARK    1  A    between atoms: C_1  and  C_2
REMARK    2  A    between atoms: C_2  and  O_3
REMARK    3  A    between atoms: O_3  and  C_4
REMARK    4  A    between atoms: C_4  and  C_6
REMARK    5  A    between atoms: C_9  and  N_10
REMARK    6  A    between atoms: C_11  and  C_13
REMARK    7  A    between atoms: N_20  and  C_21
REMARK    8  A    between atoms: C_21  and  C_22
REMARK                            x       y       z     vdW  Elec       q    Type
REMARK                         _______ _______ _______ _____ _____    ______ ____
ROOT
ATOM      1  C   UNL     1       2.283   5.823  19.841  0.00  0.00    +0.000 A 
ATOM      2  C   UNL     1       1.425   4.784  20.178  0.00  0.00    +0.000 A 
ATOM      3  C   UNL     1       2.083   3.587  19.799  0.00  0.00    +0.000 A 
ATOM      4  S   UNL     1       1.765   1.887  19.748  0.00  0.00    +0.000 S 
ATOM      5  C   UNL     1       3.305   1.631  19.029  0.00  0.00    +0.000 A 
ATOM      6  C   UNL     1       4.069   2.772  18.907  0.00  0.00    +0.000 A 
ATOM      7  C   UNL     1       3.324   3.905  19.337  0.00  0.00    +0.000 A 
ATOM      8  N   UNL     1       3.489   5.272  19.431  0.00  0.00    +0.000 N 
ENDROOT
BRANCH   1  10
ATOM      9  N   UNL     1       1.247   7.600  21.022  0.00  0.00    +0.000 N 
ATOM     10  C   UNL     1       2.009   7.247  19.919  0.00  0.00    +0.000 C 
ATOM     11  O   UNL     1       2.401   8.017  19.046  0.00  0.00    +0.000 OA
ATOM     12  H   UNL     1       0.995   6.852  21.658  0.00  0.00    +0.000 HD
BRANCH   9  16
ATOM     13  C   UNL     1      -0.303  11.404  22.011  0.00  0.00    +0.000 A 
ATOM     14  C   UNL     1       0.378  11.223  20.809  0.00  0.00    +0.000 A 
ATOM     15  C   UNL     1       0.888   9.972  20.470  0.00  0.00    +0.000 A 
ATOM     16  C   UNL     1       0.728   8.876  21.319  0.00  0.00    +0.000 A 
ATOM     17  C   UNL     1       0.021   9.049  22.518  0.00  0.00    +0.000 A 
ATOM     18  C   UNL     1      -0.491  10.309  22.866  0.00  0.00    +0.000 A 
BRANCH  13  19
ATOM     19  C   UNL     1      -0.706  12.792  22.352  0.00  0.00    +0.000 C 
ATOM     20  O   UNL     1      -0.482  13.313  23.433  0.00  0.00    +0.000 OA
BRANCH  19  21
ATOM     21  O   UNL     1      -1.466  13.307  21.359  0.00  0.00    +0.000 OA
BRANCH  21  23
ATOM     22  C   UNL     1      -3.286  12.555  20.020  0.00  0.00    +0.000 C 
ATOM     23  C   UNL     1      -2.850  12.943  21.422  0.00  0.00    +0.000 C 
ENDBRANCH  21  23
ENDBRANCH  19  21
ENDBRANCH  13  19
ENDBRANCH   9  16
ENDBRANCH   1  10
BRANCH   8  24
ATOM     24  C   UNL     1       4.760   5.942  19.184  0.00  0.00    +0.000 C 
BRANCH  24  25
ATOM     25  C   UNL     1       5.369   5.625  17.838  0.00  0.00    +0.000 A 
ATOM     26  C   UNL     1       4.750   6.057  16.654  0.00  0.00    +0.000 A 
ATOM     27  C   UNL     1       5.350   5.843  15.411  0.00  0.00    +0.000 A 
ATOM     28  C   UNL     1       6.581   5.198  15.338  0.00  0.00    +0.000 A 
ATOM     29 CL   UNL     1       7.346   4.982  13.812  0.00  0.00    +0.000 Cl
ATOM     30  C   UNL     1       7.205   4.747  16.497  0.00  0.00    +0.000 A 
ATOM     31  C   UNL     1       6.599   4.954  17.741  0.00  0.00    +0.000 A 
ENDBRANCH  24  25
ENDBRANCH   8  24
TORSDOF 7
ENDMDL
MODEL 6
REMARK VINA RESULT:      -7.9      0.576      1.056
REMARK  Name = 
REMARK  8 active torsions:
REMARK  status: ('A' for Active; 'I' for Inactive)
REMARK    1  A    between atoms: C_1  and  C_2
REMARK    2  A    between atoms: C_2  and  O_3
REMARK    3  A    between atoms: O_3  and  C_4
REMARK    4  A    between atoms: C_4  and  C_6
REMARK    5  A    between atoms: C_9  and  N_10
REMARK    6  A    between atoms: C_11  and  C_13
REMARK    7  A    between atoms: N_20  and  C_21
REMARK    8  A    between atoms: C_21  and  C_22
REMARK                            x       y       z     vdW  Elec       q    Type
REMARK                         _______ _______ _______ _____ _____    ______ ____
ROOT
ATOM      1  C   UNL     1       1.221   8.981  19.643  0.00  0.00    +0.000 A 
ATOM      2  C   UNL     1       1.140   8.409  20.906  0.00  0.00    +0.000 A 
ATOM      3  C   UNL     1       0.400   9.314  21.706  0.00  0.00    +0.000 A 
ATOM      4  S   UNL     1      -0.101   9.487  23.353  0.00  0.00    +0.000 S 
ATOM      5  C   UNL     1      -0.817  11.000  22.967  0.00  0.00    +0.000 A 
ATOM      6  C   UNL     1      -0.757  11.330  21.630  0.00  0.00    +0.000 A 
ATOM      7  C   UNL     1      -0.017  10.345  20.919  0.00  0.00    +0.000 A 
ATOM      8  N   UNL     1       0.416  10.111  19.628  0.00  0.00    +0.000 N 
ENDROOT
BRANCH   1  10
ATOM      9  N   UNL     1       2.555   7.250  18.721  0.00  0.00    +0.000 N 
ATOM     10  C   UNL     1       1.983   8.495  18.506  0.00  0.00    +0.000 C 
ATOM     11  O   UNL     1       2.113   9.175  17.492  0.00  0.00    +0.000 OA
ATOM     12  H   UNL     1       2.360   6.808  19.612  0.00  0.00    +0.000 HD
BRANCH   9  16
ATOM     13  C   UNL     1       5.254   5.262  16.150  0.00  0.00    +0.000 A 
ATOM     14  C   UNL     1       4.284   4.533  16.835  0.00  0.00    +0.000 A 
ATOM     15  C   UNL     1       3.385   5.179  17.680  0.00  0.00    +0.000 A 
ATOM     16  C   UNL     1       3.432   6.562  17.859  0.00  0.00    +0.000 A 
ATOM     17  C   UNL     1       4.392   7.301  17.152  0.00  0.00    +0.000 A 
ATOM     18  C   UNL     1       5.303   6.654  16.302  0.00  0.00    +0.000 A 
BRANCH  13  19
ATOM     19  C   UNL     1       6.249   4.486  15.367  0.00  0.00    +0.000 C 
ATOM     20  O   UNL     1       7.399   4.303  15.730  0.00  0.00    +0.000 OA
BRANCH  19  21
ATOM     21  O   UNL     1       5.729   4.158  14.162  0.00  0.00    +0.000 OA
BRANCH  21  23
ATOM     22  C   UNL     1       7.426   5.130  12.803  0.00  0.00    +0.000 C 
ATOM     23  C   UNL     1       6.705   3.842  13.162  0.00  0.00    +0.000 C 
ENDBRANCH  21  23
ENDBRANCH  19  21
ENDBRANCH  13  19
ENDBRANCH   9  16
ENDBRANCH   1  10
BRANCH   8  24
ATOM     24  C   UNL     1       0.003  10.923  18.489  0.00  0.00    +0.000 C 
BRANCH  24  25
ATOM     25  C   UNL     1      -1.492  10.955  18.268  0.00  0.00    +0.000 A 
ATOM     26  C   UNL     1      -2.151   9.864  17.682  0.00  0.00    +0.000 A 
ATOM     27  C   UNL     1      -3.542   9.851  17.552  0.00  0.00    +0.000 A 
ATOM     28  C   UNL     1      -4.290  10.929  18.014  0.00  0.00    +0.000 A 
ATOM     29 CL   UNL     1      -6.007  10.891  17.904  0.00  0.00    +0.000 Cl
ATOM     30  C   UNL     1      -3.656  12.030  18.583  0.00  0.00    +0.000 A 
ATOM     31  C   UNL     1      -2.262  12.046  18.703  0.00  0.00    +0.000 A 
ENDBRANCH  24  25
ENDBRANCH   8  24
TORSDOF 7
ENDMDL
MODEL 7
REMARK VINA RESULT:      -7.9      4.319      9.617
REMARK  Name = 
REMARK  8 active torsions:
REMARK  status: ('A' for Active; 'I' for Inactive)
REMARK    1  A    between atoms: C_1  and  C_2
REMARK    2  A    between atoms: C_2  and  O_3
REMARK    3  A    between atoms: O_3  and  C_4
REMARK    4  A    between atoms: C_4  and  C_6
REMARK    5  A    between atoms: C_9  and  N_10
REMARK    6  A    between atoms: C_11  and  C_13
REMARK    7  A    between atoms: N_20  and  C_21
REMARK    8  A    between atoms: C_21  and  C_22
REMARK                            x       y       z     vdW  Elec       q    Type
REMARK                         _______ _______ _______ _____ _____    ______ ____
ROOT
ATOM      1  C   UNL     1       2.323   5.774  19.796  0.00  0.00    +0.000 A 
ATOM      2  C   UNL     1       1.457   4.727  20.082  0.00  0.00    +0.000 A 
ATOM      3  C   UNL     1       2.138   3.538  19.721  0.00  0.00    +0.000 A 
ATOM      4  S   UNL     1       1.833   1.837  19.638  0.00  0.00    +0.000 S 
ATOM      5  C   UNL     1       3.405   1.597  18.988  0.00  0.00    +0.000 A 
ATOM      6  C   UNL     1       4.168   2.743  18.912  0.00  0.00    +0.000 A 
ATOM      7  C   UNL     1       3.398   3.867  19.319  0.00  0.00    +0.000 A 
ATOM      8  N   UNL     1       3.549   5.235  19.435  0.00  0.00    +0.000 N 
ENDROOT
BRANCH   1  10
ATOM      9  N   UNL     1       1.257   7.538  20.970  0.00  0.00    +0.000 N 
ATOM     10  C   UNL     1       2.038   7.197  19.876  0.00  0.00    +0.000 C 
ATOM     11  O   UNL     1       2.437   7.973  19.012  0.00  0.00    +0.000 OA
ATOM     12  H   UNL     1       1.002   6.786  21.599  0.00  0.00    +0.000 HD
BRANCH   9  16
ATOM     13  C   UNL     1      -0.321  11.333  21.952  0.00  0.00    +0.000 A 
ATOM     14  C   UNL     1       0.232  11.116  20.692  0.00  0.00    +0.000 A 
ATOM     15  C   UNL     1       0.749   9.868  20.355  0.00  0.00    +0.000 A 
ATOM     16  C   UNL     1       0.726   8.810  21.265  0.00  0.00    +0.000 A 
ATOM     17  C   UNL     1       0.147   9.017  22.525  0.00  0.00    +0.000 A 
ATOM     18  C   UNL     1      -0.372  10.275  22.871  0.00  0.00    +0.000 A 
BRANCH  13  19
ATOM     19  C   UNL     1      -0.737  12.721  22.274  0.00  0.00    +0.000 C 
ATOM     20  O   UNL     1      -0.341  13.335  23.251  0.00  0.00    +0.000 OA
BRANCH  19  21
ATOM     21  O   UNL     1      -1.708  13.118  21.419  0.00  0.00    +0.000 OA
BRANCH  21  23
ATOM     22  C   UNL     1      -0.628  14.632  19.932  0.00  0.00    +0.000 C 
ATOM     23  C   UNL     1      -1.644  14.502  21.053  0.00  0.00    +0.000 C 
ENDBRANCH  21  23
ENDBRANCH  19  21
ENDBRANCH  13  19
ENDBRANCH   9  16
ENDBRANCH   1  10
BRANCH   8  24
ATOM     24  C   UNL     1       4.827   5.914  19.254  0.00  0.00    +0.000 C 
BRANCH  24  25
ATOM     25  C   UNL     1       5.444   5.707  17.889  0.00  0.00    +0.000 A 
ATOM     26  C   UNL     1       6.667   5.033  17.753  0.00  0.00    +0.000 A 
ATOM     27  C   UNL     1       7.201   4.763  16.490  0.00  0.00    +0.000 A 
ATOM     28  C   UNL     1       6.512   5.158  15.348  0.00  0.00    +0.000 A 
ATOM     29 CL   UNL     1       7.141   4.778  13.792  0.00  0.00    +0.000 Cl
ATOM     30  C   UNL     1       5.305   5.842  15.460  0.00  0.00    +0.000 A 
ATOM     31  C   UNL     1       4.776   6.121  16.725  0.00  0.00    +0.000 A 
ENDBRANCH  24  25
ENDBRANCH   8  24
TORSDOF 7
ENDMDL
MODEL 8
REMARK VINA RESULT:      -7.8      2.421      3.729
REMARK  Name = 
REMARK  8 active torsions:
REMARK  status: ('A' for Active; 'I' for Inactive)
REMARK    1  A    between atoms: C_1  and  C_2
REMARK    2  A    between atoms: C_2  and  O_3
REMARK    3  A    between atoms: O_3  and  C_4
REMARK    4  A    between atoms: C_4  and  C_6
REMARK    5  A    between atoms: C_9  and  N_10
REMARK    6  A    between atoms: C_11  and  C_13
REMARK    7  A    between atoms: N_20  and  C_21
REMARK    8  A    between atoms: C_21  and  C_22
REMARK                            x       y       z     vdW  Elec       q    Type
REMARK                         _______ _______ _______ _____ _____    ______ ____
ROOT
ATOM      1  C   UNL     1      -0.231  10.507  22.078  0.00  0.00    +0.000 A 
ATOM      2  C   UNL     1      -1.122  10.486  23.143  0.00  0.00    +0.000 A 
ATOM      3  C   UNL     1      -1.904  11.662  23.032  0.00  0.00    +0.000 A 
ATOM      4  S   UNL     1      -3.140  12.491  23.912  0.00  0.00    +0.000 S 
ATOM      5  C   UNL     1      -3.110  13.754  22.747  0.00  0.00    +0.000 A 
ATOM      6  C   UNL     1      -2.260  13.524  21.686  0.00  0.00    +0.000 A 
ATOM      7  C   UNL     1      -1.547  12.311  21.888  0.00  0.00    +0.000 A 
ATOM      8  N   UNL     1      -0.572  11.568  21.251  0.00  0.00    +0.000 N 
ENDROOT
BRANCH   1  10
ATOM      9  N   UNL     1       0.620   8.728  20.760  0.00  0.00    +0.000 N 
ATOM     10  C   UNL     1       0.860   9.581  21.827  0.00  0.00    +0.000 C 
ATOM     11  O   UNL     1       1.858   9.567  22.542  0.00  0.00    +0.000 OA
ATOM     12  H   UNL     1      -0.253   8.858  20.262  0.00  0.00    +0.000 HD
BRANCH   9  16
ATOM     13  C   UNL     1       3.112   5.580  19.446  0.00  0.00    +0.000 A 
ATOM     14  C   UNL     1       2.297   5.400  20.562  0.00  0.00    +0.000 A 
ATOM     15  C   UNL     1       1.467   6.429  21.000  0.00  0.00    +0.000 A 
ATOM     16  C   UNL     1       1.430   7.656  20.336  0.00  0.00    +0.000 A 
ATOM     17  C   UNL     1       2.231   7.831  19.198  0.00  0.00    +0.000 A 
ATOM     18  C   UNL     1       3.072   6.799  18.755  0.00  0.00    +0.000 A 
BRANCH  13  19
ATOM     19  C   UNL     1       4.055   4.481  19.119  0.00  0.00    +0.000 C 
ATOM     20  O   UNL     1       3.850   3.310  19.396  0.00  0.00    +0.000 OA
BRANCH  19  21
ATOM     21  O   UNL     1       5.203   4.994  18.621  0.00  0.00    +0.000 OA
BRANCH  21  23
ATOM     22  C   UNL     1       5.086   5.024  16.242  0.00  0.00    +0.000 C 
ATOM     23  C   UNL     1       5.691   4.329  17.450  0.00  0.00    +0.000 C 
ENDBRANCH  21  23
ENDBRANCH  19  21
ENDBRANCH  13  19
ENDBRANCH   9  16
ENDBRANCH   1  10
BRANCH   8  24
ATOM     24  C   UNL     1      -0.080  11.877  19.913  0.00  0.00    +0.000 C 
BRANCH  24  25
ATOM     25  C   UNL     1      -0.934  11.313  18.801  0.00  0.00    +0.000 A 
ATOM     26  C   UNL     1      -2.079  11.995  18.363  0.00  0.00    +0.000 A 
ATOM     27  C   UNL     1      -2.825  11.524  17.279  0.00  0.00    +0.000 A 
ATOM     28  C   UNL     1      -2.428  10.367  16.617  0.00  0.00    +0.000 A 
ATOM     29 CL   UNL     1      -3.314   9.816  15.248  0.00  0.00    +0.000 Cl
ATOM     30  C   UNL     1      -1.305   9.665  17.044  0.00  0.00    +0.000 A 
ATOM     31  C   UNL     1      -0.564  10.132  18.136  0.00  0.00    +0.000 A 
ENDBRANCH  24  25
ENDBRANCH   8  24
TORSDOF 7
ENDMDL
MODEL 9
REMARK VINA RESULT:      -7.8      2.620      3.694
REMARK  Name = 
REMARK  8 active torsions:
REMARK  status: ('A' for Active; 'I' for Inactive)
REMARK    1  A    between atoms: C_1  and  C_2
REMARK    2  A    between atoms: C_2  and  O_3
REMARK    3  A    between atoms: O_3  and  C_4
REMARK    4  A    between atoms: C_4  and  C_6
REMARK    5  A    between atoms: C_9  and  N_10
REMARK    6  A    between atoms: C_11  and  C_13
REMARK    7  A    between atoms: N_20  and  C_21
REMARK    8  A    between atoms: C_21  and  C_22
REMARK                            x       y       z     vdW  Elec       q    Type
REMARK                         _______ _______ _______ _____ _____    ______ ____
ROOT
ATOM      1  C   UNL     1      -0.270  10.579  21.999  0.00  0.00    +0.000 A 
ATOM      2  C   UNL     1      -1.108  10.512  23.104  0.00  0.00    +0.000 A 
ATOM      3  C   UNL     1      -1.946  11.653  23.037  0.00  0.00    +0.000 A 
ATOM      4  S   UNL     1      -3.175  12.422  23.980  0.00  0.00    +0.000 S 
ATOM      5  C   UNL     1      -3.254  13.691  22.824  0.00  0.00    +0.000 A 
ATOM      6  C   UNL     1      -2.446  13.505  21.723  0.00  0.00    +0.000 A 
ATOM      7  C   UNL     1      -1.671  12.323  21.883  0.00  0.00    +0.000 A 
ATOM      8  N   UNL     1      -0.695  11.628  21.197  0.00  0.00    +0.000 N 
ENDROOT
BRANCH   1  10
ATOM      9  N   UNL     1       0.670   8.977  20.523  0.00  0.00    +0.000 N 
ATOM     10  C   UNL     1       0.848   9.704  21.691  0.00  0.00    +0.000 C 
ATOM     11  O   UNL     1       1.815   9.621  22.443  0.00  0.00    +0.000 OA
ATOM     12  H   UNL     1      -0.183   9.152  20.006  0.00  0.00    +0.000 HD
BRANCH   9  16
ATOM     13  C   UNL     1       3.158   5.897  19.049  0.00  0.00    +0.000 A 
ATOM     14  C   UNL     1       3.022   7.083  18.331  0.00  0.00    +0.000 A 
ATOM     15  C   UNL     1       2.210   8.107  18.810  0.00  0.00    +0.000 A 
ATOM     16  C   UNL     1       1.517   7.973  20.015  0.00  0.00    +0.000 A 
ATOM     17  C   UNL     1       1.671   6.790  20.752  0.00  0.00    +0.000 A 
ATOM     18  C   UNL     1       2.486   5.752  20.270  0.00  0.00    +0.000 A 
BRANCH  13  19
ATOM     19  C   UNL     1       3.942   4.811  18.409  0.00  0.00    +0.000 C 
ATOM     20  O   UNL     1       3.596   4.239  17.388  0.00  0.00    +0.000 OA
BRANCH  19  21
ATOM     21  O   UNL     1       4.985   4.470  19.202  0.00  0.00    +0.000 OA
BRANCH  21  23
ATOM     22  C   UNL     1       7.060   4.839  18.094  0.00  0.00    +0.000 C 
ATOM     23  C   UNL     1       6.096   5.372  19.139  0.00  0.00    +0.000 C 
ENDBRANCH  21  23
ENDBRANCH  19  21
ENDBRANCH  13  19
ENDBRANCH   9  16
ENDBRANCH   1  10
BRANCH   8  24
ATOM     24  C   UNL     1      -0.280  11.966  19.840  0.00  0.00    +0.000 C 
BRANCH  24  25
ATOM     25  C   UNL     1      -1.163  11.376  18.764  0.00  0.00    +0.000 A 
ATOM     26  C   UNL     1      -2.399  11.964  18.453  0.00  0.00    +0.000 A 
ATOM     27  C   UNL     1      -3.182  11.477  17.403  0.00  0.00    +0.000 A 
ATOM     28  C   UNL     1      -2.732  10.398  16.647  0.00  0.00    +0.000 A 
ATOM     29 CL   UNL     1      -3.669   9.832  15.320  0.00  0.00    +0.000 Cl
ATOM     30  C   UNL     1      -1.517   9.789  16.948  0.00  0.00    +0.000 A 
ATOM     31  C   UNL     1      -0.739  10.272  18.006  0.00  0.00    +0.000 A 
ENDBRANCH  24  25
ENDBRANCH   8  24
TORSDOF 7
ENDMDL
