MODEL 1
REMARK VINA RESULT:      -7.1      0.000      0.000
REMARK  Name = 
REMARK  3 active torsions:
REMARK  status: ('A' for Active; 'I' for Inactive)
REMARK    1  A    between atoms: C_1  and  C_2
REMARK    2  A    between atoms: C_4  and  N_5
REMARK    3  A    between atoms: C_8  and  C_9
REMARK                            x       y       z     vdW  Elec       q    Type
REMARK                         _______ _______ _______ _____ _____    ______ ____
ROOT
ATOM      1  C   UNL     1       4.509   7.211  17.071  0.00  0.00    +0.000 C 
ATOM      2  C   UNL     1       4.907   5.965  16.321  0.00  0.00    +0.000 A 
ATOM      3  C   UNL     1       6.025   6.181  15.466  0.00  0.00    +0.000 A 
ATOM      4  C   UNL     1       6.700   5.149  14.821  0.00  0.00    +0.000 A 
ATOM      5  C   UNL     1       6.249   3.856  15.026  0.00  0.00    +0.000 A 
ATOM      6  C   UNL     1       5.131   3.612  15.829  0.00  0.00    +0.000 A 
ATOM      7  C   UNL     1       4.451   4.637  16.533  0.00  0.00    +0.000 A 
ENDROOT
BRANCH   7   8
ATOM      8  C   UNL     1       3.577   4.109  17.629  0.00  0.00    +0.000 A 
ATOM      9  N   UNL     1       4.117   3.438  18.639  0.00  0.00    +0.000 NA
ATOM     10  C   UNL     1       3.182   3.138  19.612  0.00  0.00    +0.000 A 
ATOM     11  C   UNL     1       3.444   2.496  20.844  0.00  0.00    +0.000 A 
ATOM     12  C   UNL     1       2.424   2.347  21.790  0.00  0.00    +0.000 A 
ATOM     13  C   UNL     1       1.145   2.821  21.516  0.00  0.00    +0.000 A 
ATOM     14  C   UNL     1       0.852   3.419  20.278  0.00  0.00    +0.000 A 
ATOM     15  C   UNL     1       1.886   3.558  19.325  0.00  0.00    +0.000 A 
ATOM     16  S   UNL     1       1.865   4.213  17.706  0.00  0.00    +0.000 S 
ENDBRANCH   7   8
BRANCH   4  17
ATOM     17  N   UNL     1       7.951   5.389  14.244  0.00  0.00    +0.000 N 
ATOM     18  H   UNL     1       8.606   4.617  14.330  0.00  0.00    +0.000 HD
ATOM     19  H   UNL     1       8.365   6.280  14.494  0.00  0.00    +0.000 HD
ENDBRANCH   4  17
TORSDOF 2
ENDMDL
MODEL 2
REMARK VINA RESULT:      -6.9      2.422      2.788
REMARK  Name = 
REMARK  3 active torsions:
REMARK  status: ('A' for Active; 'I' for Inactive)
REMARK    1  A    between atoms: C_1  and  C_2
REMARK    2  A    between atoms: C_4  and  N_5
REMARK    3  A    between atoms: C_8  and  C_9
REMARK                            x       y       z     vdW  Elec       q    Type
REMARK                         _______ _______ _______ _____ _____    ______ ____
ROOT
ATOM      1  C   UNL     1       5.018   6.784  15.969  0.00  0.00    +0.000 C 
ATOM      2  C   UNL     1       6.012   6.449  17.051  0.00  0.00    +0.000 A 
ATOM      3  C   UNL     1       7.050   7.420  17.153  0.00  0.00    +0.000 A 
ATOM      4  C   UNL     1       7.972   7.440  18.195  0.00  0.00    +0.000 A 
ATOM      5  C   UNL     1       7.866   6.463  19.171  0.00  0.00    +0.000 A 
ATOM      6  C   UNL     1       6.883   5.474  19.081  0.00  0.00    +0.000 A 
ATOM      7  C   UNL     1       5.903   5.452  18.056  0.00  0.00    +0.000 A 
ENDROOT
BRANCH   7   8
ATOM      8  C   UNL     1       4.732   4.579  18.388  0.00  0.00    +0.000 A 
ATOM      9  N   UNL     1       4.187   4.637  19.597  0.00  0.00    +0.000 NA
ATOM     10  C   UNL     1       3.047   3.859  19.682  0.00  0.00    +0.000 A 
ATOM     11  C   UNL     1       2.194   3.757  20.805  0.00  0.00    +0.000 A 
ATOM     12  C   UNL     1       1.011   3.014  20.723  0.00  0.00    +0.000 A 
ATOM     13  C   UNL     1       0.677   2.364  19.539  0.00  0.00    +0.000 A 
ATOM     14  C   UNL     1       1.534   2.413  18.428  0.00  0.00    +0.000 A 
ATOM     15  C   UNL     1       2.732   3.158  18.520  0.00  0.00    +0.000 A 
ATOM     16  S   UNL     1       4.017   3.402  17.364  0.00  0.00    +0.000 S 
ENDBRANCH   7   8
BRANCH   4  17
ATOM     17  N   UNL     1       8.768   8.572  18.399  0.00  0.00    +0.000 N 
ATOM     18  H   UNL     1       8.731   8.944  19.343  0.00  0.00    +0.000 HD
ATOM     19  H   UNL     1       8.662   9.292  17.692  0.00  0.00    +0.000 HD
ENDBRANCH   4  17
TORSDOF 2
ENDMDL
MODEL 3
REMARK VINA RESULT:      -6.8      1.043      1.539
REMARK  Name = 
REMARK  3 active torsions:
REMARK  status: ('A' for Active; 'I' for Inactive)
REMARK    1  A    between atoms: C_1  and  C_2
REMARK    2  A    between atoms: C_4  and  N_5
REMARK    3  A    between atoms: C_8  and  C_9
REMARK                            x       y       z     vdW  Elec       q    Type
REMARK                         _______ _______ _______ _____ _____    ______ ____
ROOT
ATOM      1  C   UNL     1       4.713   7.312  16.863  0.00  0.00    +0.000 C 
ATOM      2  C   UNL     1       5.063   6.003  16.203  0.00  0.00    +0.000 A 
ATOM      3  C   UNL     1       6.015   6.162  15.156  0.00  0.00    +0.000 A 
ATOM      4  C   UNL     1       6.641   5.089  14.528  0.00  0.00    +0.000 A 
ATOM      5  C   UNL     1       6.310   3.812  14.950  0.00  0.00    +0.000 A 
ATOM      6  C   UNL     1       5.352   3.620  15.949  0.00  0.00    +0.000 A 
ATOM      7  C   UNL     1       4.730   4.692  16.636  0.00  0.00    +0.000 A 
ENDROOT
BRANCH   7   8
ATOM      8  C   UNL     1       4.077   4.264  17.915  0.00  0.00    +0.000 A 
ATOM      9  N   UNL     1       2.760   4.356  18.047  0.00  0.00    +0.000 NA
ATOM     10  C   UNL     1       2.325   3.803  19.237  0.00  0.00    +0.000 A 
ATOM     11  C   UNL     1       0.979   3.676  19.650  0.00  0.00    +0.000 A 
ATOM     12  C   UNL     1       0.669   2.998  20.834  0.00  0.00    +0.000 A 
ATOM     13  C   UNL     1       1.685   2.458  21.615  0.00  0.00    +0.000 A 
ATOM     14  C   UNL     1       3.032   2.615  21.247  0.00  0.00    +0.000 A 
ATOM     15  C   UNL     1       3.339   3.308  20.054  0.00  0.00    +0.000 A 
ATOM     16  S   UNL     1       4.876   3.705  19.328  0.00  0.00    +0.000 S 
ENDBRANCH   7   8
BRANCH   4  17
ATOM     17  N   UNL     1       7.766   5.310  13.729  0.00  0.00    +0.000 N 
ATOM     18  H   UNL     1       8.442   5.955  14.126  0.00  0.00    +0.000 HD
ATOM     19  H   UNL     1       7.557   5.515  12.757  0.00  0.00    +0.000 HD
ENDBRANCH   4  17
TORSDOF 2
ENDMDL
MODEL 4
REMARK VINA RESULT:      -6.7      3.778      4.875
REMARK  Name = 
REMARK  3 active torsions:
REMARK  status: ('A' for Active; 'I' for Inactive)
REMARK    1  A    between atoms: C_1  and  C_2
REMARK    2  A    between atoms: C_4  and  N_5
REMARK    3  A    between atoms: C_8  and  C_9
REMARK                            x       y       z     vdW  Elec       q    Type
REMARK                         _______ _______ _______ _____ _____    ______ ____
ROOT
ATOM      1  C   UNL     1       1.680   3.996  17.902  0.00  0.00    +0.000 C 
ATOM      2  C   UNL     1       3.065   4.587  17.840  0.00  0.00    +0.000 A 
ATOM      3  C   UNL     1       3.959   3.792  17.067  0.00  0.00    +0.000 A 
ATOM      4  C   UNL     1       5.232   4.218  16.699  0.00  0.00    +0.000 A 
ATOM      5  C   UNL     1       5.636   5.476  17.114  0.00  0.00    +0.000 A 
ATOM      6  C   UNL     1       4.798   6.266  17.906  0.00  0.00    +0.000 A 
ATOM      7  C   UNL     1       3.482   5.878  18.260  0.00  0.00    +0.000 A 
ENDROOT
BRANCH   7   8
ATOM      8  C   UNL     1       2.644   7.025  18.735  0.00  0.00    +0.000 A 
ATOM      9  N   UNL     1       2.169   7.027  19.974  0.00  0.00    +0.000 NA
ATOM     10  C   UNL     1       1.528   8.215  20.275  0.00  0.00    +0.000 A 
ATOM     11  C   UNL     1       0.976   8.565  21.528  0.00  0.00    +0.000 A 
ATOM     12  C   UNL     1       0.447   9.845  21.730  0.00  0.00    +0.000 A 
ATOM     13  C   UNL     1       0.454  10.773  20.694  0.00  0.00    +0.000 A 
ATOM     14  C   UNL     1       0.955  10.429  19.427  0.00  0.00    +0.000 A 
ATOM     15  C   UNL     1       1.479   9.132  19.228  0.00  0.00    +0.000 A 
ATOM     16  S   UNL     1       2.141   8.375  17.801  0.00  0.00    +0.000 S 
ENDBRANCH   7   8
BRANCH   4  17
ATOM     17  N   UNL     1       5.937   3.530  15.707  0.00  0.00    +0.000 N 
ATOM     18  H   UNL     1       6.899   3.316  15.950  0.00  0.00    +0.000 HD
ATOM     19  H   UNL     1       5.850   3.928  14.777  0.00  0.00    +0.000 HD
ENDBRANCH   4  17
TORSDOF 2
ENDMDL
MODEL 5
REMARK VINA RESULT:      -6.6      2.180      6.415
REMARK  Name = 
REMARK  3 active torsions:
REMARK  status: ('A' for Active; 'I' for Inactive)
REMARK    1  A    between atoms: C_1  and  C_2
REMARK    2  A    between atoms: C_4  and  N_5
REMARK    3  A    between atoms: C_8  and  C_9
REMARK                            x       y       z     vdW  Elec       q    Type
REMARK                         _______ _______ _______ _____ _____    ______ ____
ROOT
ATOM      1  C   UNL     1       2.873   6.336  19.324  0.00  0.00    +0.000 C 
ATOM      2  C   UNL     1       3.224   4.971  19.860  0.00  0.00    +0.000 A 
ATOM      3  C   UNL     1       2.278   4.505  20.817  0.00  0.00    +0.000 A 
ATOM      4  C   UNL     1       2.272   3.203  21.309  0.00  0.00    +0.000 A 
ATOM      5  C   UNL     1       3.239   2.331  20.838  0.00  0.00    +0.000 A 
ATOM      6  C   UNL     1       4.206   2.767  19.927  0.00  0.00    +0.000 A 
ATOM      7  C   UNL     1       4.211   4.072  19.376  0.00  0.00    +0.000 A 
ENDROOT
BRANCH   7   8
ATOM      8  C   UNL     1       5.053   4.180  18.141  0.00  0.00    +0.000 A 
ATOM      9  N   UNL     1       4.615   3.673  16.996  0.00  0.00    +0.000 NA
ATOM     10  C   UNL     1       5.462   3.973  15.946  0.00  0.00    +0.000 A 
ATOM     11  C   UNL     1       5.249   3.644  14.588  0.00  0.00    +0.000 A 
ATOM     12  C   UNL     1       6.135   4.102  13.606  0.00  0.00    +0.000 A 
ATOM     13  C   UNL     1       7.236   4.873  13.966  0.00  0.00    +0.000 A 
ATOM     14  C   UNL     1       7.492   5.171  15.315  0.00  0.00    +0.000 A 
ATOM     15  C   UNL     1       6.597   4.698  16.301  0.00  0.00    +0.000 A 
ATOM     16  S   UNL     1       6.630   4.853  18.040  0.00  0.00    +0.000 S 
ENDBRANCH   7   8
BRANCH   4  17
ATOM     17  N   UNL     1       1.158   2.728  22.007  0.00  0.00    +0.000 N 
ATOM     18  H   UNL     1       0.395   3.394  22.081  0.00  0.00    +0.000 HD
ATOM     19  H   UNL     1       1.376   2.287  22.895  0.00  0.00    +0.000 HD
ENDBRANCH   4  17
TORSDOF 2
ENDMDL
MODEL 6
REMARK VINA RESULT:      -6.6      2.175      6.534
REMARK  Name = 
REMARK  3 active torsions:
REMARK  status: ('A' for Active; 'I' for Inactive)
REMARK    1  A    between atoms: C_1  and  C_2
REMARK    2  A    between atoms: C_4  and  N_5
REMARK    3  A    between atoms: C_8  and  C_9
REMARK                            x       y       z     vdW  Elec       q    Type
REMARK                         _______ _______ _______ _____ _____    ______ ____
ROOT
ATOM      1  C   UNL     1       3.360   6.948  17.864  0.00  0.00    +0.000 C 
ATOM      2  C   UNL     1       3.382   5.494  18.263  0.00  0.00    +0.000 A 
ATOM      3  C   UNL     1       2.286   5.146  19.103  0.00  0.00    +0.000 A 
ATOM      4  C   UNL     1       1.976   3.833  19.444  0.00  0.00    +0.000 A 
ATOM      5  C   UNL     1       2.783   2.827  18.938  0.00  0.00    +0.000 A 
ATOM      6  C   UNL     1       3.890   3.137  18.142  0.00  0.00    +0.000 A 
ATOM      7  C   UNL     1       4.204   4.460  17.743  0.00  0.00    +0.000 A 
ENDROOT
BRANCH   7   8
ATOM      8  C   UNL     1       5.151   4.508  16.582  0.00  0.00    +0.000 A 
ATOM      9  N   UNL     1       4.894   3.798  15.491  0.00  0.00    +0.000 NA
ATOM     10  C   UNL     1       5.804   4.061  14.483  0.00  0.00    +0.000 A 
ATOM     11  C   UNL     1       5.771   3.527  13.175  0.00  0.00    +0.000 A 
ATOM     12  C   UNL     1       6.693   3.958  12.216  0.00  0.00    +0.000 A 
ATOM     13  C   UNL     1       7.654   4.907  12.551  0.00  0.00    +0.000 A 
ATOM     14  C   UNL     1       7.734   5.416  13.858  0.00  0.00    +0.000 A 
ATOM     15  C   UNL     1       6.804   4.969  14.824  0.00  0.00    +0.000 A 
ATOM     16  S   UNL     1       6.639   5.361  16.517  0.00  0.00    +0.000 S 
ENDBRANCH   7   8
BRANCH   4  17
ATOM     17  N   UNL     1       0.735   3.536  20.015  0.00  0.00    +0.000 N 
ATOM     18  H   UNL     1       0.747   2.746  20.653  0.00  0.00    +0.000 HD
ATOM     19  H   UNL     1      -0.032   3.490  19.353  0.00  0.00    +0.000 HD
ENDBRANCH   4  17
TORSDOF 2
ENDMDL
MODEL 7
REMARK VINA RESULT:      -6.5      3.306      5.445
REMARK  Name = 
REMARK  3 active torsions:
REMARK  status: ('A' for Active; 'I' for Inactive)
REMARK    1  A    between atoms: C_1  and  C_2
REMARK    2  A    between atoms: C_4  and  N_5
REMARK    3  A    between atoms: C_8  and  C_9
REMARK                            x       y       z     vdW  Elec       q    Type
REMARK                         _______ _______ _______ _____ _____    ______ ____
ROOT
ATOM      1  C   UNL     1       4.769   5.300  16.790  0.00  0.00    +0.000 C 
ATOM      2  C   UNL     1       3.739   4.434  17.469  0.00  0.00    +0.000 A 
ATOM      3  C   UNL     1       4.078   3.052  17.423  0.00  0.00    +0.000 A 
ATOM      4  C   UNL     1       3.394   2.076  18.143  0.00  0.00    +0.000 A 
ATOM      5  C   UNL     1       2.333   2.484  18.935  0.00  0.00    +0.000 A 
ATOM      6  C   UNL     1       1.950   3.827  18.972  0.00  0.00    +0.000 A 
ATOM      7  C   UNL     1       2.653   4.848  18.286  0.00  0.00    +0.000 A 
ENDROOT
BRANCH   7   8
ATOM      8  C   UNL     1       2.333   6.220  18.795  0.00  0.00    +0.000 A 
ATOM      9  N   UNL     1       2.391   7.260  17.974  0.00  0.00    +0.000 NA
ATOM     10  C   UNL     1       1.945   8.419  18.582  0.00  0.00    +0.000 A 
ATOM     11  C   UNL     1       1.812   9.683  17.964  0.00  0.00    +0.000 A 
ATOM     12  C   UNL     1       1.246  10.753  18.666  0.00  0.00    +0.000 A 
ATOM     13  C   UNL     1       0.824  10.579  19.980  0.00  0.00    +0.000 A 
ATOM     14  C   UNL     1       0.991   9.344  20.628  0.00  0.00    +0.000 A 
ATOM     15  C   UNL     1       1.571   8.270  19.915  0.00  0.00    +0.000 A 
ATOM     16  S   UNL     1       1.948   6.640  20.415  0.00  0.00    +0.000 S 
ENDBRANCH   7   8
BRANCH   4  17
ATOM     17  N   UNL     1       3.949   0.802  18.290  0.00  0.00    +0.000 N 
ATOM     18  H   UNL     1       4.886   0.796  18.680  0.00  0.00    +0.000 HD
ATOM     19  H   UNL     1       3.865   0.210  17.469  0.00  0.00    +0.000 HD
ENDBRANCH   4  17
TORSDOF 2
ENDMDL
MODEL 8
REMARK VINA RESULT:      -6.4      3.606      6.037
REMARK  Name = 
REMARK  3 active torsions:
REMARK  status: ('A' for Active; 'I' for Inactive)
REMARK    1  A    between atoms: C_1  and  C_2
REMARK    2  A    between atoms: C_4  and  N_5
REMARK    3  A    between atoms: C_8  and  C_9
REMARK                            x       y       z     vdW  Elec       q    Type
REMARK                         _______ _______ _______ _____ _____    ______ ____
ROOT
ATOM      1  C   UNL     1       0.843   4.026  20.471  0.00  0.00    +0.000 C 
ATOM      2  C   UNL     1       2.322   4.197  20.237  0.00  0.00    +0.000 A 
ATOM      3  C   UNL     1       3.008   2.950  20.172  0.00  0.00    +0.000 A 
ATOM      4  C   UNL     1       4.336   2.831  19.773  0.00  0.00    +0.000 A 
ATOM      5  C   UNL     1       5.011   3.990  19.428  0.00  0.00    +0.000 A 
ATOM      6  C   UNL     1       4.380   5.234  19.516  0.00  0.00    +0.000 A 
ATOM      7  C   UNL     1       3.017   5.381  19.877  0.00  0.00    +0.000 A 
ENDROOT
BRANCH   7   8
ATOM      8  C   UNL     1       2.458   6.720  19.503  0.00  0.00    +0.000 A 
ATOM      9  N   UNL     1       1.759   7.416  20.392  0.00  0.00    +0.000 NA
ATOM     10  C   UNL     1       1.431   8.671  19.916  0.00  0.00    +0.000 A 
ATOM     11  C   UNL     1       0.756   9.682  20.637  0.00  0.00    +0.000 A 
ATOM     12  C   UNL     1       0.580  10.950  20.073  0.00  0.00    +0.000 A 
ATOM     13  C   UNL     1       1.059  11.217  18.795  0.00  0.00    +0.000 A 
ATOM     14  C   UNL     1       1.691  10.213  18.042  0.00  0.00    +0.000 A 
ATOM     15  C   UNL     1       1.858   8.932  18.616  0.00  0.00    +0.000 A 
ATOM     16  S   UNL     1       2.557   7.471  17.963  0.00  0.00    +0.000 S 
ENDBRANCH   7   8
BRANCH   4  17
ATOM     17  N   UNL     1       4.856   1.575  19.449  0.00  0.00    +0.000 N 
ATOM     18  H   UNL     1       5.045   1.443  18.460  0.00  0.00    +0.000 HD
ATOM     19  H   UNL     1       4.353   0.794  19.856  0.00  0.00    +0.000 HD
ENDBRANCH   4  17
TORSDOF 2
ENDMDL
MODEL 9
REMARK VINA RESULT:      -6.4      1.457      1.576
REMARK  Name = 
REMARK  3 active torsions:
REMARK  status: ('A' for Active; 'I' for Inactive)
REMARK    1  A    between atoms: C_1  and  C_2
REMARK    2  A    between atoms: C_4  and  N_5
REMARK    3  A    between atoms: C_8  and  C_9
REMARK                            x       y       z     vdW  Elec       q    Type
REMARK                         _______ _______ _______ _____ _____    ______ ____
ROOT
ATOM      1  C   UNL     1       7.242   5.715  18.342  0.00  0.00    +0.000 C 
ATOM      2  C   UNL     1       6.548   5.432  17.034  0.00  0.00    +0.000 A 
ATOM      3  C   UNL     1       7.400   5.645  15.912  0.00  0.00    +0.000 A 
ATOM      4  C   UNL     1       7.059   5.269  14.616  0.00  0.00    +0.000 A 
ATOM      5  C   UNL     1       5.828   4.662  14.423  0.00  0.00    +0.000 A 
ATOM      6  C   UNL     1       4.953   4.473  15.496  0.00  0.00    +0.000 A 
ATOM      7  C   UNL     1       5.290   4.806  16.832  0.00  0.00    +0.000 A 
ENDROOT
BRANCH   7   8
ATOM      8  C   UNL     1       4.399   4.145  17.839  0.00  0.00    +0.000 A 
ATOM      9  N   UNL     1       4.109   4.767  18.975  0.00  0.00    +0.000 NA
ATOM     10  C   UNL     1       3.181   4.066  19.721  0.00  0.00    +0.000 A 
ATOM     11  C   UNL     1       2.609   4.487  20.943  0.00  0.00    +0.000 A 
ATOM     12  C   UNL     1       1.598   3.729  21.544  0.00  0.00    +0.000 A 
ATOM     13  C   UNL     1       1.161   2.551  20.946  0.00  0.00    +0.000 A 
ATOM     14  C   UNL     1       1.750   2.090  19.757  0.00  0.00    +0.000 A 
ATOM     15  C   UNL     1       2.777   2.857  19.160  0.00  0.00    +0.000 A 
ATOM     16  S   UNL     1       3.730   2.568  17.726  0.00  0.00    +0.000 S 
ENDBRANCH   7   8
BRANCH   4  17
ATOM     17  N   UNL     1       8.039   5.232  13.621  0.00  0.00    +0.000 N 
ATOM     18  H   UNL     1       7.675   5.257  12.673  0.00  0.00    +0.000 HD
ATOM     19  H   UNL     1       8.740   4.509  13.749  0.00  0.00    +0.000 HD
ENDBRANCH   4  17
TORSDOF 2
ENDMDL
