MODEL 1
REMARK VINA RESULT:      -8.5      0.000      0.000
REMARK  Name = 
REMARK  5 active torsions:
REMARK  status: ('A' for Active; 'I' for Inactive)
REMARK    1  A    between atoms: C_1  and  C_2
REMARK    2  A    between atoms: C_4  and  C_5
REMARK    3  A    between atoms: C_12  and  N_13
REMARK    4  A    between atoms: N_13  and  C_14
REMARK    5  A    between atoms: C_19  and  N_20
REMARK                            x       y       z     vdW  Elec       q    Type
REMARK                         _______ _______ _______ _____ _____    ______ ____
ROOT
ATOM      1  C   UNL     1       6.767   4.585  14.769  0.00  0.00    +0.000 C 
ATOM      2  C   UNL     1       5.867   5.025  15.885  0.00  0.00    +0.000 A 
ATOM      3  C   UNL     1       5.751   4.173  17.039  0.00  0.00    +0.000 A 
ATOM      4  C   UNL     1       4.965   4.491  18.081  0.00  0.00    +0.000 A 
ATOM      5  C   UNL     1       4.903   3.538  19.248  0.00  0.00    +0.000 C 
ATOM      6  N   UNL     1       4.210   5.687  18.076  0.00  0.00    +0.000 N 
ATOM      7  C   UNL     1       3.385   6.018  19.171  0.00  0.00    +0.000 A 
ATOM      8  O   UNL     1       3.261   5.362  20.202  0.00  0.00    +0.000 OA
ATOM      9  C   UNL     1       2.606   7.273  19.061  0.00  0.00    +0.000 A 
ATOM     10  N   UNL     1       1.754   7.572  20.078  0.00  0.00    +0.000 NA
ATOM     11  C   UNL     1       1.069   8.728  19.960  0.00  0.00    +0.000 A 
ATOM     12  C   UNL     1       1.204   9.629  18.902  0.00  0.00    +0.000 A 
ATOM     13  C   UNL     1       2.049   9.235  17.857  0.00  0.00    +0.000 A 
ATOM     14  C   UNL     1       2.781   8.045  17.929  0.00  0.00    +0.000 A 
ATOM     15  N   UNL     1       3.631   7.678  16.878  0.00  0.00    +0.000 NA
ATOM     16  C   UNL     1       4.283   6.556  16.982  0.00  0.00    +0.000 A 
ATOM     17  C   UNL     1       5.170   6.168  15.847  0.00  0.00    +0.000 A 
ENDROOT
BRANCH  12  18
ATOM     18  N   UNL     1       0.420  10.790  18.888  0.00  0.00    +0.000 N 
ATOM     19  H   UNL     1       0.713  11.390  19.665  0.00  0.00    +0.000 HD
BRANCH  18  20
ATOM     20  C   UNL     1      -1.061  10.674  18.865  0.00  0.00    +0.000 C 
ATOM     21  C   UNL     1      -1.523   9.828  17.660  0.00  0.00    +0.000 C 
ATOM     22  C   UNL     1      -3.039   9.833  17.484  0.00  0.00    +0.000 C 
ATOM     23  C   UNL     1      -3.606  11.243  17.399  0.00  0.00    +0.000 C 
ATOM     24  C   UNL     1      -3.184  12.078  18.605  0.00  0.00    +0.000 C 
ATOM     25  C   UNL     1      -1.664  12.118  18.800  0.00  0.00    +0.000 C 
BRANCH  25  26
ATOM     26  N   UNL     1      -1.024  12.940  17.753  0.00  0.00    +0.000 NA
ATOM     27  H   UNL     1      -1.232  13.925  17.923  0.00  0.00    +0.000 HD
ATOM     28  H   UNL     1      -1.519  12.745  16.878  0.00  0.00    +0.000 HD
ENDBRANCH  25  26
ENDBRANCH  18  20
ENDBRANCH  12  18
TORSDOF 3
ENDMDL
MODEL 2
REMARK VINA RESULT:      -8.2      2.360      8.131
REMARK  Name = 
REMARK  5 active torsions:
REMARK  status: ('A' for Active; 'I' for Inactive)
REMARK    1  A    between atoms: C_1  and  C_2
REMARK    2  A    between atoms: C_4  and  C_5
REMARK    3  A    between atoms: C_12  and  N_13
REMARK    4  A    between atoms: N_13  and  C_14
REMARK    5  A    between atoms: C_19  and  N_20
REMARK                            x       y       z     vdW  Elec       q    Type
REMARK                         _______ _______ _______ _____ _____    ______ ____
ROOT
ATOM      1  C   UNL     1      -0.079  14.471  18.842  0.00  0.00    +0.000 C 
ATOM      2  C   UNL     1       0.154  13.075  19.336  0.00  0.00    +0.000 A 
ATOM      3  C   UNL     1      -0.322  12.733  20.650  0.00  0.00    +0.000 A 
ATOM      4  C   UNL     1      -0.152  11.505  21.170  0.00  0.00    +0.000 A 
ATOM      5  C   UNL     1      -0.681  11.234  22.555  0.00  0.00    +0.000 C 
ATOM      6  N   UNL     1       0.513  10.497  20.434  0.00  0.00    +0.000 N 
ATOM      7  C   UNL     1       0.691   9.209  20.981  0.00  0.00    +0.000 A 
ATOM      8  O   UNL     1       0.285   8.832  22.078  0.00  0.00    +0.000 OA
ATOM      9  C   UNL     1       1.429   8.229  20.152  0.00  0.00    +0.000 A 
ATOM     10  N   UNL     1       1.668   7.005  20.692  0.00  0.00    +0.000 NA
ATOM     11  C   UNL     1       2.329   6.127  19.910  0.00  0.00    +0.000 A 
ATOM     12  C   UNL     1       2.740   6.381  18.600  0.00  0.00    +0.000 A 
ATOM     13  C   UNL     1       2.520   7.679  18.122  0.00  0.00    +0.000 A 
ATOM     14  C   UNL     1       1.842   8.628  18.895  0.00  0.00    +0.000 A 
ATOM     15  N   UNL     1       1.621   9.916  18.392  0.00  0.00    +0.000 NA
ATOM     16  C   UNL     1       0.997  10.771  19.149  0.00  0.00    +0.000 A 
ATOM     17  C   UNL     1       0.784  12.144  18.608  0.00  0.00    +0.000 A 
ENDROOT
BRANCH  12  18
ATOM     18  N   UNL     1       3.435   5.388  17.896  0.00  0.00    +0.000 N 
ATOM     19  H   UNL     1       3.405   4.522  18.442  0.00  0.00    +0.000 HD
BRANCH  18  20
ATOM     20  C   UNL     1       4.822   5.653  17.433  0.00  0.00    +0.000 C 
ATOM     21  C   UNL     1       5.083   4.970  16.075  0.00  0.00    +0.000 C 
ATOM     22  C   UNL     1       6.546   5.055  15.645  0.00  0.00    +0.000 C 
ATOM     23  C   UNL     1       7.492   4.516  16.709  0.00  0.00    +0.000 C 
ATOM     24  C   UNL     1       7.265   5.211  18.048  0.00  0.00    +0.000 C 
ATOM     25  C   UNL     1       5.811   5.124  18.527  0.00  0.00    +0.000 C 
BRANCH  25  26
ATOM     26  N   UNL     1       5.482   3.750  18.955  0.00  0.00    +0.000 NA
ATOM     27  H   UNL     1       4.559   3.498  18.599  0.00  0.00    +0.000 HD
ATOM     28  H   UNL     1       5.341   3.781  19.969  0.00  0.00    +0.000 HD
ENDBRANCH  25  26
ENDBRANCH  18  20
ENDBRANCH  12  18
TORSDOF 3
ENDMDL
MODEL 3
REMARK VINA RESULT:      -8.0      2.994      8.689
REMARK  Name = 
REMARK  5 active torsions:
REMARK  status: ('A' for Active; 'I' for Inactive)
REMARK    1  A    between atoms: C_1  and  C_2
REMARK    2  A    between atoms: C_4  and  C_5
REMARK    3  A    between atoms: C_12  and  N_13
REMARK    4  A    between atoms: N_13  and  C_14
REMARK    5  A    between atoms: C_19  and  N_20
REMARK                            x       y       z     vdW  Elec       q    Type
REMARK                         _______ _______ _______ _____ _____    ______ ____
ROOT
ATOM      1  C   UNL     1      -2.899  12.769  24.083  0.00  0.00    +0.000 C 
ATOM      2  C   UNL     1      -2.051  12.246  22.963  0.00  0.00    +0.000 A 
ATOM      3  C   UNL     1      -1.914  13.055  21.781  0.00  0.00    +0.000 A 
ATOM      4  C   UNL     1      -1.175  12.659  20.730  0.00  0.00    +0.000 A 
ATOM      5  C   UNL     1      -1.089  13.570  19.532  0.00  0.00    +0.000 C 
ATOM      6  N   UNL     1      -0.502  11.416  20.750  0.00  0.00    +0.000 N 
ATOM      7  C   UNL     1       0.273  11.002  19.646  0.00  0.00    +0.000 A 
ATOM      8  O   UNL     1       0.464  11.650  18.620  0.00  0.00    +0.000 OA
ATOM      9  C   UNL     1       0.912   9.671  19.743  0.00  0.00    +0.000 A 
ATOM     10  N   UNL     1       1.606   9.228  18.661  0.00  0.00    +0.000 NA
ATOM     11  C   UNL     1       2.192   8.019  18.782  0.00  0.00    +0.000 A 
ATOM     12  C   UNL     1       2.158   7.230  19.934  0.00  0.00    +0.000 A 
ATOM     13  C   UNL     1       1.377   7.712  20.992  0.00  0.00    +0.000 A 
ATOM     14  C   UNL     1       0.747   8.959  20.916  0.00  0.00    +0.000 A 
ATOM     15  N   UNL     1      -0.018   9.426  21.992  0.00  0.00    +0.000 NA
ATOM     16  C   UNL     1      -0.596  10.586  21.873  0.00  0.00    +0.000 A 
ATOM     17  C   UNL     1      -1.423  11.064  23.019  0.00  0.00    +0.000 A 
ENDROOT
BRANCH  12  18
ATOM     18  N   UNL     1       2.794   5.982  19.927  0.00  0.00    +0.000 N 
ATOM     19  H   UNL     1       3.794   6.127  19.757  0.00  0.00    +0.000 HD
BRANCH  18  20
ATOM     20  C   UNL     1       2.279   4.902  19.045  0.00  0.00    +0.000 C 
ATOM     21  C   UNL     1       1.381   3.932  19.839  0.00  0.00    +0.000 C 
ATOM     22  C   UNL     1       0.978   2.704  19.026  0.00  0.00    +0.000 C 
ATOM     23  C   UNL     1       2.182   1.973  18.449  0.00  0.00    +0.000 C 
ATOM     24  C   UNL     1       3.058   2.918  17.631  0.00  0.00    +0.000 C 
ATOM     25  C   UNL     1       3.505   4.152  18.423  0.00  0.00    +0.000 C 
BRANCH  25  26
ATOM     26  N   UNL     1       4.506   3.784  19.445  0.00  0.00    +0.000 NA
ATOM     27  H   UNL     1       5.111   3.049  19.075  0.00  0.00    +0.000 HD
ATOM     28  H   UNL     1       4.001   3.311  20.200  0.00  0.00    +0.000 HD
ENDBRANCH  25  26
ENDBRANCH  18  20
ENDBRANCH  12  18
TORSDOF 3
ENDMDL
MODEL 4
REMARK VINA RESULT:      -7.5      1.979      2.565
REMARK  Name = 
REMARK  5 active torsions:
REMARK  status: ('A' for Active; 'I' for Inactive)
REMARK    1  A    between atoms: C_1  and  C_2
REMARK    2  A    between atoms: C_4  and  C_5
REMARK    3  A    between atoms: C_12  and  N_13
REMARK    4  A    between atoms: N_13  and  C_14
REMARK    5  A    between atoms: C_19  and  N_20
REMARK                            x       y       z     vdW  Elec       q    Type
REMARK                         _______ _______ _______ _____ _____    ______ ____
ROOT
ATOM      1  C   UNL     1       6.332   4.656  15.004  0.00  0.00    +0.000 C 
ATOM      2  C   UNL     1       5.461   5.014  16.170  0.00  0.00    +0.000 A 
ATOM      3  C   UNL     1       5.314   4.050  17.228  0.00  0.00    +0.000 A 
ATOM      4  C   UNL     1       4.549   4.289  18.307  0.00  0.00    +0.000 A 
ATOM      5  C   UNL     1       4.451   3.221  19.367  0.00  0.00    +0.000 C 
ATOM      6  N   UNL     1       3.852   5.512  18.439  0.00  0.00    +0.000 N 
ATOM      7  C   UNL     1       3.049   5.762  19.572  0.00  0.00    +0.000 A 
ATOM      8  O   UNL     1       2.901   5.005  20.528  0.00  0.00    +0.000 OA
ATOM      9  C   UNL     1       2.329   7.055  19.606  0.00  0.00    +0.000 A 
ATOM     10  N   UNL     1       1.499   7.282  20.658  0.00  0.00    +0.000 NA
ATOM     11  C   UNL     1       0.867   8.474  20.673  0.00  0.00    +0.000 A 
ATOM     12  C   UNL     1       1.037   9.476  19.715  0.00  0.00    +0.000 A 
ATOM     13  C   UNL     1       1.857   9.158  18.624  0.00  0.00    +0.000 A 
ATOM     14  C   UNL     1       2.533   7.935  18.561  0.00  0.00    +0.000 A 
ATOM     15  N   UNL     1       3.358   7.644  17.467  0.00  0.00    +0.000 NA
ATOM     16  C   UNL     1       3.957   6.489  17.443  0.00  0.00    +0.000 A 
ATOM     17  C   UNL     1       4.818   6.185  16.263  0.00  0.00    +0.000 A 
ENDROOT
BRANCH  12  18
ATOM     18  N   UNL     1       0.308  10.667  19.835  0.00  0.00    +0.000 N 
ATOM     19  H   UNL     1      -0.332  10.737  19.039  0.00  0.00    +0.000 HD
BRANCH  18  20
ATOM     20  C   UNL     1       1.030  11.952  20.024  0.00  0.00    +0.000 C 
ATOM     21  C   UNL     1       0.382  12.780  21.152  0.00  0.00    +0.000 C 
ATOM     22  C   UNL     1       0.968  14.185  21.262  0.00  0.00    +0.000 C 
ATOM     23  C   UNL     1       0.912  14.940  19.941  0.00  0.00    +0.000 C 
ATOM     24  C   UNL     1       1.583  14.143  18.826  0.00  0.00    +0.000 C 
ATOM     25  C   UNL     1       1.003  12.733  18.667  0.00  0.00    +0.000 C 
BRANCH  25  26
ATOM     26  N   UNL     1      -0.354  12.788  18.086  0.00  0.00    +0.000 NA
ATOM     27  H   UNL     1      -0.555  13.744  17.789  0.00  0.00    +0.000 HD
ATOM     28  H   UNL     1      -1.013  12.639  18.855  0.00  0.00    +0.000 HD
ENDBRANCH  25  26
ENDBRANCH  18  20
ENDBRANCH  12  18
TORSDOF 3
ENDMDL
MODEL 5
REMARK VINA RESULT:      -7.5      1.637      2.139
REMARK  Name = 
REMARK  5 active torsions:
REMARK  status: ('A' for Active; 'I' for Inactive)
REMARK    1  A    between atoms: C_1  and  C_2
REMARK    2  A    between atoms: C_4  and  C_5
REMARK    3  A    between atoms: C_12  and  N_13
REMARK    4  A    between atoms: N_13  and  C_14
REMARK    5  A    between atoms: C_19  and  N_20
REMARK                            x       y       z     vdW  Elec       q    Type
REMARK                         _______ _______ _______ _____ _____    ______ ____
ROOT
ATOM      1  C   UNL     1       6.230   4.469  15.177  0.00  0.00    +0.000 C 
ATOM      2  C   UNL     1       5.348   4.927  16.299  0.00  0.00    +0.000 A 
ATOM      3  C   UNL     1       5.118   4.022  17.394  0.00  0.00    +0.000 A 
ATOM      4  C   UNL     1       4.338   4.352  18.438  0.00  0.00    +0.000 A 
ATOM      5  C   UNL     1       4.151   3.341  19.540  0.00  0.00    +0.000 C 
ATOM      6  N   UNL     1       3.706   5.616  18.493  0.00  0.00    +0.000 N 
ATOM      7  C   UNL     1       2.887   5.961  19.589  0.00  0.00    +0.000 A 
ATOM      8  O   UNL     1       2.671   5.258  20.573  0.00  0.00    +0.000 OA
ATOM      9  C   UNL     1       2.239   7.291  19.543  0.00  0.00    +0.000 A 
ATOM     10  N   UNL     1       1.394   7.611  20.559  0.00  0.00    +0.000 NA
ATOM     11  C   UNL     1       0.829   8.835  20.501  0.00  0.00    +0.000 A 
ATOM     12  C   UNL     1       1.081   9.781  19.505  0.00  0.00    +0.000 A 
ATOM     13  C   UNL     1       1.912   9.369  18.455  0.00  0.00    +0.000 A 
ATOM     14  C   UNL     1       2.520   8.110  18.467  0.00  0.00    +0.000 A 
ATOM     15  N   UNL     1       3.358   7.725  17.413  0.00  0.00    +0.000 NA
ATOM     16  C   UNL     1       3.893   6.539  17.458  0.00  0.00    +0.000 A 
ATOM     17  C   UNL     1       4.768   6.134  16.320  0.00  0.00    +0.000 A 
ENDROOT
BRANCH  12  18
ATOM     18  N   UNL     1       0.416  11.014  19.549  0.00  0.00    +0.000 N 
ATOM     19  H   UNL     1       1.105  11.748  19.734  0.00  0.00    +0.000 HD
BRANCH  18  20
ATOM     20  C   UNL     1      -0.760  11.180  20.442  0.00  0.00    +0.000 C 
ATOM     21  C   UNL     1      -1.796  12.130  19.807  0.00  0.00    +0.000 C 
ATOM     22  C   UNL     1      -2.935  12.481  20.761  0.00  0.00    +0.000 C 
ATOM     23  C   UNL     1      -2.429  13.043  22.082  0.00  0.00    +0.000 C 
ATOM     24  C   UNL     1      -1.430  12.093  22.736  0.00  0.00    +0.000 C 
ATOM     25  C   UNL     1      -0.256  11.737  21.816  0.00  0.00    +0.000 C 
BRANCH  25  26
ATOM     26  N   UNL     1       0.647  12.894  21.648  0.00  0.00    +0.000 NA
ATOM     27  H   UNL     1       0.638  13.190  20.671  0.00  0.00    +0.000 HD
ATOM     28  H   UNL     1       1.601  12.547  21.778  0.00  0.00    +0.000 HD
ENDBRANCH  25  26
ENDBRANCH  18  20
ENDBRANCH  12  18
TORSDOF 3
ENDMDL
MODEL 6
REMARK VINA RESULT:      -7.5      2.411      8.674
REMARK  Name = 
REMARK  5 active torsions:
REMARK  status: ('A' for Active; 'I' for Inactive)
REMARK    1  A    between atoms: C_1  and  C_2
REMARK    2  A    between atoms: C_4  and  C_5
REMARK    3  A    between atoms: C_12  and  N_13
REMARK    4  A    between atoms: N_13  and  C_14
REMARK    5  A    between atoms: C_19  and  N_20
REMARK                            x       y       z     vdW  Elec       q    Type
REMARK                         _______ _______ _______ _____ _____    ______ ____
ROOT
ATOM      1  C   UNL     1      -2.315  11.863  23.651  0.00  0.00    +0.000 C 
ATOM      2  C   UNL     1      -1.492  11.515  22.448  0.00  0.00    +0.000 A 
ATOM      3  C   UNL     1      -1.475  12.440  21.346  0.00  0.00    +0.000 A 
ATOM      4  C   UNL     1      -0.766  12.203  20.229  0.00  0.00    +0.000 A 
ATOM      5  C   UNL     1      -0.808  13.227  19.124  0.00  0.00    +0.000 C 
ATOM      6  N   UNL     1      -0.005  11.019  20.097  0.00  0.00    +0.000 N 
ATOM      7  C   UNL     1       0.738  10.771  18.924  0.00  0.00    +0.000 A 
ATOM      8  O   UNL     1       0.829  11.526  17.958  0.00  0.00    +0.000 OA
ATOM      9  C   UNL     1       1.476   9.489  18.861  0.00  0.00    +0.000 A 
ATOM     10  N   UNL     1       2.142   9.205  17.710  0.00  0.00    +0.000 NA
ATOM     11  C   UNL     1       2.818   8.038  17.685  0.00  0.00    +0.000 A 
ATOM     12  C   UNL     1       2.902   7.144  18.754  0.00  0.00    +0.000 A 
ATOM     13  C   UNL     1       2.144   7.462  19.889  0.00  0.00    +0.000 A 
ATOM     14  C   UNL     1       1.424   8.659  19.964  0.00  0.00    +0.000 A 
ATOM     15  N   UNL     1       0.684   8.963  21.114  0.00  0.00    +0.000 NA
ATOM     16  C   UNL     1       0.019  10.082  21.136  0.00  0.00    +0.000 A 
ATOM     17  C   UNL     1      -0.779  10.384  22.359  0.00  0.00    +0.000 A 
ENDROOT
BRANCH  12  18
ATOM     18  N   UNL     1       3.624   5.954  18.596  0.00  0.00    +0.000 N 
ATOM     19  H   UNL     1       3.697   5.494  19.508  0.00  0.00    +0.000 HD
BRANCH  18  20
ATOM     20  C   UNL     1       4.953   5.987  17.933  0.00  0.00    +0.000 C 
ATOM     21  C   UNL     1       4.836   5.564  16.455  0.00  0.00    +0.000 C 
ATOM     22  C   UNL     1       6.196   5.402  15.779  0.00  0.00    +0.000 C 
ATOM     23  C   UNL     1       7.108   4.450  16.539  0.00  0.00    +0.000 C 
ATOM     24  C   UNL     1       7.259   4.880  17.996  0.00  0.00    +0.000 C 
ATOM     25  C   UNL     1       5.914   5.029  18.716  0.00  0.00    +0.000 C 
BRANCH  25  26
ATOM     26  N   UNL     1       5.302   3.707  18.960  0.00  0.00    +0.000 NA
ATOM     27  H   UNL     1       4.682   3.767  19.769  0.00  0.00    +0.000 HD
ATOM     28  H   UNL     1       6.050   3.088  19.283  0.00  0.00    +0.000 HD
ENDBRANCH  25  26
ENDBRANCH  18  20
ENDBRANCH  12  18
TORSDOF 3
ENDMDL
MODEL 7
REMARK VINA RESULT:      -7.4      1.222      2.720
REMARK  Name = 
REMARK  5 active torsions:
REMARK  status: ('A' for Active; 'I' for Inactive)
REMARK    1  A    between atoms: C_1  and  C_2
REMARK    2  A    between atoms: C_4  and  C_5
REMARK    3  A    between atoms: C_12  and  N_13
REMARK    4  A    between atoms: N_13  and  C_14
REMARK    5  A    between atoms: C_19  and  N_20
REMARK                            x       y       z     vdW  Elec       q    Type
REMARK                         _______ _______ _______ _____ _____    ______ ____
ROOT
ATOM      1  C   UNL     1       4.081   1.981  20.833  0.00  0.00    +0.000 C 
ATOM      2  C   UNL     1       3.938   3.255  20.057  0.00  0.00    +0.000 A 
ATOM      3  C   UNL     1       4.759   3.435  18.890  0.00  0.00    +0.000 A 
ATOM      4  C   UNL     1       4.695   4.548  18.140  0.00  0.00    +0.000 A 
ATOM      5  C   UNL     1       5.595   4.652  16.934  0.00  0.00    +0.000 C 
ATOM      6  N   UNL     1       3.809   5.596  18.480  0.00  0.00    +0.000 N 
ATOM      7  C   UNL     1       3.743   6.764  17.692  0.00  0.00    +0.000 A 
ATOM      8  O   UNL     1       4.386   6.976  16.666  0.00  0.00    +0.000 OA
ATOM      9  C   UNL     1       2.812   7.822  18.145  0.00  0.00    +0.000 A 
ATOM     10  N   UNL     1       2.786   8.981  17.435  0.00  0.00    +0.000 NA
ATOM     11  C   UNL     1       1.918   9.921  17.860  0.00  0.00    +0.000 A 
ATOM     12  C   UNL     1       1.041   9.767  18.936  0.00  0.00    +0.000 A 
ATOM     13  C   UNL     1       1.158   8.576  19.665  0.00  0.00    +0.000 A 
ATOM     14  C   UNL     1       2.045   7.570  19.267  0.00  0.00    +0.000 A 
ATOM     15  N   UNL     1       2.136   6.382  20.003  0.00  0.00    +0.000 NA
ATOM     16  C   UNL     1       2.983   5.478  19.604  0.00  0.00    +0.000 A 
ATOM     17  C   UNL     1       3.083   4.225  20.407  0.00  0.00    +0.000 A 
ENDROOT
BRANCH  12  18
ATOM     18  N   UNL     1       0.197  10.828  19.289  0.00  0.00    +0.000 N 
ATOM     19  H   UNL     1       0.415  11.111  20.249  0.00  0.00    +0.000 HD
BRANCH  18  20
ATOM     20  C   UNL     1      -1.272  10.683  19.121  0.00  0.00    +0.000 C 
ATOM     21  C   UNL     1      -1.601   9.969  17.794  0.00  0.00    +0.000 C 
ATOM     22  C   UNL     1      -3.097   9.961  17.485  0.00  0.00    +0.000 C 
ATOM     23  C   UNL     1      -3.699  11.359  17.508  0.00  0.00    +0.000 C 
ATOM     24  C   UNL     1      -3.408  12.060  18.832  0.00  0.00    +0.000 C 
ATOM     25  C   UNL     1      -1.913  12.111  19.164  0.00  0.00    +0.000 C 
BRANCH  25  26
ATOM     26  N   UNL     1      -1.212  13.061  18.277  0.00  0.00    +0.000 NA
ATOM     27  H   UNL     1      -1.061  13.939  18.774  0.00  0.00    +0.000 HD
ATOM     28  H   UNL     1      -1.872  13.320  17.538  0.00  0.00    +0.000 HD
ENDBRANCH  25  26
ENDBRANCH  18  20
ENDBRANCH  12  18
TORSDOF 3
ENDMDL
MODEL 8
REMARK VINA RESULT:      -7.4      2.562      4.058
REMARK  Name = 
REMARK  5 active torsions:
REMARK  status: ('A' for Active; 'I' for Inactive)
REMARK    1  A    between atoms: C_1  and  C_2
REMARK    2  A    between atoms: C_4  and  C_5
REMARK    3  A    between atoms: C_12  and  N_13
REMARK    4  A    between atoms: N_13  and  C_14
REMARK    5  A    between atoms: C_19  and  N_20
REMARK                            x       y       z     vdW  Elec       q    Type
REMARK                         _______ _______ _______ _____ _____    ______ ____
ROOT
ATOM      1  C   UNL     1       2.659   2.634  21.328  0.00  0.00    +0.000 C 
ATOM      2  C   UNL     1       2.603   3.948  20.610  0.00  0.00    +0.000 A 
ATOM      3  C   UNL     1       3.292   4.064  19.352  0.00  0.00    +0.000 A 
ATOM      4  C   UNL     1       3.294   5.207  18.644  0.00  0.00    +0.000 A 
ATOM      5  C   UNL     1       4.044   5.239  17.337  0.00  0.00    +0.000 C 
ATOM      6  N   UNL     1       2.614   6.351  19.122  0.00  0.00    +0.000 N 
ATOM      7  C   UNL     1       2.618   7.550  18.379  0.00  0.00    +0.000 A 
ATOM      8  O   UNL     1       3.152   7.716  17.286  0.00  0.00    +0.000 OA
ATOM      9  C   UNL     1       1.909   8.705  18.975  0.00  0.00    +0.000 A 
ATOM     10  N   UNL     1       1.960   9.886  18.304  0.00  0.00    +0.000 NA
ATOM     11  C   UNL     1       1.293  10.918  18.861  0.00  0.00    +0.000 A 
ATOM     12  C   UNL     1       0.542  10.839  20.036  0.00  0.00    +0.000 A 
ATOM     13  C   UNL     1       0.579   9.612  20.713  0.00  0.00    +0.000 A 
ATOM     14  C   UNL     1       1.258   8.513  20.179  0.00  0.00    +0.000 A 
ATOM     15  N   UNL     1       1.269   7.292  20.866  0.00  0.00    +0.000 NA
ATOM     16  C   UNL     1       1.925   6.299  20.339  0.00  0.00    +0.000 A 
ATOM     17  C   UNL     1       1.944   5.011  21.091  0.00  0.00    +0.000 A 
ENDROOT
BRANCH  12  18
ATOM     18  N   UNL     1      -0.092  11.990  20.521  0.00  0.00    +0.000 N 
ATOM     19  H   UNL     1       0.535  12.451  21.185  0.00  0.00    +0.000 HD
BRANCH  18  20
ATOM     20  C   UNL     1      -1.458  11.885  21.097  0.00  0.00    +0.000 C 
ATOM     21  C   UNL     1      -2.368  13.003  20.548  0.00  0.00    +0.000 C 
ATOM     22  C   UNL     1      -3.725  13.054  21.246  0.00  0.00    +0.000 C 
ATOM     23  C   UNL     1      -3.592  13.163  22.759  0.00  0.00    +0.000 C 
ATOM     24  C   UNL     1      -2.722  12.040  23.316  0.00  0.00    +0.000 C 
ATOM     25  C   UNL     1      -1.339  11.973  22.656  0.00  0.00    +0.000 C 
BRANCH  25  26
ATOM     26  N   UNL     1      -0.499  13.110  23.085  0.00  0.00    +0.000 NA
ATOM     27  H   UNL     1       0.485  12.847  23.013  0.00  0.00    +0.000 HD
ATOM     28  H   UNL     1      -0.639  13.218  24.093  0.00  0.00    +0.000 HD
ENDBRANCH  25  26
ENDBRANCH  18  20
ENDBRANCH  12  18
TORSDOF 3
ENDMDL
MODEL 9
REMARK VINA RESULT:      -7.4      2.836      8.066
REMARK  Name = 
REMARK  5 active torsions:
REMARK  status: ('A' for Active; 'I' for Inactive)
REMARK    1  A    between atoms: C_1  and  C_2
REMARK    2  A    between atoms: C_4  and  C_5
REMARK    3  A    between atoms: C_12  and  N_13
REMARK    4  A    between atoms: N_13  and  C_14
REMARK    5  A    between atoms: C_19  and  N_20
REMARK                            x       y       z     vdW  Elec       q    Type
REMARK                         _______ _______ _______ _____ _____    ______ ____
ROOT
ATOM      1  C   UNL     1      -0.333  15.159  18.855  0.00  0.00    +0.000 C 
ATOM      2  C   UNL     1      -0.127  13.793  19.437  0.00  0.00    +0.000 A 
ATOM      3  C   UNL     1      -0.591  13.551  20.778  0.00  0.00    +0.000 A 
ATOM      4  C   UNL     1      -0.443  12.356  21.376  0.00  0.00    +0.000 A 
ATOM      5  C   UNL     1      -0.957  12.191  22.783  0.00  0.00    +0.000 C 
ATOM      6  N   UNL     1       0.185  11.284  20.699  0.00  0.00    +0.000 N 
ATOM      7  C   UNL     1       0.339  10.031  21.328  0.00  0.00    +0.000 A 
ATOM      8  O   UNL     1      -0.059   9.738  22.453  0.00  0.00    +0.000 OA
ATOM      9  C   UNL     1       1.040   8.980  20.556  0.00  0.00    +0.000 A 
ATOM     10  N   UNL     1       1.256   7.788  21.172  0.00  0.00    +0.000 NA
ATOM     11  C   UNL     1       1.883   6.844  20.441  0.00  0.00    +0.000 A 
ATOM     12  C   UNL     1       2.280   7.000  19.111  0.00  0.00    +0.000 A 
ATOM     13  C   UNL     1       2.084   8.270  18.552  0.00  0.00    +0.000 A 
ATOM     14  C   UNL     1       1.442   9.284  19.269  0.00  0.00    +0.000 A 
ATOM     15  N   UNL     1       1.245  10.542  18.685  0.00  0.00    +0.000 NA
ATOM     16  C   UNL     1       0.655  11.460  19.393  0.00  0.00    +0.000 A 
ATOM     17  C   UNL     1       0.468  12.800  18.765  0.00  0.00    +0.000 A 
ENDROOT
BRANCH  12  18
ATOM     18  N   UNL     1       2.938   5.945  18.465  0.00  0.00    +0.000 N 
ATOM     19  H   UNL     1       2.619   5.910  17.493  0.00  0.00    +0.000 HD
BRANCH  18  20
ATOM     20  C   UNL     1       2.906   4.586  19.064  0.00  0.00    +0.000 C 
ATOM     21  C   UNL     1       4.111   3.751  18.585  0.00  0.00    +0.000 C 
ATOM     22  C   UNL     1       4.026   2.290  19.021  0.00  0.00    +0.000 C 
ATOM     23  C   UNL     1       2.717   1.637  18.599  0.00  0.00    +0.000 C 
ATOM     24  C   UNL     1       1.518   2.437  19.099  0.00  0.00    +0.000 C 
ATOM     25  C   UNL     1       1.555   3.905  18.658  0.00  0.00    +0.000 C 
BRANCH  25  26
ATOM     26  N   UNL     1       1.286   4.024  17.211  0.00  0.00    +0.000 NA
ATOM     27  H   UNL     1       1.165   5.009  16.970  0.00  0.00    +0.000 HD
ATOM     28  H   UNL     1       0.357   3.628  17.048  0.00  0.00    +0.000 HD
ENDBRANCH  25  26
ENDBRANCH  18  20
ENDBRANCH  12  18
TORSDOF 3
ENDMDL
