MODEL 1
REMARK VINA RESULT:      -6.8      0.000      0.000
REMARK  Name = 
REMARK  5 active torsions:
REMARK  status: ('A' for Active; 'I' for Inactive)
REMARK    1  A    between atoms: C_1  and  C_2
REMARK    2  A    between atoms: C_2  and  N_3
REMARK    3  A    between atoms: C_8  and  N_9
REMARK    4  A    between atoms: N_9  and  C_10
REMARK    5  A    between atoms: C_10  and  C_11
REMARK                            x       y       z     vdW  Elec       q    Type
REMARK                         _______ _______ _______ _____ _____    ______ ____
ROOT
ATOM      1  N   UNL     1       7.470   7.105  18.087  0.00  0.00    +0.000 N 
ATOM      2  C   UNL     1       8.158   6.337  18.986  0.00  0.00    +0.000 A 
ATOM      3  N   UNL     1       7.554   5.192  19.211  0.00  0.00    +0.000 NA
ATOM      4  C   UNL     1       6.427   5.220  18.423  0.00  0.00    +0.000 A 
ATOM      5  C   UNL     1       5.445   4.235  18.229  0.00  0.00    +0.000 A 
ATOM      6  C   UNL     1       4.355   4.480  17.372  0.00  0.00    +0.000 A 
ATOM      7  C   UNL     1       4.299   5.712  16.702  0.00  0.00    +0.000 A 
ATOM      8  C   UNL     1       5.268   6.714  16.878  0.00  0.00    +0.000 A 
ATOM      9  C   UNL     1       6.331   6.425  17.735  0.00  0.00    +0.000 A 
ENDROOT
BRANCH   1  11
ATOM     10  C   UNL     1       8.612   9.248  18.545  0.00  0.00    +0.000 C 
ATOM     11  C   UNL     1       7.938   8.353  17.521  0.00  0.00    +0.000 C 
ENDBRANCH   1  11
BRANCH   6  12
ATOM     12  N   UNL     1       3.458   3.427  17.114  0.00  0.00    +0.000 N 
ATOM     13  H   UNL     1       3.866   2.529  17.363  0.00  0.00    +0.000 HD
BRANCH  12  14
ATOM     14  C   UNL     1       2.090   3.551  17.613  0.00  0.00    +0.000 C 
BRANCH  14  15
ATOM     15  C   UNL     1       2.047   3.552  19.125  0.00  0.00    +0.000 A 
ATOM     16  C   UNL     1       2.119   2.333  19.813  0.00  0.00    +0.000 A 
ATOM     17  C   UNL     1       2.125   2.346  21.200  0.00  0.00    +0.000 A 
ATOM     18  N   UNL     1       2.075   3.472  21.940  0.00  0.00    +0.000 NA
ATOM     19  C   UNL     1       2.031   4.639  21.261  0.00  0.00    +0.000 A 
ATOM     20  C   UNL     1       2.027   4.730  19.878  0.00  0.00    +0.000 A 
ENDBRANCH  14  15
ENDBRANCH  12  14
ENDBRANCH   6  12
TORSDOF 4
ENDMDL
MODEL 2
REMARK VINA RESULT:      -6.8      2.120      2.942
REMARK  Name = 
REMARK  5 active torsions:
REMARK  status: ('A' for Active; 'I' for Inactive)
REMARK    1  A    between atoms: C_1  and  C_2
REMARK    2  A    between atoms: C_2  and  N_3
REMARK    3  A    between atoms: C_8  and  N_9
REMARK    4  A    between atoms: N_9  and  C_10
REMARK    5  A    between atoms: C_10  and  C_11
REMARK                            x       y       z     vdW  Elec       q    Type
REMARK                         _______ _______ _______ _____ _____    ______ ____
ROOT
ATOM      1  N   UNL     1       6.690   5.098  16.301  0.00  0.00    +0.000 N 
ATOM      2  C   UNL     1       7.518   4.412  17.146  0.00  0.00    +0.000 A 
ATOM      3  N   UNL     1       7.096   4.464  18.389  0.00  0.00    +0.000 NA
ATOM      4  C   UNL     1       5.944   5.216  18.346  0.00  0.00    +0.000 A 
ATOM      5  C   UNL     1       5.050   5.546  19.378  0.00  0.00    +0.000 A 
ATOM      6  C   UNL     1       3.924   6.347  19.110  0.00  0.00    +0.000 A 
ATOM      7  C   UNL     1       3.708   6.772  17.790  0.00  0.00    +0.000 A 
ATOM      8  C   UNL     1       4.585   6.455  16.739  0.00  0.00    +0.000 A 
ATOM      9  C   UNL     1       5.688   5.658  17.052  0.00  0.00    +0.000 A 
ENDROOT
BRANCH   1  11
ATOM     10  C   UNL     1       6.063   3.960  14.198  0.00  0.00    +0.000 C 
ATOM     11  C   UNL     1       6.796   5.115  14.857  0.00  0.00    +0.000 C 
ENDBRANCH   1  11
BRANCH   6  12
ATOM     12  N   UNL     1       2.992   6.557  20.143  0.00  0.00    +0.000 N 
ATOM     13  H   UNL     1       2.991   7.530  20.443  0.00  0.00    +0.000 HD
BRANCH  12  14
ATOM     14  C   UNL     1       1.634   6.053  19.957  0.00  0.00    +0.000 C 
BRANCH  14  15
ATOM     15  C   UNL     1       1.615   4.550  19.791  0.00  0.00    +0.000 A 
ATOM     16  C   UNL     1       1.722   3.733  20.925  0.00  0.00    +0.000 A 
ATOM     17  C   UNL     1       1.658   2.357  20.768  0.00  0.00    +0.000 A 
ATOM     18  N   UNL     1       1.489   1.744  19.579  0.00  0.00    +0.000 NA
ATOM     19  C   UNL     1       1.365   2.547  18.499  0.00  0.00    +0.000 A 
ATOM     20  C   UNL     1       1.409   3.931  18.554  0.00  0.00    +0.000 A 
ENDBRANCH  14  15
ENDBRANCH  12  14
ENDBRANCH   6  12
TORSDOF 4
ENDMDL
MODEL 3
REMARK VINA RESULT:      -6.7      0.476      1.102
REMARK  Name = 
REMARK  5 active torsions:
REMARK  status: ('A' for Active; 'I' for Inactive)
REMARK    1  A    between atoms: C_1  and  C_2
REMARK    2  A    between atoms: C_2  and  N_3
REMARK    3  A    between atoms: C_8  and  N_9
REMARK    4  A    between atoms: N_9  and  C_10
REMARK    5  A    between atoms: C_10  and  C_11
REMARK                            x       y       z     vdW  Elec       q    Type
REMARK                         _______ _______ _______ _____ _____    ______ ____
ROOT
ATOM      1  N   UNL     1       7.498   7.267  18.039  0.00  0.00    +0.000 N 
ATOM      2  C   UNL     1       8.226   6.596  18.982  0.00  0.00    +0.000 A 
ATOM      3  N   UNL     1       7.744   5.394  19.205  0.00  0.00    +0.000 NA
ATOM      4  C   UNL     1       6.657   5.282  18.370  0.00  0.00    +0.000 A 
ATOM      5  C   UNL     1       5.799   4.191  18.154  0.00  0.00    +0.000 A 
ATOM      6  C   UNL     1       4.728   4.299  17.247  0.00  0.00    +0.000 A 
ATOM      7  C   UNL     1       4.566   5.506  16.551  0.00  0.00    +0.000 A 
ATOM      8  C   UNL     1       5.408   6.613  16.746  0.00  0.00    +0.000 A 
ATOM      9  C   UNL     1       6.457   6.458  17.654  0.00  0.00    +0.000 A 
ENDROOT
BRANCH   1  11
ATOM     10  C   UNL     1       8.617   9.435  18.433  0.00  0.00    +0.000 C 
ATOM     11  C   UNL     1       7.849   8.550  17.468  0.00  0.00    +0.000 C 
ENDBRANCH   1  11
BRANCH   6  12
ATOM     12  N   UNL     1       3.965   3.148  16.973  0.00  0.00    +0.000 N 
ATOM     13  H   UNL     1       4.435   2.310  17.308  0.00  0.00    +0.000 HD
BRANCH  12  14
ATOM     14  C   UNL     1       2.553   3.155  17.344  0.00  0.00    +0.000 C 
BRANCH  14  15
ATOM     15  C   UNL     1       2.369   3.353  18.832  0.00  0.00    +0.000 A 
ATOM     16  C   UNL     1       1.624   4.448  19.291  0.00  0.00    +0.000 A 
ATOM     17  C   UNL     1       1.422   4.596  20.655  0.00  0.00    +0.000 A 
ATOM     18  N   UNL     1       1.894   3.738  21.581  0.00  0.00    +0.000 NA
ATOM     19  C   UNL     1       2.589   2.675  21.120  0.00  0.00    +0.000 A 
ATOM     20  C   UNL     1       2.839   2.437  19.778  0.00  0.00    +0.000 A 
ENDBRANCH  14  15
ENDBRANCH  12  14
ENDBRANCH   6  12
TORSDOF 4
ENDMDL
MODEL 4
REMARK VINA RESULT:      -6.7      2.974      6.925
REMARK  Name = 
REMARK  5 active torsions:
REMARK  status: ('A' for Active; 'I' for Inactive)
REMARK    1  A    between atoms: C_1  and  C_2
REMARK    2  A    between atoms: C_2  and  N_3
REMARK    3  A    between atoms: C_8  and  N_9
REMARK    4  A    between atoms: N_9  and  C_10
REMARK    5  A    between atoms: C_10  and  C_11
REMARK                            x       y       z     vdW  Elec       q    Type
REMARK                         _______ _______ _______ _____ _____    ______ ____
ROOT
ATOM      1  N   UNL     1       1.762   3.606  19.541  0.00  0.00    +0.000 N 
ATOM      2  C   UNL     1       1.110   3.005  18.500  0.00  0.00    +0.000 A 
ATOM      3  N   UNL     1       1.872   2.918  17.434  0.00  0.00    +0.000 NA
ATOM      4  C   UNL     1       3.070   3.486  17.801  0.00  0.00    +0.000 A 
ATOM      5  C   UNL     1       4.263   3.614  17.071  0.00  0.00    +0.000 A 
ATOM      6  C   UNL     1       5.382   4.247  17.646  0.00  0.00    +0.000 A 
ATOM      7  C   UNL     1       5.277   4.712  18.966  0.00  0.00    +0.000 A 
ATOM      8  C   UNL     1       4.097   4.596  19.719  0.00  0.00    +0.000 A 
ATOM      9  C   UNL     1       3.015   3.960  19.108  0.00  0.00    +0.000 A 
ENDROOT
BRANCH   1  11
ATOM     10  C   UNL     1       1.910   2.758  21.858  0.00  0.00    +0.000 C 
ATOM     11  C   UNL     1       1.251   3.725  20.891  0.00  0.00    +0.000 C 
ENDBRANCH   1  11
BRANCH   6  12
ATOM     12  N   UNL     1       6.591   4.250  16.927  0.00  0.00    +0.000 N 
ATOM     13  H   UNL     1       6.772   3.339  16.511  0.00  0.00    +0.000 HD
BRANCH  12  14
ATOM     14  C   UNL     1       6.820   5.330  15.970  0.00  0.00    +0.000 C 
BRANCH  14  15
ATOM     15  C   UNL     1       6.871   4.814  14.549  0.00  0.00    +0.000 A 
ATOM     16  C   UNL     1       5.973   3.816  14.150  0.00  0.00    +0.000 A 
ATOM     17  C   UNL     1       5.997   3.380  12.834  0.00  0.00    +0.000 A 
ATOM     18  N   UNL     1       6.834   3.868  11.897  0.00  0.00    +0.000 NA
ATOM     19  C   UNL     1       7.677   4.847  12.293  0.00  0.00    +0.000 A 
ATOM     20  C   UNL     1       7.726   5.352  13.583  0.00  0.00    +0.000 A 
ENDBRANCH  14  15
ENDBRANCH  12  14
ENDBRANCH   6  12
TORSDOF 4
ENDMDL
MODEL 5
REMARK VINA RESULT:      -6.6      2.169      3.041
REMARK  Name = 
REMARK  5 active torsions:
REMARK  status: ('A' for Active; 'I' for Inactive)
REMARK    1  A    between atoms: C_1  and  C_2
REMARK    2  A    between atoms: C_2  and  N_3
REMARK    3  A    between atoms: C_8  and  N_9
REMARK    4  A    between atoms: N_9  and  C_10
REMARK    5  A    between atoms: C_10  and  C_11
REMARK                            x       y       z     vdW  Elec       q    Type
REMARK                         _______ _______ _______ _____ _____    ______ ____
ROOT
ATOM      1  N   UNL     1       6.835   4.984  16.500  0.00  0.00    +0.000 N 
ATOM      2  C   UNL     1       7.728   4.534  17.432  0.00  0.00    +0.000 A 
ATOM      3  N   UNL     1       7.252   4.638  18.652  0.00  0.00    +0.000 NA
ATOM      4  C   UNL     1       5.995   5.178  18.503  0.00  0.00    +0.000 A 
ATOM      5  C   UNL     1       5.017   5.454  19.472  0.00  0.00    +0.000 A 
ATOM      6  C   UNL     1       3.786   6.024  19.094  0.00  0.00    +0.000 A 
ATOM      7  C   UNL     1       3.559   6.274  17.732  0.00  0.00    +0.000 A 
ATOM      8  C   UNL     1       4.519   6.006  16.742  0.00  0.00    +0.000 A 
ATOM      9  C   UNL     1       5.723   5.440  17.164  0.00  0.00    +0.000 A 
ENDROOT
BRANCH   1  11
ATOM     10  C   UNL     1       6.071   3.844  14.444  0.00  0.00    +0.000 C 
ATOM     11  C   UNL     1       6.997   4.875  15.065  0.00  0.00    +0.000 C 
ENDBRANCH   1  11
BRANCH   6  12
ATOM     12  N   UNL     1       2.791   6.177  20.077  0.00  0.00    +0.000 N 
ATOM     13  H   UNL     1       1.936   6.556  19.675  0.00  0.00    +0.000 HD
BRANCH  12  14
ATOM     14  C   UNL     1       2.513   5.044  20.956  0.00  0.00    +0.000 C 
BRANCH  14  15
ATOM     15  C   UNL     1       2.160   3.801  20.169  0.00  0.00    +0.000 A 
ATOM     16  C   UNL     1       0.882   3.687  19.606  0.00  0.00    +0.000 A 
ATOM     17  C   UNL     1       0.581   2.566  18.848  0.00  0.00    +0.000 A 
ATOM     18  N   UNL     1       1.454   1.568  18.606  0.00  0.00    +0.000 NA
ATOM     19  C   UNL     1       2.689   1.705  19.136  0.00  0.00    +0.000 A 
ATOM     20  C   UNL     1       3.087   2.790  19.902  0.00  0.00    +0.000 A 
ENDBRANCH  14  15
ENDBRANCH  12  14
ENDBRANCH   6  12
TORSDOF 4
ENDMDL
MODEL 6
REMARK VINA RESULT:      -6.6      1.695      5.952
REMARK  Name = 
REMARK  5 active torsions:
REMARK  status: ('A' for Active; 'I' for Inactive)
REMARK    1  A    between atoms: C_1  and  C_2
REMARK    2  A    between atoms: C_2  and  N_3
REMARK    3  A    between atoms: C_8  and  N_9
REMARK    4  A    between atoms: N_9  and  C_10
REMARK    5  A    between atoms: C_10  and  C_11
REMARK                            x       y       z     vdW  Elec       q    Type
REMARK                         _______ _______ _______ _____ _____    ______ ____
ROOT
ATOM      1  N   UNL     1       1.817   4.355  20.051  0.00  0.00    +0.000 N 
ATOM      2  C   UNL     1       1.802   5.694  20.328  0.00  0.00    +0.000 A 
ATOM      3  N   UNL     1       2.561   6.371  19.496  0.00  0.00    +0.000 NA
ATOM      4  C   UNL     1       3.090   5.430  18.643  0.00  0.00    +0.000 A 
ATOM      5  C   UNL     1       3.926   5.599  17.528  0.00  0.00    +0.000 A 
ATOM      6  C   UNL     1       4.362   4.480  16.792  0.00  0.00    +0.000 A 
ATOM      7  C   UNL     1       3.912   3.210  17.185  0.00  0.00    +0.000 A 
ATOM      8  C   UNL     1       3.075   3.012  18.296  0.00  0.00    +0.000 A 
ATOM      9  C   UNL     1       2.668   4.151  18.993  0.00  0.00    +0.000 A 
ENDROOT
BRANCH   1  11
ATOM     10  C   UNL     1       1.692   2.620  21.807  0.00  0.00    +0.000 C 
ATOM     11  C   UNL     1       0.981   3.360  20.688  0.00  0.00    +0.000 C 
ENDBRANCH   1  11
BRANCH   6  12
ATOM     12  N   UNL     1       5.101   4.700  15.616  0.00  0.00    +0.000 N 
ATOM     13  H   UNL     1       4.800   5.553  15.149  0.00  0.00    +0.000 HD
BRANCH  12  14
ATOM     14  C   UNL     1       6.557   4.616  15.693  0.00  0.00    +0.000 C 
BRANCH  14  15
ATOM     15  C   UNL     1       7.105   5.464  16.819  0.00  0.00    +0.000 A 
ATOM     16  C   UNL     1       7.552   4.840  17.991  0.00  0.00    +0.000 A 
ATOM     17  C   UNL     1       8.095   5.620  19.001  0.00  0.00    +0.000 A 
ATOM     18  N   UNL     1       8.231   6.959  18.924  0.00  0.00    +0.000 NA
ATOM     19  C   UNL     1       7.817   7.542  17.777  0.00  0.00    +0.000 A 
ATOM     20  C   UNL     1       7.268   6.848  16.710  0.00  0.00    +0.000 A 
ENDBRANCH  14  15
ENDBRANCH  12  14
ENDBRANCH   6  12
TORSDOF 4
ENDMDL
MODEL 7
REMARK VINA RESULT:      -6.5      3.099      4.335
REMARK  Name = 
REMARK  5 active torsions:
REMARK  status: ('A' for Active; 'I' for Inactive)
REMARK    1  A    between atoms: C_1  and  C_2
REMARK    2  A    between atoms: C_2  and  N_3
REMARK    3  A    between atoms: C_8  and  N_9
REMARK    4  A    between atoms: N_9  and  C_10
REMARK    5  A    between atoms: C_10  and  C_11
REMARK                            x       y       z     vdW  Elec       q    Type
REMARK                         _______ _______ _______ _____ _____    ______ ____
ROOT
ATOM      1  N   UNL     1       6.556   4.034  13.183  0.00  0.00    +0.000 N 
ATOM      2  C   UNL     1       7.570   4.938  13.022  0.00  0.00    +0.000 A 
ATOM      3  N   UNL     1       7.895   5.511  14.159  0.00  0.00    +0.000 NA
ATOM      4  C   UNL     1       7.055   4.953  15.096  0.00  0.00    +0.000 A 
ATOM      5  C   UNL     1       6.999   5.158  16.484  0.00  0.00    +0.000 A 
ATOM      6  C   UNL     1       6.041   4.480  17.262  0.00  0.00    +0.000 A 
ATOM      7  C   UNL     1       5.176   3.581  16.618  0.00  0.00    +0.000 A 
ATOM      8  C   UNL     1       5.212   3.357  15.232  0.00  0.00    +0.000 A 
ATOM      9  C   UNL     1       6.180   4.050  14.502  0.00  0.00    +0.000 A 
ENDROOT
BRANCH   1  11
ATOM     10  C   UNL     1       4.644   3.451  11.729  0.00  0.00    +0.000 C 
ATOM     11  C   UNL     1       6.066   3.137  12.157  0.00  0.00    +0.000 C 
ENDBRANCH   1  11
BRANCH   6  12
ATOM     12  N   UNL     1       6.093   4.622  18.661  0.00  0.00    +0.000 N 
ATOM     13  H   UNL     1       6.999   4.979  18.958  0.00  0.00    +0.000 HD
BRANCH  12  14
ATOM     14  C   UNL     1       4.997   5.326  19.322  0.00  0.00    +0.000 C 
BRANCH  14  15
ATOM     15  C   UNL     1       3.740   4.487  19.363  0.00  0.00    +0.000 A 
ATOM     16  C   UNL     1       3.769   3.239  20.000  0.00  0.00    +0.000 A 
ATOM     17  C   UNL     1       2.601   2.496  20.072  0.00  0.00    +0.000 A 
ATOM     18  N   UNL     1       1.419   2.905  19.570  0.00  0.00    +0.000 NA
ATOM     19  C   UNL     1       1.403   4.121  18.981  0.00  0.00    +0.000 A 
ATOM     20  C   UNL     1       2.515   4.940  18.864  0.00  0.00    +0.000 A 
ENDBRANCH  14  15
ENDBRANCH  12  14
ENDBRANCH   6  12
TORSDOF 4
ENDMDL
MODEL 8
REMARK VINA RESULT:      -6.5      3.808      5.983
REMARK  Name = 
REMARK  5 active torsions:
REMARK  status: ('A' for Active; 'I' for Inactive)
REMARK    1  A    between atoms: C_1  and  C_2
REMARK    2  A    between atoms: C_2  and  N_3
REMARK    3  A    between atoms: C_8  and  N_9
REMARK    4  A    between atoms: N_9  and  C_10
REMARK    5  A    between atoms: C_10  and  C_11
REMARK                            x       y       z     vdW  Elec       q    Type
REMARK                         _______ _______ _______ _____ _____    ______ ____
ROOT
ATOM      1  N   UNL     1       1.067   9.767  19.646  0.00  0.00    +0.000 N 
ATOM      2  C   UNL     1       0.642   9.522  20.922  0.00  0.00    +0.000 A 
ATOM      3  N   UNL     1       0.972   8.315  21.322  0.00  0.00    +0.000 NA
ATOM      4  C   UNL     1       1.640   7.754  20.258  0.00  0.00    +0.000 A 
ATOM      5  C   UNL     1       2.260   6.499  20.149  0.00  0.00    +0.000 A 
ATOM      6  C   UNL     1       2.886   6.119  18.947  0.00  0.00    +0.000 A 
ATOM      7  C   UNL     1       2.899   7.036  17.885  0.00  0.00    +0.000 A 
ATOM      8  C   UNL     1       2.287   8.298  17.967  0.00  0.00    +0.000 A 
ATOM      9  C   UNL     1       1.680   8.631  19.179  0.00  0.00    +0.000 A 
ENDROOT
BRANCH   1  11
ATOM     10  C   UNL     1      -0.425  11.598  18.917  0.00  0.00    +0.000 C 
ATOM     11  C   UNL     1       0.987  11.044  18.968  0.00  0.00    +0.000 C 
ENDBRANCH   1  11
BRANCH   6  12
ATOM     12  N   UNL     1       3.596   4.904  18.917  0.00  0.00    +0.000 N 
ATOM     13  H   UNL     1       3.272   4.274  19.648  0.00  0.00    +0.000 HD
BRANCH  12  14
ATOM     14  C   UNL     1       3.728   4.216  17.636  0.00  0.00    +0.000 C 
BRANCH  14  15
ATOM     15  C   UNL     1       5.112   4.387  17.051  0.00  0.00    +0.000 A 
ATOM     16  C   UNL     1       6.209   4.512  17.913  0.00  0.00    +0.000 A 
ATOM     17  C   UNL     1       7.480   4.623  17.369  0.00  0.00    +0.000 A 
ATOM     18  N   UNL     1       7.733   4.610  16.045  0.00  0.00    +0.000 NA
ATOM     19  C   UNL     1       6.666   4.465  15.228  0.00  0.00    +0.000 A 
ATOM     20  C   UNL     1       5.360   4.340  15.676  0.00  0.00    +0.000 A 
ENDBRANCH  14  15
ENDBRANCH  12  14
ENDBRANCH   6  12
TORSDOF 4
ENDMDL
MODEL 9
REMARK VINA RESULT:      -6.5      1.565      6.008
REMARK  Name = 
REMARK  5 active torsions:
REMARK  status: ('A' for Active; 'I' for Inactive)
REMARK    1  A    between atoms: C_1  and  C_2
REMARK    2  A    between atoms: C_2  and  N_3
REMARK    3  A    between atoms: C_8  and  N_9
REMARK    4  A    between atoms: N_9  and  C_10
REMARK    5  A    between atoms: C_10  and  C_11
REMARK                            x       y       z     vdW  Elec       q    Type
REMARK                         _______ _______ _______ _____ _____    ______ ____
ROOT
ATOM      1  N   UNL     1       2.416   3.339  19.673  0.00  0.00    +0.000 N 
ATOM      2  C   UNL     1       2.526   2.037  19.269  0.00  0.00    +0.000 A 
ATOM      3  N   UNL     1       3.167   1.935  18.126  0.00  0.00    +0.000 NA
ATOM      4  C   UNL     1       3.487   3.227  17.777  0.00  0.00    +0.000 A 
ATOM      5  C   UNL     1       4.219   3.703  16.678  0.00  0.00    +0.000 A 
ATOM      6  C   UNL     1       4.422   5.086  16.506  0.00  0.00    +0.000 A 
ATOM      7  C   UNL     1       3.903   5.959  17.475  0.00  0.00    +0.000 A 
ATOM      8  C   UNL     1       3.168   5.510  18.584  0.00  0.00    +0.000 A 
ATOM      9  C   UNL     1       2.994   4.131  18.713  0.00  0.00    +0.000 A 
ENDROOT
BRANCH   1  11
ATOM     10  C   UNL     1       1.355   2.632  21.791  0.00  0.00    +0.000 C 
ATOM     11  C   UNL     1       1.893   3.776  20.951  0.00  0.00    +0.000 C 
ENDBRANCH   1  11
BRANCH   6  12
ATOM     12  N   UNL     1       5.259   5.514  15.459  0.00  0.00    +0.000 N 
ATOM     13  H   UNL     1       5.099   6.496  15.241  0.00  0.00    +0.000 HD
BRANCH  12  14
ATOM     14  C   UNL     1       6.685   5.212  15.551  0.00  0.00    +0.000 C 
BRANCH  14  15
ATOM     15  C   UNL     1       7.285   5.739  16.835  0.00  0.00    +0.000 A 
ATOM     16  C   UNL     1       7.481   7.119  16.984  0.00  0.00    +0.000 A 
ATOM     17  C   UNL     1       7.989   7.598  18.181  0.00  0.00    +0.000 A 
ATOM     18  N   UNL     1       8.303   6.813  19.231  0.00  0.00    +0.000 NA
ATOM     19  C   UNL     1       8.085   5.488  19.080  0.00  0.00    +0.000 A 
ATOM     20  C   UNL     1       7.576   4.914  17.926  0.00  0.00    +0.000 A 
ENDBRANCH  14  15
ENDBRANCH  12  14
ENDBRANCH   6  12
TORSDOF 4
ENDMDL
