MODEL 1
REMARK VINA RESULT:      -9.3      0.000      0.000
REMARK  Name = 
REMARK  5 active torsions:
REMARK  status: ('A' for Active; 'I' for Inactive)
REMARK    1  A    between atoms: C_1  and  C_2
REMARK    2  A    between atoms: C_8  and  C_10
REMARK    3  A    between atoms: C_14  and  N_15
REMARK    4  A    between atoms: C_16  and  C_18
REMARK    5  A    between atoms: C_21  and  C_22
REMARK                            x       y       z     vdW  Elec       q    Type
REMARK                         _______ _______ _______ _____ _____    ______ ____
ROOT
ATOM      1  N   UNL     1       4.590   7.017  17.058  0.00  0.00    +0.000 N 
ATOM      2  C   UNL     1       3.725   6.854  18.132  0.00  0.00    +0.000 C 
ATOM      3  O   UNL     1       3.810   5.943  18.957  0.00  0.00    +0.000 OA
ATOM      4  H   UNL     1       4.730   7.939  16.647  0.00  0.00    +0.000 HD
ENDROOT
BRANCH   2   5
ATOM      5  C   UNL     1       2.636   7.838  18.395  0.00  0.00    +0.000 A 
ATOM      6  C   UNL     1       2.174   8.839  17.534  0.00  0.00    +0.000 A 
ATOM      7  C   UNL     1       1.211   9.768  17.994  0.00  0.00    +0.000 A 
ATOM      8  C   UNL     1       0.691   9.693  19.302  0.00  0.00    +0.000 A 
ATOM      9  C   UNL     1       1.061   8.617  20.092  0.00  0.00    +0.000 A 
ATOM     10  F   UNL     1       0.504   8.396  21.292  0.00  0.00    +0.000 F 
ATOM     11  C   UNL     1       2.042   7.733  19.667  0.00  0.00    +0.000 A 
BRANCH   8  12
ATOM     12  C   UNL     1      -0.295  10.698  19.779  0.00  0.00    +0.000 C 
ATOM     13  O   UNL     1      -0.133  11.117  20.926  0.00  0.00    +0.000 OA
ATOM     14  N   UNL     1      -1.355  11.124  18.967  0.00  0.00    +0.000 N 
ATOM     15  C   UNL     1      -2.144  12.284  19.385  0.00  0.00    +0.000 C 
ATOM     16  C   UNL     1      -3.633  11.948  19.443  0.00  0.00    +0.000 C 
ATOM     17  C   UNL     1      -4.123  11.357  18.122  0.00  0.00    +0.000 C 
ATOM     18  C   UNL     1      -3.258  10.173  17.704  0.00  0.00    +0.000 C 
ATOM     19  C   UNL     1      -1.777  10.536  17.690  0.00  0.00    +0.000 C 
ENDBRANCH   8  12
ENDBRANCH   2   5
BRANCH   1  24
ATOM     20  C   UNL     1       6.896   5.979  17.084  0.00  0.00    +0.000 A 
ATOM     21  C   UNL     1       7.492   4.772  16.553  0.00  0.00    +0.000 A 
ATOM     22  C   UNL     1       6.621   4.020  15.803  0.00  0.00    +0.000 A 
ATOM     23  S   UNL     1       5.122   4.792  15.638  0.00  0.00    +0.000 S 
ATOM     24  C   UNL     1       5.550   6.050  16.720  0.00  0.00    +0.000 A 
BRANCH  20  32
ATOM     25  C   UNL     1       8.223  12.944  17.385  0.00  0.00    +0.000 C 
ATOM     26  C   UNL     1       8.581  11.602  17.955  0.00  0.00    +0.000 A 
ATOM     27  C   UNL     1       9.529  11.499  18.952  0.00  0.00    +0.000 A 
ATOM     28  C   UNL     1       9.769  10.233  19.424  0.00  0.00    +0.000 A 
ATOM     29  N   UNL     1       9.125   9.142  18.979  0.00  0.00    +0.000 NA
ATOM     30  C   UNL     1       8.217   9.327  18.018  0.00  0.00    +0.000 A 
ATOM     31  N   UNL     1       7.524   8.253  17.479  0.00  0.00    +0.000 N 
ATOM     32  C   UNL     1       7.539   6.970  17.963  0.00  0.00    +0.000 C 
ATOM     33  O   UNL     1       8.011   6.610  19.042  0.00  0.00    +0.000 OA
ATOM     34  N   UNL     1       7.932  10.520  17.463  0.00  0.00    +0.000 NA
ATOM     35  H   UNL     1       6.973   8.517  16.682  0.00  0.00    +0.000 HD
ENDBRANCH  20  32
ENDBRANCH   1  24
TORSDOF 4
ENDMDL
MODEL 2
REMARK VINA RESULT:      -9.3      4.855      7.894
REMARK  Name = 
REMARK  5 active torsions:
REMARK  status: ('A' for Active; 'I' for Inactive)
REMARK    1  A    between atoms: C_1  and  C_2
REMARK    2  A    between atoms: C_8  and  C_10
REMARK    3  A    between atoms: C_14  and  N_15
REMARK    4  A    between atoms: C_16  and  C_18
REMARK    5  A    between atoms: C_21  and  C_22
REMARK                            x       y       z     vdW  Elec       q    Type
REMARK                         _______ _______ _______ _____ _____    ______ ____
ROOT
ATOM      1  N   UNL     1       9.172  10.932  17.778  0.00  0.00    +0.000 N 
ATOM      2  C   UNL     1       8.908   9.904  18.674  0.00  0.00    +0.000 C 
ATOM      3  O   UNL     1       9.197   9.938  19.870  0.00  0.00    +0.000 OA
ATOM      4  H   UNL     1       8.606  11.038  16.937  0.00  0.00    +0.000 HD
ENDROOT
BRANCH   2   5
ATOM      5  C   UNL     1       8.181   8.676  18.239  0.00  0.00    +0.000 A 
ATOM      6  C   UNL     1       7.225   8.575  17.223  0.00  0.00    +0.000 A 
ATOM      7  C   UNL     1       6.543   7.350  17.025  0.00  0.00    +0.000 A 
ATOM      8  C   UNL     1       6.824   6.221  17.819  0.00  0.00    +0.000 A 
ATOM      9  C   UNL     1       7.866   6.304  18.728  0.00  0.00    +0.000 A 
ATOM     10  F   UNL     1       8.288   5.236  19.420  0.00  0.00    +0.000 F 
ATOM     11  C   UNL     1       8.503   7.514  18.965  0.00  0.00    +0.000 A 
BRANCH   8  12
ATOM     12  C   UNL     1       6.074   4.953  17.619  0.00  0.00    +0.000 C 
ATOM     13  O   UNL     1       6.636   4.089  16.945  0.00  0.00    +0.000 OA
ATOM     14  N   UNL     1       4.792   4.770  18.156  0.00  0.00    +0.000 N 
ATOM     15  C   UNL     1       4.205   3.430  18.142  0.00  0.00    +0.000 C 
ATOM     16  C   UNL     1       2.836   3.435  17.463  0.00  0.00    +0.000 C 
ATOM     17  C   UNL     1       1.906   4.471  18.091  0.00  0.00    +0.000 C 
ATOM     18  C   UNL     1       2.564   5.845  18.117  0.00  0.00    +0.000 C 
ATOM     19  C   UNL     1       3.941   5.797  18.771  0.00  0.00    +0.000 C 
ENDBRANCH   8  12
ENDBRANCH   2   5
BRANCH   1  24
ATOM     20  C   UNL     1       9.566  13.380  18.273  0.00  0.00    +0.000 A 
ATOM     21  C   UNL     1      10.692  14.179  18.707  0.00  0.00    +0.000 A 
ATOM     22  C   UNL     1      11.853  13.457  18.835  0.00  0.00    +0.000 A 
ATOM     23  S   UNL     1      11.639  11.850  18.342  0.00  0.00    +0.000 S 
ATOM     24  C   UNL     1       9.951  12.046  18.130  0.00  0.00    +0.000 A 
BRANCH  20  32
ATOM     25  C   UNL     1       5.074  18.292  20.734  0.00  0.00    +0.000 C 
ATOM     26  C   UNL     1       5.184  17.005  19.968  0.00  0.00    +0.000 A 
ATOM     27  C   UNL     1       4.054  16.397  19.462  0.00  0.00    +0.000 A 
ATOM     28  C   UNL     1       4.261  15.238  18.758  0.00  0.00    +0.000 A 
ATOM     29  N   UNL     1       5.476  14.711  18.537  0.00  0.00    +0.000 NA
ATOM     30  C   UNL     1       6.520  15.364  19.054  0.00  0.00    +0.000 A 
ATOM     31  N   UNL     1       7.810  14.878  18.900  0.00  0.00    +0.000 N 
ATOM     32  C   UNL     1       8.178  13.836  18.088  0.00  0.00    +0.000 C 
ATOM     33  O   UNL     1       7.468  13.295  17.239  0.00  0.00    +0.000 OA
ATOM     34  N   UNL     1       6.423  16.488  19.789  0.00  0.00    +0.000 NA
ATOM     35  H   UNL     1       8.478  15.393  19.445  0.00  0.00    +0.000 HD
ENDBRANCH  20  32
ENDBRANCH   1  24
TORSDOF 4
ENDMDL
MODEL 3
REMARK VINA RESULT:      -9.2      3.648      4.760
REMARK  Name = 
REMARK  5 active torsions:
REMARK  status: ('A' for Active; 'I' for Inactive)
REMARK    1  A    between atoms: C_1  and  C_2
REMARK    2  A    between atoms: C_8  and  C_10
REMARK    3  A    between atoms: C_14  and  N_15
REMARK    4  A    between atoms: C_16  and  C_18
REMARK    5  A    between atoms: C_21  and  C_22
REMARK                            x       y       z     vdW  Elec       q    Type
REMARK                         _______ _______ _______ _____ _____    ______ ____
ROOT
ATOM      1  N   UNL     1       2.657   5.788  20.257  0.00  0.00    +0.000 N 
ATOM      2  C   UNL     1       2.228   6.325  19.050  0.00  0.00    +0.000 C 
ATOM      3  O   UNL     1       2.035   5.665  18.029  0.00  0.00    +0.000 OA
ATOM      4  H   UNL     1       2.442   6.261  21.134  0.00  0.00    +0.000 HD
ENDROOT
BRANCH   2   5
ATOM      5  C   UNL     1       1.910   7.777  18.928  0.00  0.00    +0.000 A 
ATOM      6  C   UNL     1       2.051   8.581  17.792  0.00  0.00    +0.000 A 
ATOM      7  C   UNL     1       1.816   9.973  17.888  0.00  0.00    +0.000 A 
ATOM      8  C   UNL     1       1.421  10.565  19.103  0.00  0.00    +0.000 A 
ATOM      9  C   UNL     1       1.158   9.734  20.180  0.00  0.00    +0.000 A 
ATOM     10  F   UNL     1       0.644  10.204  21.326  0.00  0.00    +0.000 F 
ATOM     11  C   UNL     1       1.436   8.378  20.110  0.00  0.00    +0.000 A 
BRANCH   8  12
ATOM     12  C   UNL     1       1.211  12.035  19.193  0.00  0.00    +0.000 C 
ATOM     13  O   UNL     1       2.229  12.728  19.232  0.00  0.00    +0.000 OA
ATOM     14  N   UNL     1      -0.076  12.587  19.247  0.00  0.00    +0.000 N 
ATOM     15  C   UNL     1      -0.232  14.033  19.086  0.00  0.00    +0.000 C 
ATOM     16  C   UNL     1      -1.001  14.640  20.259  0.00  0.00    +0.000 C 
ATOM     17  C   UNL     1      -2.337  13.930  20.476  0.00  0.00    +0.000 C 
ATOM     18  C   UNL     1      -2.137  12.425  20.607  0.00  0.00    +0.000 C 
ATOM     19  C   UNL     1      -1.337  11.861  19.437  0.00  0.00    +0.000 C 
ENDBRANCH   8  12
ENDBRANCH   2   5
BRANCH   1  24
ATOM     20  C   UNL     1       4.087   3.781  19.691  0.00  0.00    +0.000 A 
ATOM     21  C   UNL     1       4.201   2.423  20.178  0.00  0.00    +0.000 A 
ATOM     22  C   UNL     1       3.277   2.113  21.146  0.00  0.00    +0.000 A 
ATOM     23  S   UNL     1       2.205   3.398  21.410  0.00  0.00    +0.000 S 
ATOM     24  C   UNL     1       3.071   4.452  20.374  0.00  0.00    +0.000 A 
BRANCH  20  32
ATOM     25  C   UNL     1       5.483   3.624  12.735  0.00  0.00    +0.000 C 
ATOM     26  C   UNL     1       5.976   4.090  14.074  0.00  0.00    +0.000 A 
ATOM     27  C   UNL     1       7.160   4.792  14.175  0.00  0.00    +0.000 A 
ATOM     28  C   UNL     1       7.512   5.195  15.438  0.00  0.00    +0.000 A 
ATOM     29  N   UNL     1       6.766   4.957  16.528  0.00  0.00    +0.000 NA
ATOM     30  C   UNL     1       5.631   4.278  16.345  0.00  0.00    +0.000 A 
ATOM     31  N   UNL     1       4.811   3.962  17.419  0.00  0.00    +0.000 N 
ATOM     32  C   UNL     1       4.951   4.439  18.697  0.00  0.00    +0.000 C 
ATOM     33  O   UNL     1       5.698   5.352  19.050  0.00  0.00    +0.000 OA
ATOM     34  N   UNL     1       5.211   3.808  15.155  0.00  0.00    +0.000 NA
ATOM     35  H   UNL     1       4.065   3.342  17.159  0.00  0.00    +0.000 HD
ENDBRANCH  20  32
ENDBRANCH   1  24
TORSDOF 4
ENDMDL
MODEL 4
REMARK VINA RESULT:      -9.2      4.019      8.772
REMARK  Name = 
REMARK  5 active torsions:
REMARK  status: ('A' for Active; 'I' for Inactive)
REMARK    1  A    between atoms: C_1  and  C_2
REMARK    2  A    between atoms: C_8  and  C_10
REMARK    3  A    between atoms: C_14  and  N_15
REMARK    4  A    between atoms: C_16  and  C_18
REMARK    5  A    between atoms: C_21  and  C_22
REMARK                            x       y       z     vdW  Elec       q    Type
REMARK                         _______ _______ _______ _____ _____    ______ ____
ROOT
ATOM      1  N   UNL     1       0.768  10.937  21.183  0.00  0.00    +0.000 N 
ATOM      2  C   UNL     1       0.448  10.457  19.921  0.00  0.00    +0.000 C 
ATOM      3  O   UNL     1      -0.452  10.913  19.214  0.00  0.00    +0.000 OA
ATOM      4  H   UNL     1       1.708  10.812  21.557  0.00  0.00    +0.000 HD
ENDROOT
BRANCH   2   5
ATOM      5  C   UNL     1       1.238   9.356  19.296  0.00  0.00    +0.000 A 
ATOM      6  C   UNL     1       1.710   9.296  17.982  0.00  0.00    +0.000 A 
ATOM      7  C   UNL     1       2.341   8.116  17.520  0.00  0.00    +0.000 A 
ATOM      8  C   UNL     1       2.522   7.005  18.367  0.00  0.00    +0.000 A 
ATOM      9  C   UNL     1       2.168   7.134  19.700  0.00  0.00    +0.000 A 
ATOM     10  F   UNL     1       2.437   6.177  20.599  0.00  0.00    +0.000 F 
ATOM     11  C   UNL     1       1.503   8.266  20.147  0.00  0.00    +0.000 A 
BRANCH   8  12
ATOM     12  C   UNL     1       3.156   5.761  17.854  0.00  0.00    +0.000 C 
ATOM     13  O   UNL     1       2.526   4.717  18.028  0.00  0.00    +0.000 OA
ATOM     14  N   UNL     1       4.409   5.786  17.226  0.00  0.00    +0.000 N 
ATOM     15  C   UNL     1       4.873   4.588  16.526  0.00  0.00    +0.000 C 
ATOM     16  C   UNL     1       6.245   4.147  17.035  0.00  0.00    +0.000 C 
ATOM     17  C   UNL     1       7.257   5.289  16.967  0.00  0.00    +0.000 C 
ATOM     18  C   UNL     1       6.726   6.527  17.678  0.00  0.00    +0.000 C 
ATOM     19  C   UNL     1       5.343   6.918  17.169  0.00  0.00    +0.000 C 
ENDBRANCH   8  12
ENDBRANCH   2   5
BRANCH   1  24
ATOM     20  C   UNL     1       0.113  13.280  21.875  0.00  0.00    +0.000 A 
ATOM     21  C   UNL     1      -0.970  13.869  22.632  0.00  0.00    +0.000 A 
ATOM     22  C   UNL     1      -1.834  12.940  23.158  0.00  0.00    +0.000 A 
ATOM     23  S   UNL     1      -1.308  11.360  22.844  0.00  0.00    +0.000 S 
ATOM     24  C   UNL     1      -0.025  11.891  21.842  0.00  0.00    +0.000 A 
BRANCH  20  32
ATOM     25  C   UNL     1       0.880  18.392  17.012  0.00  0.00    +0.000 C 
ATOM     26  C   UNL     1       1.567  17.259  17.719  0.00  0.00    +0.000 A 
ATOM     27  C   UNL     1       2.881  16.955  17.433  0.00  0.00    +0.000 A 
ATOM     28  C   UNL     1       3.427  15.919  18.149  0.00  0.00    +0.000 A 
ATOM     29  N   UNL     1       2.758  15.236  19.091  0.00  0.00    +0.000 NA
ATOM     30  C   UNL     1       1.492  15.596  19.313  0.00  0.00    +0.000 A 
ATOM     31  N   UNL     1       0.716  14.928  20.249  0.00  0.00    +0.000 N 
ATOM     32  C   UNL     1       1.173  13.996  21.145  0.00  0.00    +0.000 C 
ATOM     33  O   UNL     1       2.354  13.744  21.387  0.00  0.00    +0.000 OA
ATOM     34  N   UNL     1       0.853  16.574  18.643  0.00  0.00    +0.000 NA
ATOM     35  H   UNL     1      -0.246  15.214  20.221  0.00  0.00    +0.000 HD
ENDBRANCH  20  32
ENDBRANCH   1  24
TORSDOF 4
ENDMDL
MODEL 5
REMARK VINA RESULT:      -9.2      5.165      7.753
REMARK  Name = 
REMARK  5 active torsions:
REMARK  status: ('A' for Active; 'I' for Inactive)
REMARK    1  A    between atoms: C_1  and  C_2
REMARK    2  A    between atoms: C_8  and  C_10
REMARK    3  A    between atoms: C_14  and  N_15
REMARK    4  A    between atoms: C_16  and  C_18
REMARK    5  A    between atoms: C_21  and  C_22
REMARK                            x       y       z     vdW  Elec       q    Type
REMARK                         _______ _______ _______ _____ _____    ______ ____
ROOT
ATOM      1  N   UNL     1       9.497   9.656  19.234  0.00  0.00    +0.000 N 
ATOM      2  C   UNL     1       8.517   9.446  18.274  0.00  0.00    +0.000 C 
ATOM      3  O   UNL     1       8.188  10.279  17.428  0.00  0.00    +0.000 OA
ATOM      4  H   UNL     1       9.994   8.864  19.642  0.00  0.00    +0.000 HD
ENDROOT
BRANCH   2   5
ATOM      5  C   UNL     1       7.817   8.134  18.166  0.00  0.00    +0.000 A 
ATOM      6  C   UNL     1       8.177   6.930  18.781  0.00  0.00    +0.000 A 
ATOM      7  C   UNL     1       7.467   5.746  18.470  0.00  0.00    +0.000 A 
ATOM      8  C   UNL     1       6.386   5.759  17.566  0.00  0.00    +0.000 A 
ATOM      9  C   UNL     1       5.961   6.982  17.072  0.00  0.00    +0.000 A 
ATOM     10  F   UNL     1       4.856   7.096  16.321  0.00  0.00    +0.000 F 
ATOM     11  C   UNL     1       6.684   8.138  17.331  0.00  0.00    +0.000 A 
BRANCH   8  12
ATOM     12  C   UNL     1       5.673   4.500  17.226  0.00  0.00    +0.000 C 
ATOM     13  O   UNL     1       6.137   3.847  16.290  0.00  0.00    +0.000 OA
ATOM     14  N   UNL     1       4.528   4.097  17.927  0.00  0.00    +0.000 N 
ATOM     15  C   UNL     1       4.013   2.743  17.721  0.00  0.00    +0.000 C 
ATOM     16  C   UNL     1       2.541   2.767  17.311  0.00  0.00    +0.000 C 
ATOM     17  C   UNL     1       1.700   3.565  18.306  0.00  0.00    +0.000 C 
ATOM     18  C   UNL     1       2.284   4.956  18.518  0.00  0.00    +0.000 C 
ATOM     19  C   UNL     1       3.761   4.894  18.893  0.00  0.00    +0.000 C 
ENDBRANCH   8  12
ENDBRANCH   2   5
BRANCH   1  24
ATOM     20  C   UNL     1       9.859  11.848  20.442  0.00  0.00    +0.000 A 
ATOM     21  C   UNL     1      10.745  12.981  20.284  0.00  0.00    +0.000 A 
ATOM     22  C   UNL     1      11.558  12.885  19.181  0.00  0.00    +0.000 A 
ATOM     23  S   UNL     1      11.204  11.501  18.271  0.00  0.00    +0.000 S 
ATOM     24  C   UNL     1      10.092  10.912  19.433  0.00  0.00    +0.000 A 
BRANCH  20  32
ATOM     25  C   UNL     1       5.097  15.378  24.344  0.00  0.00    +0.000 C 
ATOM     26  C   UNL     1       5.915  14.123  24.248  0.00  0.00    +0.000 A 
ATOM     27  C   UNL     1       5.822  13.154  25.226  0.00  0.00    +0.000 A 
ATOM     28  C   UNL     1       6.590  12.034  25.036  0.00  0.00    +0.000 A 
ATOM     29  N   UNL     1       7.380  11.849  23.967  0.00  0.00    +0.000 NA
ATOM     30  C   UNL     1       7.410  12.830  23.062  0.00  0.00    +0.000 A 
ATOM     31  N   UNL     1       8.219  12.738  21.939  0.00  0.00    +0.000 N 
ATOM     32  C   UNL     1       8.905  11.619  21.539  0.00  0.00    +0.000 C 
ATOM     33  O   UNL     1       8.766  10.484  21.998  0.00  0.00    +0.000 OA
ATOM     34  N   UNL     1       6.722  13.983  23.170  0.00  0.00    +0.000 NA
ATOM     35  H   UNL     1       8.243  13.594  21.415  0.00  0.00    +0.000 HD
ENDBRANCH  20  32
ENDBRANCH   1  24
TORSDOF 4
ENDMDL
MODEL 6
REMARK VINA RESULT:      -9.2      4.728      8.800
REMARK  Name = 
REMARK  5 active torsions:
REMARK  status: ('A' for Active; 'I' for Inactive)
REMARK    1  A    between atoms: C_1  and  C_2
REMARK    2  A    between atoms: C_8  and  C_10
REMARK    3  A    between atoms: C_14  and  N_15
REMARK    4  A    between atoms: C_16  and  C_18
REMARK    5  A    between atoms: C_21  and  C_22
REMARK                            x       y       z     vdW  Elec       q    Type
REMARK                         _______ _______ _______ _____ _____    ______ ____
ROOT
ATOM      1  N   UNL     1       0.113  11.119  21.806  0.00  0.00    +0.000 N 
ATOM      2  C   UNL     1       0.048  10.598  20.521  0.00  0.00    +0.000 C 
ATOM      3  O   UNL     1      -0.583  11.112  19.597  0.00  0.00    +0.000 OA
ATOM      4  H   UNL     1       0.908  10.906  22.407  0.00  0.00    +0.000 HD
ENDROOT
BRANCH   2   5
ATOM      5  C   UNL     1       0.811   9.370  20.153  0.00  0.00    +0.000 A 
ATOM      6  C   UNL     1       1.108   8.280  20.977  0.00  0.00    +0.000 A 
ATOM      7  C   UNL     1       1.952   7.250  20.496  0.00  0.00    +0.000 A 
ATOM      8  C   UNL     1       2.483   7.290  19.192  0.00  0.00    +0.000 A 
ATOM      9  C   UNL     1       2.069   8.308  18.348  0.00  0.00    +0.000 A 
ATOM     10  F   UNL     1       2.416   8.338  17.054  0.00  0.00    +0.000 F 
ATOM     11  C   UNL     1       1.286   9.348  18.827  0.00  0.00    +0.000 A 
BRANCH   8  12
ATOM     12  C   UNL     1       3.395   6.216  18.716  0.00  0.00    +0.000 C 
ATOM     13  O   UNL     1       4.438   6.587  18.176  0.00  0.00    +0.000 OA
ATOM     14  N   UNL     1       3.066   4.862  18.863  0.00  0.00    +0.000 N 
ATOM     15  C   UNL     1       4.095   3.853  18.607  0.00  0.00    +0.000 C 
ATOM     16  C   UNL     1       3.621   2.831  17.575  0.00  0.00    +0.000 C 
ATOM     17  C   UNL     1       2.285   2.210  17.978  0.00  0.00    +0.000 C 
ATOM     18  C   UNL     1       1.250   3.290  18.267  0.00  0.00    +0.000 C 
ATOM     19  C   UNL     1       1.769   4.310  19.276  0.00  0.00    +0.000 C 
ENDBRANCH   8  12
ENDBRANCH   2   5
BRANCH   1  24
ATOM     20  C   UNL     1      -0.457  13.572  22.042  0.00  0.00    +0.000 A 
ATOM     21  C   UNL     1      -1.572  14.328  22.569  0.00  0.00    +0.000 A 
ATOM     22  C   UNL     1      -2.545  13.539  23.133  0.00  0.00    +0.000 A 
ATOM     23  S   UNL     1      -2.093  11.906  23.133  0.00  0.00    +0.000 S 
ATOM     24  C   UNL     1      -0.680  12.205  22.212  0.00  0.00    +0.000 A 
BRANCH  20  32
ATOM     25  C   UNL     1       1.182  18.301  17.011  0.00  0.00    +0.000 C 
ATOM     26  C   UNL     1       1.683  17.124  17.797  0.00  0.00    +0.000 A 
ATOM     27  C   UNL     1       2.957  16.637  17.587  0.00  0.00    +0.000 A 
ATOM     28  C   UNL     1       3.330  15.575  18.371  0.00  0.00    +0.000 A 
ATOM     29  N   UNL     1       2.538  15.031  19.308  0.00  0.00    +0.000 NA
ATOM     30  C   UNL     1       1.322  15.563  19.454  0.00  0.00    +0.000 A 
ATOM     31  N   UNL     1       0.426  15.047  20.379  0.00  0.00    +0.000 N 
ATOM     32  C   UNL     1       0.718  14.107  21.334  0.00  0.00    +0.000 C 
ATOM     33  O   UNL     1       1.845  13.716  21.642  0.00  0.00    +0.000 OA
ATOM     34  N   UNL     1       0.847  16.583  18.714  0.00  0.00    +0.000 NA
ATOM     35  H   UNL     1      -0.487  15.455  20.293  0.00  0.00    +0.000 HD
ENDBRANCH  20  32
ENDBRANCH   1  24
TORSDOF 4
ENDMDL
MODEL 7
REMARK VINA RESULT:      -9.1      1.395      2.002
REMARK  Name = 
REMARK  5 active torsions:
REMARK  status: ('A' for Active; 'I' for Inactive)
REMARK    1  A    between atoms: C_1  and  C_2
REMARK    2  A    between atoms: C_8  and  C_10
REMARK    3  A    between atoms: C_14  and  N_15
REMARK    4  A    between atoms: C_16  and  C_18
REMARK    5  A    between atoms: C_21  and  C_22
REMARK                            x       y       z     vdW  Elec       q    Type
REMARK                         _______ _______ _______ _____ _____    ______ ____
ROOT
ATOM      1  N   UNL     1       4.568   7.013  17.050  0.00  0.00    +0.000 N 
ATOM      2  C   UNL     1       3.707   6.808  18.120  0.00  0.00    +0.000 C 
ATOM      3  O   UNL     1       3.804   5.873  18.916  0.00  0.00    +0.000 OA
ATOM      4  H   UNL     1       4.698   7.950  16.668  0.00  0.00    +0.000 HD
ENDROOT
BRANCH   2   5
ATOM      5  C   UNL     1       2.608   7.772  18.416  0.00  0.00    +0.000 A 
ATOM      6  C   UNL     1       2.033   8.694  17.535  0.00  0.00    +0.000 A 
ATOM      7  C   UNL     1       1.079   9.621  18.020  0.00  0.00    +0.000 A 
ATOM      8  C   UNL     1       0.681   9.620  19.371  0.00  0.00    +0.000 A 
ATOM      9  C   UNL     1       1.162   8.615  20.194  0.00  0.00    +0.000 A 
ATOM     10  F   UNL     1       0.723   8.461  21.452  0.00  0.00    +0.000 F 
ATOM     11  C   UNL     1       2.135   7.737  19.741  0.00  0.00    +0.000 A 
BRANCH   8  12
ATOM     12  C   UNL     1      -0.298  10.624  19.869  0.00  0.00    +0.000 C 
ATOM     13  O   UNL     1      -1.486  10.367  19.675  0.00  0.00    +0.000 OA
ATOM     14  N   UNL     1       0.123  11.799  20.506  0.00  0.00    +0.000 N 
ATOM     15  C   UNL     1      -0.871  12.626  21.191  0.00  0.00    +0.000 C 
ATOM     16  C   UNL     1      -0.833  14.068  20.685  0.00  0.00    +0.000 C 
ATOM     17  C   UNL     1       0.574  14.654  20.777  0.00  0.00    +0.000 C 
ATOM     18  C   UNL     1       1.585  13.750  20.081  0.00  0.00    +0.000 C 
ATOM     19  C   UNL     1       1.496  12.314  20.587  0.00  0.00    +0.000 C 
ENDBRANCH   8  12
ENDBRANCH   2   5
BRANCH   1  24
ATOM     20  C   UNL     1       6.889   6.010  17.026  0.00  0.00    +0.000 A 
ATOM     21  C   UNL     1       7.496   4.823  16.464  0.00  0.00    +0.000 A 
ATOM     22  C   UNL     1       6.627   4.074  15.708  0.00  0.00    +0.000 A 
ATOM     23  S   UNL     1       5.115   4.827  15.578  0.00  0.00    +0.000 S 
ATOM     24  C   UNL     1       5.538   6.068  16.681  0.00  0.00    +0.000 A 
BRANCH  20  32
ATOM     25  C   UNL     1       8.219  12.971  17.402  0.00  0.00    +0.000 C 
ATOM     26  C   UNL     1       8.574  11.623  17.960  0.00  0.00    +0.000 A 
ATOM     27  C   UNL     1       9.517  11.510  18.961  0.00  0.00    +0.000 A 
ATOM     28  C   UNL     1       9.754  10.239  19.421  0.00  0.00    +0.000 A 
ATOM     29  N   UNL     1       9.112   9.153  18.963  0.00  0.00    +0.000 NA
ATOM     30  C   UNL     1       8.209   9.348  17.999  0.00  0.00    +0.000 A 
ATOM     31  N   UNL     1       7.517   8.279  17.447  0.00  0.00    +0.000 N 
ATOM     32  C   UNL     1       7.529   6.991  17.918  0.00  0.00    +0.000 C 
ATOM     33  O   UNL     1       7.996   6.620  18.996  0.00  0.00    +0.000 OA
ATOM     34  N   UNL     1       7.926  10.546  17.455  0.00  0.00    +0.000 NA
ATOM     35  H   UNL     1       6.970   8.551  16.650  0.00  0.00    +0.000 HD
ENDBRANCH  20  32
ENDBRANCH   1  24
TORSDOF 4
ENDMDL
MODEL 8
REMARK VINA RESULT:      -9.0      4.835      7.804
REMARK  Name = 
REMARK  5 active torsions:
REMARK  status: ('A' for Active; 'I' for Inactive)
REMARK    1  A    between atoms: C_1  and  C_2
REMARK    2  A    between atoms: C_8  and  C_10
REMARK    3  A    between atoms: C_14  and  N_15
REMARK    4  A    between atoms: C_16  and  C_18
REMARK    5  A    between atoms: C_21  and  C_22
REMARK                            x       y       z     vdW  Elec       q    Type
REMARK                         _______ _______ _______ _____ _____    ______ ____
ROOT
ATOM      1  N   UNL     1       9.156  10.540  17.680  0.00  0.00    +0.000 N 
ATOM      2  C   UNL     1       8.936   9.665  18.735  0.00  0.00    +0.000 C 
ATOM      3  O   UNL     1       9.263   9.891  19.901  0.00  0.00    +0.000 OA
ATOM      4  H   UNL     1       8.562  10.506  16.852  0.00  0.00    +0.000 HD
ENDROOT
BRANCH   2   5
ATOM      5  C   UNL     1       8.214   8.377  18.524  0.00  0.00    +0.000 A 
ATOM      6  C   UNL     1       8.462   7.155  19.159  0.00  0.00    +0.000 A 
ATOM      7  C   UNL     1       7.757   5.999  18.747  0.00  0.00    +0.000 A 
ATOM      8  C   UNL     1       6.793   6.057  17.721  0.00  0.00    +0.000 A 
ATOM      9  C   UNL     1       6.468   7.299  17.199  0.00  0.00    +0.000 A 
ATOM     10  F   UNL     1       5.465   7.457  16.324  0.00  0.00    +0.000 F 
ATOM     11  C   UNL     1       7.190   8.427  17.560  0.00  0.00    +0.000 A 
BRANCH   8  12
ATOM     12  C   UNL     1       6.088   4.825  17.279  0.00  0.00    +0.000 C 
ATOM     13  O   UNL     1       6.649   4.160  16.407  0.00  0.00    +0.000 OA
ATOM     14  N   UNL     1       4.846   4.462  17.817  0.00  0.00    +0.000 N 
ATOM     15  C   UNL     1       4.315   3.128  17.534  0.00  0.00    +0.000 C 
ATOM     16  C   UNL     1       2.913   3.207  16.932  0.00  0.00    +0.000 C 
ATOM     17  C   UNL     1       1.975   4.031  17.812  0.00  0.00    +0.000 C 
ATOM     18  C   UNL     1       2.575   5.399  18.112  0.00  0.00    +0.000 C 
ATOM     19  C   UNL     1       3.986   5.282  18.679  0.00  0.00    +0.000 C 
ENDBRANCH   8  12
ENDBRANCH   2   5
BRANCH   1  24
ATOM     20  C   UNL     1       9.524  13.039  17.803  0.00  0.00    +0.000 A 
ATOM     21  C   UNL     1      10.655  13.906  18.052  0.00  0.00    +0.000 A 
ATOM     22  C   UNL     1      11.838  13.225  18.207  0.00  0.00    +0.000 A 
ATOM     23  S   UNL     1      11.631  11.563  17.957  0.00  0.00    +0.000 S 
ATOM     24  C   UNL     1       9.929  11.703  17.824  0.00  0.00    +0.000 A 
BRANCH  20  32
ATOM     25  C   UNL     1       4.931  17.856  20.265  0.00  0.00    +0.000 C 
ATOM     26  C   UNL     1       5.065  16.556  19.526  0.00  0.00    +0.000 A 
ATOM     27  C   UNL     1       3.945  15.900  19.061  0.00  0.00    +0.000 A 
ATOM     28  C   UNL     1       4.173  14.733  18.377  0.00  0.00    +0.000 A 
ATOM     29  N   UNL     1       5.399  14.241  18.138  0.00  0.00    +0.000 NA
ATOM     30  C   UNL     1       6.433  14.939  18.615  0.00  0.00    +0.000 A 
ATOM     31  N   UNL     1       7.734  14.493  18.440  0.00  0.00    +0.000 N 
ATOM     32  C   UNL     1       8.118  13.445  17.643  0.00  0.00    +0.000 C 
ATOM     33  O   UNL     1       7.406  12.862  16.823  0.00  0.00    +0.000 OA
ATOM     34  N   UNL     1       6.316  16.076  19.328  0.00  0.00    +0.000 NA
ATOM     35  H   UNL     1       8.398  15.040  18.957  0.00  0.00    +0.000 HD
ENDBRANCH  20  32
ENDBRANCH   1  24
TORSDOF 4
ENDMDL
MODEL 9
REMARK VINA RESULT:      -9.0      4.757     10.083
REMARK  Name = 
REMARK  5 active torsions:
REMARK  status: ('A' for Active; 'I' for Inactive)
REMARK    1  A    between atoms: C_1  and  C_2
REMARK    2  A    between atoms: C_8  and  C_10
REMARK    3  A    between atoms: C_14  and  N_15
REMARK    4  A    between atoms: C_16  and  C_18
REMARK    5  A    between atoms: C_21  and  C_22
REMARK                            x       y       z     vdW  Elec       q    Type
REMARK                         _______ _______ _______ _____ _____    ______ ____
ROOT
ATOM      1  N   UNL     1       1.088  11.468  19.242  0.00  0.00    +0.000 N 
ATOM      2  C   UNL     1       0.657  10.490  20.129  0.00  0.00    +0.000 C 
ATOM      3  O   UNL     1      -0.216  10.663  20.979  0.00  0.00    +0.000 OA
ATOM      4  H   UNL     1       1.501  11.205  18.348  0.00  0.00    +0.000 HD
ENDROOT
BRANCH   2   5
ATOM      5  C   UNL     1       1.206   9.104  20.066  0.00  0.00    +0.000 A 
ATOM      6  C   UNL     1       1.171   8.135  21.074  0.00  0.00    +0.000 A 
ATOM      7  C   UNL     1       1.852   6.908  20.887  0.00  0.00    +0.000 A 
ATOM      8  C   UNL     1       2.549   6.634  19.694  0.00  0.00    +0.000 A 
ATOM      9  C   UNL     1       2.460   7.551  18.659  0.00  0.00    +0.000 A 
ATOM     10  F   UNL     1       2.976   7.301  17.447  0.00  0.00    +0.000 F 
ATOM     11  C   UNL     1       1.840   8.777  18.853  0.00  0.00    +0.000 A 
BRANCH   8  12
ATOM     12  C   UNL     1       3.287   5.354  19.529  0.00  0.00    +0.000 C 
ATOM     13  O   UNL     1       4.487   5.447  19.267  0.00  0.00    +0.000 OA
ATOM     14  N   UNL     1       2.639   4.117  19.651  0.00  0.00    +0.000 N 
ATOM     15  C   UNL     1       3.447   2.899  19.725  0.00  0.00    +0.000 C 
ATOM     16  C   UNL     1       3.028   1.892  18.656  0.00  0.00    +0.000 C 
ATOM     17  C   UNL     1       1.530   1.600  18.721  0.00  0.00    +0.000 C 
ATOM     18  C   UNL     1       0.724   2.892  18.673  0.00  0.00    +0.000 C 
ATOM     19  C   UNL     1       1.191   3.886  19.732  0.00  0.00    +0.000 C 
ENDBRANCH   8  12
ENDBRANCH   2   5
BRANCH   1  24
ATOM     20  C   UNL     1      -0.550  13.380  19.003  0.00  0.00    +0.000 A 
ATOM     21  C   UNL     1      -0.553  14.786  19.342  0.00  0.00    +0.000 A 
ATOM     22  C   UNL     1       0.636  15.220  19.876  0.00  0.00    +0.000 A 
ATOM     23  S   UNL     1       1.796  13.985  19.882  0.00  0.00    +0.000 S 
ATOM     24  C   UNL     1       0.675  12.806  19.349  0.00  0.00    +0.000 A 
BRANCH  20  32
ATOM     25  C   UNL     1      -7.470  12.294  20.140  0.00  0.00    +0.000 C 
ATOM     26  C   UNL     1      -6.243  11.767  19.455  0.00  0.00    +0.000 A 
ATOM     27  C   UNL     1      -6.310  10.620  18.692  0.00  0.00    +0.000 A 
ATOM     28  C   UNL     1      -5.141  10.233  18.087  0.00  0.00    +0.000 A 
ATOM     29  N   UNL     1      -3.990  10.915  18.193  0.00  0.00    +0.000 NA
ATOM     30  C   UNL     1      -4.009  12.018  18.944  0.00  0.00    +0.000 A 
ATOM     31  N   UNL     1      -2.859  12.771  19.132  0.00  0.00    +0.000 N 
ATOM     32  C   UNL     1      -1.675  12.599  18.463  0.00  0.00    +0.000 C 
ATOM     33  O   UNL     1      -1.501  11.887  17.472  0.00  0.00    +0.000 OA
ATOM     34  N   UNL     1      -5.093  12.466  19.607  0.00  0.00    +0.000 NA
ATOM     35  H   UNL     1      -2.984  13.493  19.818  0.00  0.00    +0.000 HD
ENDBRANCH  20  32
ENDBRANCH   1  24
TORSDOF 4
ENDMDL
