MODEL 1
REMARK VINA RESULT:      -8.1      0.000      0.000
REMARK  Name = 
REMARK  2 active torsions:
REMARK  status: ('A' for Active; 'I' for Inactive)
REMARK    1  A    between atoms: C_1  and  C_2
REMARK    2  A    between atoms: C_7  and  C_8
REMARK                            x       y       z     vdW  Elec       q    Type
REMARK                         _______ _______ _______ _____ _____    ______ ____
ROOT
ATOM      1  C   UNL     1       5.098   4.067  18.980  0.00  0.00    +0.000 C 
ATOM      2  O   UNL     1       5.926   4.988  19.710  0.00  0.00    +0.000 OA
ATOM      3  C   UNL     1       6.959   5.410  18.908  0.00  0.00    +0.000 C 
ATOM      4  O   UNL     1       7.957   6.003  19.264  0.00  0.00    +0.000 OA
ATOM      5  C   UNL     1       6.589   5.065  17.537  0.00  0.00    +0.000 A 
ATOM      6  C   UNL     1       7.273   5.305  16.359  0.00  0.00    +0.000 A 
ATOM      7  C   UNL     1       6.642   4.945  15.166  0.00  0.00    +0.000 A 
ATOM      8  C   UNL     1       5.348   4.396  15.180  0.00  0.00    +0.000 A 
ATOM      9  C   UNL     1       4.702   4.122  16.390  0.00  0.00    +0.000 A 
ATOM     10  C   UNL     1       5.365   4.426  17.568  0.00  0.00    +0.000 A 
ENDROOT
BRANCH   1  17
ATOM     11  C   UNL     1       3.395   1.490  18.605  0.00  0.00    +0.000 C 
ATOM     12  C   UNL     1       2.864   2.751  19.225  0.00  0.00    +0.000 A 
ATOM     13  C   UNL     1       1.513   2.785  19.626  0.00  0.00    +0.000 A 
ATOM     14  C   UNL     1       0.959   3.911  20.235  0.00  0.00    +0.000 A 
ATOM     15  C   UNL     1       1.748   5.028  20.465  0.00  0.00    +0.000 A 
ATOM     16  C   UNL     1       3.077   5.023  20.063  0.00  0.00    +0.000 A 
ATOM     17  C   UNL     1       3.657   3.900  19.413  0.00  0.00    +0.000 A 
ENDBRANCH   1  17
TORSDOF 1
ENDMDL
MODEL 2
REMARK VINA RESULT:      -7.8      1.796      5.251
REMARK  Name = 
REMARK  2 active torsions:
REMARK  status: ('A' for Active; 'I' for Inactive)
REMARK    1  A    between atoms: C_1  and  C_2
REMARK    2  A    between atoms: C_7  and  C_8
REMARK                            x       y       z     vdW  Elec       q    Type
REMARK                         _______ _______ _______ _____ _____    ______ ____
ROOT
ATOM      1  C   UNL     1       4.523   4.196  18.544  0.00  0.00    +0.000 C 
ATOM      2  O   UNL     1       5.308   3.229  19.263  0.00  0.00    +0.000 OA
ATOM      3  C   UNL     1       4.507   2.564  20.160  0.00  0.00    +0.000 C 
ATOM      4  O   UNL     1       4.875   1.854  21.073  0.00  0.00    +0.000 OA
ATOM      5  C   UNL     1       3.127   2.825  19.759  0.00  0.00    +0.000 A 
ATOM      6  C   UNL     1       1.950   2.358  20.315  0.00  0.00    +0.000 A 
ATOM      7  C   UNL     1       0.757   2.694  19.671  0.00  0.00    +0.000 A 
ATOM      8  C   UNL     1       0.775   3.448  18.484  0.00  0.00    +0.000 A 
ATOM      9  C   UNL     1       1.977   3.945  17.972  0.00  0.00    +0.000 A 
ATOM     10  C   UNL     1       3.147   3.657  18.655  0.00  0.00    +0.000 A 
ENDROOT
BRANCH   1  17
ATOM     11  C   UNL     1       4.225   7.065  17.379  0.00  0.00    +0.000 C 
ATOM     12  C   UNL     1       4.853   5.927  16.627  0.00  0.00    +0.000 A 
ATOM     13  C   UNL     1       5.300   6.157  15.310  0.00  0.00    +0.000 A 
ATOM     14  C   UNL     1       5.919   5.155  14.562  0.00  0.00    +0.000 A 
ATOM     15  C   UNL     1       6.114   3.900  15.119  0.00  0.00    +0.000 A 
ATOM     16  C   UNL     1       5.667   3.646  16.409  0.00  0.00    +0.000 A 
ATOM     17  C   UNL     1       5.006   4.640  17.180  0.00  0.00    +0.000 A 
ENDBRANCH   1  17
TORSDOF 1
ENDMDL
MODEL 3
REMARK VINA RESULT:      -7.8      0.665      1.669
REMARK  Name = 
REMARK  2 active torsions:
REMARK  status: ('A' for Active; 'I' for Inactive)
REMARK    1  A    between atoms: C_1  and  C_2
REMARK    2  A    between atoms: C_7  and  C_8
REMARK                            x       y       z     vdW  Elec       q    Type
REMARK                         _______ _______ _______ _____ _____    ______ ____
ROOT
ATOM      1  C   UNL     1       5.136   4.157  19.118  0.00  0.00    +0.000 C 
ATOM      2  O   UNL     1       6.012   5.106  19.750  0.00  0.00    +0.000 OA
ATOM      3  C   UNL     1       7.018   5.451  18.879  0.00  0.00    +0.000 C 
ATOM      4  O   UNL     1       8.042   6.044  19.152  0.00  0.00    +0.000 OA
ATOM      5  C   UNL     1       6.583   5.024  17.551  0.00  0.00    +0.000 A 
ATOM      6  C   UNL     1       7.220   5.171  16.332  0.00  0.00    +0.000 A 
ATOM      7  C   UNL     1       6.533   4.747  15.193  0.00  0.00    +0.000 A 
ATOM      8  C   UNL     1       5.230   4.228  15.297  0.00  0.00    +0.000 A 
ATOM      9  C   UNL     1       4.631   4.049  16.548  0.00  0.00    +0.000 A 
ATOM     10  C   UNL     1       5.349   4.416  17.675  0.00  0.00    +0.000 A 
ENDROOT
BRANCH   1  17
ATOM     11  C   UNL     1       3.043   6.458  19.087  0.00  0.00    +0.000 C 
ATOM     12  C   UNL     1       2.761   5.091  19.640  0.00  0.00    +0.000 A 
ATOM     13  C   UNL     1       1.495   4.843  20.208  0.00  0.00    +0.000 A 
ATOM     14  C   UNL     1       1.154   3.589  20.715  0.00  0.00    +0.000 A 
ATOM     15  C   UNL     1       2.070   2.549  20.656  0.00  0.00    +0.000 A 
ATOM     16  C   UNL     1       3.328   2.775  20.115  0.00  0.00    +0.000 A 
ATOM     17  C   UNL     1       3.712   4.051  19.620  0.00  0.00    +0.000 A 
ENDBRANCH   1  17
TORSDOF 1
ENDMDL
MODEL 4
REMARK VINA RESULT:      -7.7      1.656      5.359
REMARK  Name = 
REMARK  2 active torsions:
REMARK  status: ('A' for Active; 'I' for Inactive)
REMARK    1  A    between atoms: C_1  and  C_2
REMARK    2  A    between atoms: C_7  and  C_8
REMARK                            x       y       z     vdW  Elec       q    Type
REMARK                         _______ _______ _______ _____ _____    ______ ____
ROOT
ATOM      1  C   UNL     1       3.500   5.335  17.878  0.00  0.00    +0.000 C 
ATOM      2  O   UNL     1       3.439   6.559  18.629  0.00  0.00    +0.000 OA
ATOM      3  C   UNL     1       2.437   6.473  19.566  0.00  0.00    +0.000 C 
ATOM      4  O   UNL     1       1.964   7.388  20.208  0.00  0.00    +0.000 OA
ATOM      5  C   UNL     1       2.100   5.056  19.685  0.00  0.00    +0.000 A 
ATOM      6  C   UNL     1       1.180   4.442  20.515  0.00  0.00    +0.000 A 
ATOM      7  C   UNL     1       1.122   3.047  20.488  0.00  0.00    +0.000 A 
ATOM      8  C   UNL     1       1.998   2.312  19.671  0.00  0.00    +0.000 A 
ATOM      9  C   UNL     1       2.886   2.963  18.809  0.00  0.00    +0.000 A 
ATOM     10  C   UNL     1       2.889   4.348  18.799  0.00  0.00    +0.000 A 
ENDROOT
BRANCH   1  17
ATOM     11  C   UNL     1       6.283   5.289  19.268  0.00  0.00    +0.000 C 
ATOM     12  C   UNL     1       6.078   4.972  17.815  0.00  0.00    +0.000 A 
ATOM     13  C   UNL     1       7.208   4.672  17.027  0.00  0.00    +0.000 A 
ATOM     14  C   UNL     1       7.091   4.340  15.677  0.00  0.00    +0.000 A 
ATOM     15  C   UNL     1       5.837   4.291  15.086  0.00  0.00    +0.000 A 
ATOM     16  C   UNL     1       4.712   4.598  15.838  0.00  0.00    +0.000 A 
ATOM     17  C   UNL     1       4.807   4.969  17.207  0.00  0.00    +0.000 A 
ENDBRANCH   1  17
TORSDOF 1
ENDMDL
MODEL 5
REMARK VINA RESULT:      -7.6      1.886      3.121
REMARK  Name = 
REMARK  2 active torsions:
REMARK  status: ('A' for Active; 'I' for Inactive)
REMARK    1  A    between atoms: C_1  and  C_2
REMARK    2  A    between atoms: C_7  and  C_8
REMARK                            x       y       z     vdW  Elec       q    Type
REMARK                         _______ _______ _______ _____ _____    ______ ____
ROOT
ATOM      1  C   UNL     1       3.777   4.716  17.595  0.00  0.00    +0.000 C 
ATOM      2  O   UNL     1       3.956   4.000  16.361  0.00  0.00    +0.000 OA
ATOM      3  C   UNL     1       5.231   4.208  15.892  0.00  0.00    +0.000 C 
ATOM      4  O   UNL     1       5.646   3.946  14.781  0.00  0.00    +0.000 OA
ATOM      5  C   UNL     1       6.004   4.741  17.011  0.00  0.00    +0.000 A 
ATOM      6  C   UNL     1       7.343   5.083  17.065  0.00  0.00    +0.000 A 
ATOM      7  C   UNL     1       7.853   5.488  18.301  0.00  0.00    +0.000 A 
ATOM      8  C   UNL     1       7.030   5.508  19.440  0.00  0.00    +0.000 A 
ATOM      9  C   UNL     1       5.668   5.202  19.344  0.00  0.00    +0.000 A 
ATOM     10  C   UNL     1       5.163   4.861  18.100  0.00  0.00    +0.000 A 
ENDROOT
BRANCH   1  17
ATOM     11  C   UNL     1       2.318   6.480  19.702  0.00  0.00    +0.000 C 
ATOM     12  C   UNL     1       2.066   5.009  19.537  0.00  0.00    +0.000 A 
ATOM     13  C   UNL     1       1.148   4.382  20.404  0.00  0.00    +0.000 A 
ATOM     14  C   UNL     1       0.843   3.025  20.291  0.00  0.00    +0.000 A 
ATOM     15  C   UNL     1       1.445   2.265  19.299  0.00  0.00    +0.000 A 
ATOM     16  C   UNL     1       2.365   2.857  18.445  0.00  0.00    +0.000 A 
ATOM     17  C   UNL     1       2.715   4.230  18.559  0.00  0.00    +0.000 A 
ENDBRANCH   1  17
TORSDOF 1
ENDMDL
MODEL 6
REMARK VINA RESULT:      -7.6      2.083      3.203
REMARK  Name = 
REMARK  2 active torsions:
REMARK  status: ('A' for Active; 'I' for Inactive)
REMARK    1  A    between atoms: C_1  and  C_2
REMARK    2  A    between atoms: C_7  and  C_8
REMARK                            x       y       z     vdW  Elec       q    Type
REMARK                         _______ _______ _______ _____ _____    ______ ____
ROOT
ATOM      1  C   UNL     1       3.885   5.606  17.961  0.00  0.00    +0.000 C 
ATOM      2  O   UNL     1       3.890   5.845  16.543  0.00  0.00    +0.000 OA
ATOM      3  C   UNL     1       5.044   6.507  16.194  0.00  0.00    +0.000 C 
ATOM      4  O   UNL     1       5.272   7.059  15.137  0.00  0.00    +0.000 OA
ATOM      5  C   UNL     1       5.965   6.358  17.319  0.00  0.00    +0.000 A 
ATOM      6  C   UNL     1       7.265   6.810  17.451  0.00  0.00    +0.000 A 
ATOM      7  C   UNL     1       7.956   6.446  18.609  0.00  0.00    +0.000 A 
ATOM      8  C   UNL     1       7.351   5.622  19.573  0.00  0.00    +0.000 A 
ATOM      9  C   UNL     1       6.019   5.219  19.433  0.00  0.00    +0.000 A 
ATOM     10  C   UNL     1       5.325   5.639  18.310  0.00  0.00    +0.000 A 
ENDROOT
BRANCH   1  17
ATOM     11  C   UNL     1       1.955   5.768  20.395  0.00  0.00    +0.000 C 
ATOM     12  C   UNL     1       2.193   4.511  19.609  0.00  0.00    +0.000 A 
ATOM     13  C   UNL     1       1.536   3.331  20.014  0.00  0.00    +0.000 A 
ATOM     14  C   UNL     1       1.687   2.133  19.315  0.00  0.00    +0.000 A 
ATOM     15  C   UNL     1       2.492   2.091  18.186  0.00  0.00    +0.000 A 
ATOM     16  C   UNL     1       3.161   3.237  17.779  0.00  0.00    +0.000 A 
ATOM     17  C   UNL     1       3.048   4.461  18.491  0.00  0.00    +0.000 A 
ENDBRANCH   1  17
TORSDOF 1
ENDMDL
MODEL 7
REMARK VINA RESULT:      -7.5      2.064      2.711
REMARK  Name = 
REMARK  2 active torsions:
REMARK  status: ('A' for Active; 'I' for Inactive)
REMARK    1  A    between atoms: C_1  and  C_2
REMARK    2  A    between atoms: C_7  and  C_8
REMARK                            x       y       z     vdW  Elec       q    Type
REMARK                         _______ _______ _______ _____ _____    ______ ____
ROOT
ATOM      1  C   UNL     1       3.848   5.780  18.229  0.00  0.00    +0.000 C 
ATOM      2  O   UNL     1       3.760   5.931  16.802  0.00  0.00    +0.000 OA
ATOM      3  C   UNL     1       4.930   6.470  16.325  0.00  0.00    +0.000 C 
ATOM      4  O   UNL     1       5.117   6.935  15.219  0.00  0.00    +0.000 OA
ATOM      5  C   UNL     1       5.923   6.313  17.386  0.00  0.00    +0.000 A 
ATOM      6  C   UNL     1       7.261   6.661  17.390  0.00  0.00    +0.000 A 
ATOM      7  C   UNL     1       8.012   6.312  18.515  0.00  0.00    +0.000 A 
ATOM      8  C   UNL     1       7.421   5.602  19.575  0.00  0.00    +0.000 A 
ATOM      9  C   UNL     1       6.054   5.305  19.562  0.00  0.00    +0.000 A 
ATOM     10  C   UNL     1       5.309   5.712  18.468  0.00  0.00    +0.000 A 
ENDROOT
BRANCH   1  17
ATOM     11  C   UNL     1       3.808   2.746  17.545  0.00  0.00    +0.000 C 
ATOM     12  C   UNL     1       2.917   3.373  18.578  0.00  0.00    +0.000 A 
ATOM     13  C   UNL     1       1.987   2.554  19.251  0.00  0.00    +0.000 A 
ATOM     14  C   UNL     1       1.148   3.063  20.243  0.00  0.00    +0.000 A 
ATOM     15  C   UNL     1       1.227   4.403  20.591  0.00  0.00    +0.000 A 
ATOM     16  C   UNL     1       2.124   5.231  19.931  0.00  0.00    +0.000 A 
ATOM     17  C   UNL     1       2.968   4.745  18.896  0.00  0.00    +0.000 A 
ENDBRANCH   1  17
TORSDOF 1
ENDMDL
MODEL 8
REMARK VINA RESULT:      -7.5      1.899      5.459
REMARK  Name = 
REMARK  2 active torsions:
REMARK  status: ('A' for Active; 'I' for Inactive)
REMARK    1  A    between atoms: C_1  and  C_2
REMARK    2  A    between atoms: C_7  and  C_8
REMARK                            x       y       z     vdW  Elec       q    Type
REMARK                         _______ _______ _______ _____ _____    ______ ____
ROOT
ATOM      1  C   UNL     1       4.946   4.269  18.933  0.00  0.00    +0.000 C 
ATOM      2  O   UNL     1       4.703   3.226  17.974  0.00  0.00    +0.000 OA
ATOM      3  C   UNL     1       3.497   2.627  18.245  0.00  0.00    +0.000 C 
ATOM      4  O   UNL     1       3.088   1.580  17.785  0.00  0.00    +0.000 OA
ATOM      5  C   UNL     1       2.775   3.529  19.140  0.00  0.00    +0.000 A 
ATOM      6  C   UNL     1       1.506   3.401  19.675  0.00  0.00    +0.000 A 
ATOM      7  C   UNL     1       1.021   4.466  20.437  0.00  0.00    +0.000 A 
ATOM      8  C   UNL     1       1.792   5.629  20.611  0.00  0.00    +0.000 A 
ATOM      9  C   UNL     1       3.090   5.709  20.097  0.00  0.00    +0.000 A 
ATOM     10  C   UNL     1       3.583   4.620  19.396  0.00  0.00    +0.000 A 
ENDROOT
BRANCH   1  17
ATOM     11  C   UNL     1       4.405   6.361  16.695  0.00  0.00    +0.000 C 
ATOM     12  C   UNL     1       5.662   6.334  17.516  0.00  0.00    +0.000 A 
ATOM     13  C   UNL     1       6.668   7.281  17.237  0.00  0.00    +0.000 A 
ATOM     14  C   UNL     1       7.850   7.333  17.978  0.00  0.00    +0.000 A 
ATOM     15  C   UNL     1       8.047   6.442  19.022  0.00  0.00    +0.000 A 
ATOM     16  C   UNL     1       7.077   5.490  19.304  0.00  0.00    +0.000 A 
ATOM     17  C   UNL     1       5.879   5.397  18.545  0.00  0.00    +0.000 A 
ENDBRANCH   1  17
TORSDOF 1
ENDMDL
MODEL 9
REMARK VINA RESULT:      -7.4      1.820      2.584
REMARK  Name = 
REMARK  2 active torsions:
REMARK  status: ('A' for Active; 'I' for Inactive)
REMARK    1  A    between atoms: C_1  and  C_2
REMARK    2  A    between atoms: C_7  and  C_8
REMARK                            x       y       z     vdW  Elec       q    Type
REMARK                         _______ _______ _______ _____ _____    ______ ____
ROOT
ATOM      1  C   UNL     1       3.746   4.634  17.752  0.00  0.00    +0.000 C 
ATOM      2  O   UNL     1       3.869   4.000  16.468  0.00  0.00    +0.000 OA
ATOM      3  C   UNL     1       5.069   4.350  15.897  0.00  0.00    +0.000 C 
ATOM      4  O   UNL     1       5.398   4.184  14.740  0.00  0.00    +0.000 OA
ATOM      5  C   UNL     1       5.895   4.899  16.970  0.00  0.00    +0.000 A 
ATOM      6  C   UNL     1       7.198   5.363  16.922  0.00  0.00    +0.000 A 
ATOM      7  C   UNL     1       7.784   5.754  18.127  0.00  0.00    +0.000 A 
ATOM      8  C   UNL     1       7.076   5.639  19.337  0.00  0.00    +0.000 A 
ATOM      9  C   UNL     1       5.745   5.210  19.347  0.00  0.00    +0.000 A 
ATOM     10  C   UNL     1       5.155   4.885  18.136  0.00  0.00    +0.000 A 
ENDROOT
BRANCH   1  17
ATOM     11  C   UNL     1       3.528   1.586  18.334  0.00  0.00    +0.000 C 
ATOM     12  C   UNL     1       2.698   2.623  19.033  0.00  0.00    +0.000 A 
ATOM     13  C   UNL     1       1.743   2.195  19.978  0.00  0.00    +0.000 A 
ATOM     14  C   UNL     1       0.957   3.104  20.687  0.00  0.00    +0.000 A 
ATOM     15  C   UNL     1       1.116   4.465  20.473  0.00  0.00    +0.000 A 
ATOM     16  C   UNL     1       2.039   4.909  19.536  0.00  0.00    +0.000 A 
ATOM     17  C   UNL     1       2.829   4.003  18.779  0.00  0.00    +0.000 A 
ENDBRANCH   1  17
TORSDOF 1
ENDMDL
