MODEL 1
REMARK VINA RESULT:      -6.9      0.000      0.000
REMARK  Name = 
REMARK  3 active torsions:
REMARK  status: ('A' for Active; 'I' for Inactive)
REMARK    1  A    between atoms: C_1  and  C_2
REMARK    2  A    between atoms: C_2  and  C_3
REMARK    3  A    between atoms: C_3  and  C_4
REMARK                            x       y       z     vdW  Elec       q    Type
REMARK                         _______ _______ _______ _____ _____    ______ ____
ROOT
ATOM      1  C   UNL     1       2.163   6.832  19.738  0.00  0.00    +0.000 C 
ATOM      2  C   UNL     1       2.595   5.504  19.072  0.00  0.00    +0.000 C 
ATOM      3  C   UNL     1       4.021   5.653  18.498  0.00  0.00    +0.000 A 
ATOM      4  C   UNL     1       4.310   6.694  17.587  0.00  0.00    +0.000 A 
ATOM      5  C   UNL     1       5.551   6.780  16.958  0.00  0.00    +0.000 A 
ATOM      6  C   UNL     1       6.519   5.827  17.234  0.00  0.00    +0.000 A 
ATOM      7  F   UNL     1       7.704   5.895  16.613  0.00  0.00    +0.000 F 
ATOM      8  C   UNL     1       6.270   4.800  18.131  0.00  0.00    +0.000 A 
ATOM      9  C   UNL     1       5.021   4.694  18.772  0.00  0.00    +0.000 A 
ATOM     10  C   UNL     1       4.798   3.510  19.680  0.00  0.00    +0.000 C 
ATOM     11  N   UNL     1       3.500   3.513  20.342  0.00  0.00    +0.000 N 
ATOM     12  C   UNL     1       3.089   2.560  21.238  0.00  0.00    +0.000 A 
ATOM     13  C   UNL     1       1.797   2.852  21.611  0.00  0.00    +0.000 A 
ATOM     14  C   UNL     1       1.417   4.020  20.913  0.00  0.00    +0.000 A 
ATOM     15  C   UNL     1       2.484   4.404  20.114  0.00  0.00    +0.000 A 
ENDROOT
BRANCH   2  16
ATOM     16  C   UNL     1       1.633   5.156  17.901  0.00  0.00    +0.000 C 
BRANCH  16  17
ATOM     17  C   UNL     1       1.884   3.740  17.408  0.00  0.00    +0.000 C 
ATOM     18  N   UNL     1       2.091   2.566  16.998  0.00  0.00    +0.000 NA
ENDBRANCH  16  17
ENDBRANCH   2  16
TORSDOF 2
ENDMDL
MODEL 2
REMARK VINA RESULT:      -6.8      1.634      2.629
REMARK  Name = 
REMARK  3 active torsions:
REMARK  status: ('A' for Active; 'I' for Inactive)
REMARK    1  A    between atoms: C_1  and  C_2
REMARK    2  A    between atoms: C_2  and  C_3
REMARK    3  A    between atoms: C_3  and  C_4
REMARK                            x       y       z     vdW  Elec       q    Type
REMARK                         _______ _______ _______ _____ _____    ______ ____
ROOT
ATOM      1  C   UNL     1       2.226   3.162  16.622  0.00  0.00    +0.000 C 
ATOM      2  C   UNL     1       3.199   3.265  17.821  0.00  0.00    +0.000 C 
ATOM      3  C   UNL     1       4.365   4.211  17.461  0.00  0.00    +0.000 A 
ATOM      4  C   UNL     1       5.144   3.965  16.307  0.00  0.00    +0.000 A 
ATOM      5  C   UNL     1       6.276   4.726  16.023  0.00  0.00    +0.000 A 
ATOM      6  C   UNL     1       6.644   5.744  16.889  0.00  0.00    +0.000 A 
ATOM      7  F   UNL     1       7.745   6.462  16.630  0.00  0.00    +0.000 F 
ATOM      8  C   UNL     1       5.895   6.018  18.023  0.00  0.00    +0.000 A 
ATOM      9  C   UNL     1       4.751   5.257  18.328  0.00  0.00    +0.000 A 
ATOM     10  C   UNL     1       4.027   5.565  19.616  0.00  0.00    +0.000 C 
ATOM     11  N   UNL     1       2.826   4.767  19.821  0.00  0.00    +0.000 N 
ATOM     12  C   UNL     1       1.989   4.897  20.899  0.00  0.00    +0.000 A 
ATOM     13  C   UNL     1       0.998   3.948  20.788  0.00  0.00    +0.000 A 
ATOM     14  C   UNL     1       1.250   3.221  19.604  0.00  0.00    +0.000 A 
ATOM     15  C   UNL     1       2.403   3.734  19.027  0.00  0.00    +0.000 A 
ENDROOT
BRANCH   2  16
ATOM     16  C   UNL     1       3.792   1.866  18.149  0.00  0.00    +0.000 C 
BRANCH  16  17
ATOM     17  C   UNL     1       4.479   1.883  19.506  0.00  0.00    +0.000 C 
ATOM     18  N   UNL     1       5.048   1.896  20.631  0.00  0.00    +0.000 NA
ENDBRANCH  16  17
ENDBRANCH   2  16
TORSDOF 2
ENDMDL
MODEL 3
REMARK VINA RESULT:      -6.8      2.116      3.696
REMARK  Name = 
REMARK  3 active torsions:
REMARK  status: ('A' for Active; 'I' for Inactive)
REMARK    1  A    between atoms: C_1  and  C_2
REMARK    2  A    between atoms: C_2  and  C_3
REMARK    3  A    between atoms: C_3  and  C_4
REMARK                            x       y       z     vdW  Elec       q    Type
REMARK                         _______ _______ _______ _____ _____    ______ ____
ROOT
ATOM      1  C   UNL     1       2.691   3.081  17.699  0.00  0.00    +0.000 C 
ATOM      2  C   UNL     1       3.762   4.136  18.067  0.00  0.00    +0.000 C 
ATOM      3  C   UNL     1       4.597   4.484  16.815  0.00  0.00    +0.000 A 
ATOM      4  C   UNL     1       5.248   3.458  16.093  0.00  0.00    +0.000 A 
ATOM      5  C   UNL     1       6.107   3.751  15.036  0.00  0.00    +0.000 A 
ATOM      6  C   UNL     1       6.325   5.075  14.685  0.00  0.00    +0.000 A 
ATOM      7  F   UNL     1       7.168   5.359  13.684  0.00  0.00    +0.000 F 
ATOM      8  C   UNL     1       5.693   6.103  15.367  0.00  0.00    +0.000 A 
ATOM      9  C   UNL     1       4.825   5.826  16.441  0.00  0.00    +0.000 A 
ATOM     10  C   UNL     1       4.231   6.999  17.181  0.00  0.00    +0.000 C 
ATOM     11  N   UNL     1       3.304   6.618  18.238  0.00  0.00    +0.000 N 
ATOM     12  C   UNL     1       2.616   7.510  19.020  0.00  0.00    +0.000 A 
ATOM     13  C   UNL     1       1.886   6.796  19.943  0.00  0.00    +0.000 A 
ATOM     14  C   UNL     1       2.147   5.428  19.711  0.00  0.00    +0.000 A 
ATOM     15  C   UNL     1       3.046   5.339  18.658  0.00  0.00    +0.000 A 
ENDROOT
BRANCH   2  16
ATOM     16  C   UNL     1       4.723   3.567  19.149  0.00  0.00    +0.000 C 
BRANCH  16  17
ATOM     17  C   UNL     1       5.848   4.550  19.433  0.00  0.00    +0.000 C 
ATOM     18  N   UNL     1       6.781   5.365  19.669  0.00  0.00    +0.000 NA
ENDBRANCH  16  17
ENDBRANCH   2  16
TORSDOF 2
ENDMDL
MODEL 4
REMARK VINA RESULT:      -6.6      1.854      3.297
REMARK  Name = 
REMARK  3 active torsions:
REMARK  status: ('A' for Active; 'I' for Inactive)
REMARK    1  A    between atoms: C_1  and  C_2
REMARK    2  A    between atoms: C_2  and  C_3
REMARK    3  A    between atoms: C_3  and  C_4
REMARK                            x       y       z     vdW  Elec       q    Type
REMARK                         _______ _______ _______ _____ _____    ______ ____
ROOT
ATOM      1  C   UNL     1       2.013   3.264  18.362  0.00  0.00    +0.000 C 
ATOM      2  C   UNL     1       3.134   4.263  18.736  0.00  0.00    +0.000 C 
ATOM      3  C   UNL     1       3.966   4.601  17.480  0.00  0.00    +0.000 A 
ATOM      4  C   UNL     1       4.561   3.564  16.726  0.00  0.00    +0.000 A 
ATOM      5  C   UNL     1       5.418   3.843  15.663  0.00  0.00    +0.000 A 
ATOM      6  C   UNL     1       5.689   5.163  15.338  0.00  0.00    +0.000 A 
ATOM      7  F   UNL     1       6.530   5.432  14.331  0.00  0.00    +0.000 F 
ATOM      8  C   UNL     1       5.113   6.203  16.051  0.00  0.00    +0.000 A 
ATOM      9  C   UNL     1       4.248   5.940  17.131  0.00  0.00    +0.000 A 
ATOM     10  C   UNL     1       3.716   7.121  17.905  0.00  0.00    +0.000 C 
ATOM     11  N   UNL     1       2.788   6.757  18.968  0.00  0.00    +0.000 N 
ATOM     12  C   UNL     1       2.151   7.661  19.778  0.00  0.00    +0.000 A 
ATOM     13  C   UNL     1       1.403   6.959  20.696  0.00  0.00    +0.000 A 
ATOM     14  C   UNL     1       1.600   5.587  20.431  0.00  0.00    +0.000 A 
ATOM     15  C   UNL     1       2.480   5.482  19.364  0.00  0.00    +0.000 A 
ENDROOT
BRANCH   2  16
ATOM     16  C   UNL     1       4.083   3.628  19.792  0.00  0.00    +0.000 C 
BRANCH  16  17
ATOM     17  C   UNL     1       3.282   2.978  20.908  0.00  0.00    +0.000 C 
ATOM     18  N   UNL     1       2.617   2.439  21.834  0.00  0.00    +0.000 NA
ENDBRANCH  16  17
ENDBRANCH   2  16
TORSDOF 2
ENDMDL
MODEL 5
REMARK VINA RESULT:      -6.5      2.832      4.830
REMARK  Name = 
REMARK  3 active torsions:
REMARK  status: ('A' for Active; 'I' for Inactive)
REMARK    1  A    between atoms: C_1  and  C_2
REMARK    2  A    between atoms: C_2  and  C_3
REMARK    3  A    between atoms: C_3  and  C_4
REMARK                            x       y       z     vdW  Elec       q    Type
REMARK                         _______ _______ _______ _____ _____    ______ ____
ROOT
ATOM      1  C   UNL     1       5.187   5.429  15.475  0.00  0.00    +0.000 C 
ATOM      2  C   UNL     1       4.860   5.672  16.968  0.00  0.00    +0.000 C 
ATOM      3  C   UNL     1       4.144   4.433  17.549  0.00  0.00    +0.000 A 
ATOM      4  C   UNL     1       2.968   3.945  16.934  0.00  0.00    +0.000 A 
ATOM      5  C   UNL     1       2.232   2.908  17.505  0.00  0.00    +0.000 A 
ATOM      6  C   UNL     1       2.663   2.345  18.696  0.00  0.00    +0.000 A 
ATOM      7  F   UNL     1       1.944   1.364  19.257  0.00  0.00    +0.000 F 
ATOM      8  C   UNL     1       3.818   2.794  19.317  0.00  0.00    +0.000 A 
ATOM      9  C   UNL     1       4.572   3.844  18.758  0.00  0.00    +0.000 A 
ATOM     10  C   UNL     1       5.776   4.327  19.527  0.00  0.00    +0.000 C 
ATOM     11  N   UNL     1       6.526   5.375  18.847  0.00  0.00    +0.000 N 
ATOM     12  C   UNL     1       7.675   5.943  19.336  0.00  0.00    +0.000 A 
ATOM     13  C   UNL     1       8.069   6.930  18.461  0.00  0.00    +0.000 A 
ATOM     14  C   UNL     1       7.124   6.959  17.413  0.00  0.00    +0.000 A 
ATOM     15  C   UNL     1       6.161   5.997  17.681  0.00  0.00    +0.000 A 
ENDROOT
BRANCH   2  16
ATOM     16  C   UNL     1       3.912   6.895  17.115  0.00  0.00    +0.000 C 
BRANCH  16  17
ATOM     17  C   UNL     1       3.200   6.860  18.458  0.00  0.00    +0.000 C 
ATOM     18  N   UNL     1       2.609   6.831  19.572  0.00  0.00    +0.000 NA
ENDBRANCH  16  17
ENDBRANCH   2  16
TORSDOF 2
ENDMDL
MODEL 6
REMARK VINA RESULT:      -6.5      2.373      3.714
REMARK  Name = 
REMARK  3 active torsions:
REMARK  status: ('A' for Active; 'I' for Inactive)
REMARK    1  A    between atoms: C_1  and  C_2
REMARK    2  A    between atoms: C_2  and  C_3
REMARK    3  A    between atoms: C_3  and  C_4
REMARK                            x       y       z     vdW  Elec       q    Type
REMARK                         _______ _______ _______ _____ _____    ______ ____
ROOT
ATOM      1  C   UNL     1       4.265   3.919  17.422  0.00  0.00    +0.000 C 
ATOM      2  C   UNL     1       4.223   4.749  18.727  0.00  0.00    +0.000 C 
ATOM      3  C   UNL     1       3.522   6.099  18.460  0.00  0.00    +0.000 A 
ATOM      4  C   UNL     1       3.995   6.950  17.435  0.00  0.00    +0.000 A 
ATOM      5  C   UNL     1       3.464   8.224  17.251  0.00  0.00    +0.000 A 
ATOM      6  C   UNL     1       2.450   8.665  18.088  0.00  0.00    +0.000 A 
ATOM      7  F   UNL     1       1.954   9.898  17.927  0.00  0.00    +0.000 F 
ATOM      8  C   UNL     1       1.957   7.850  19.095  0.00  0.00    +0.000 A 
ATOM      9  C   UNL     1       2.485   6.561  19.299  0.00  0.00    +0.000 A 
ATOM     10  C   UNL     1       1.948   5.760  20.460  0.00  0.00    +0.000 C 
ATOM     11  N   UNL     1       2.512   4.420  20.560  0.00  0.00    +0.000 N 
ATOM     12  C   UNL     1       2.150   3.500  21.510  0.00  0.00    +0.000 A 
ATOM     13  C   UNL     1       2.925   2.376  21.334  0.00  0.00    +0.000 A 
ATOM     14  C   UNL     1       3.784   2.630  20.242  0.00  0.00    +0.000 A 
ATOM     15  C   UNL     1       3.524   3.914  19.787  0.00  0.00    +0.000 A 
ENDROOT
BRANCH   2  16
ATOM     16  C   UNL     1       5.668   5.042  19.220  0.00  0.00    +0.000 C 
BRANCH  16  17
ATOM     17  C   UNL     1       6.675   4.772  18.113  0.00  0.00    +0.000 C 
ATOM     18  N   UNL     1       7.510   4.548  17.195  0.00  0.00    +0.000 NA
ENDBRANCH  16  17
ENDBRANCH   2  16
TORSDOF 2
ENDMDL
MODEL 7
REMARK VINA RESULT:      -6.5      2.844      5.107
REMARK  Name = 
REMARK  3 active torsions:
REMARK  status: ('A' for Active; 'I' for Inactive)
REMARK    1  A    between atoms: C_1  and  C_2
REMARK    2  A    between atoms: C_2  and  C_3
REMARK    3  A    between atoms: C_3  and  C_4
REMARK                            x       y       z     vdW  Elec       q    Type
REMARK                         _______ _______ _______ _____ _____    ______ ____
ROOT
ATOM      1  C   UNL     1       3.470   7.286  17.603  0.00  0.00    +0.000 C 
ATOM      2  C   UNL     1       4.220   5.985  17.978  0.00  0.00    +0.000 C 
ATOM      3  C   UNL     1       3.275   5.052  18.767  0.00  0.00    +0.000 A 
ATOM      4  C   UNL     1       2.633   5.521  19.936  0.00  0.00    +0.000 A 
ATOM      5  C   UNL     1       1.875   4.668  20.735  0.00  0.00    +0.000 A 
ATOM      6  C   UNL     1       1.745   3.336  20.375  0.00  0.00    +0.000 A 
ATOM      7  F   UNL     1       1.035   2.510  21.154  0.00  0.00    +0.000 F 
ATOM      8  C   UNL     1       2.353   2.848  19.228  0.00  0.00    +0.000 A 
ATOM      9  C   UNL     1       3.127   3.694  18.411  0.00  0.00    +0.000 A 
ATOM     10  C   UNL     1       3.817   3.077  17.219  0.00  0.00    +0.000 C 
ATOM     11  N   UNL     1       4.548   4.035  16.402  0.00  0.00    +0.000 N 
ATOM     12  C   UNL     1       5.222   3.713  15.251  0.00  0.00    +0.000 A 
ATOM     13  C   UNL     1       5.837   4.851  14.783  0.00  0.00    +0.000 A 
ATOM     14  C   UNL     1       5.526   5.893  15.684  0.00  0.00    +0.000 A 
ATOM     15  C   UNL     1       4.739   5.361  16.694  0.00  0.00    +0.000 A 
ENDROOT
BRANCH   2  16
ATOM     16  C   UNL     1       5.442   6.315  18.882  0.00  0.00    +0.000 C 
BRANCH  16  17
ATOM     17  C   UNL     1       6.551   5.297  18.671  0.00  0.00    +0.000 C 
ATOM     18  N   UNL     1       7.472   4.453  18.496  0.00  0.00    +0.000 NA
ENDBRANCH  16  17
ENDBRANCH   2  16
TORSDOF 2
ENDMDL
MODEL 8
REMARK VINA RESULT:      -6.3      2.668      4.922
REMARK  Name = 
REMARK  3 active torsions:
REMARK  status: ('A' for Active; 'I' for Inactive)
REMARK    1  A    between atoms: C_1  and  C_2
REMARK    2  A    between atoms: C_2  and  C_3
REMARK    3  A    between atoms: C_3  and  C_4
REMARK                            x       y       z     vdW  Elec       q    Type
REMARK                         _______ _______ _______ _____ _____    ______ ____
ROOT
ATOM      1  C   UNL     1       4.442   3.405  18.967  0.00  0.00    +0.000 C 
ATOM      2  C   UNL     1       3.564   4.347  18.109  0.00  0.00    +0.000 C 
ATOM      3  C   UNL     1       2.920   5.421  19.013  0.00  0.00    +0.000 A 
ATOM      4  C   UNL     1       2.151   5.033  20.133  0.00  0.00    +0.000 A 
ATOM      5  C   UNL     1       1.457   5.972  20.894  0.00  0.00    +0.000 A 
ATOM      6  C   UNL     1       1.525   7.312  20.546  0.00  0.00    +0.000 A 
ATOM      7  F   UNL     1       0.841   8.213  21.262  0.00  0.00    +0.000 F 
ATOM      8  C   UNL     1       2.280   7.726  19.459  0.00  0.00    +0.000 A 
ATOM      9  C   UNL     1       2.984   6.791  18.676  0.00  0.00    +0.000 A 
ATOM     10  C   UNL     1       3.725   7.307  17.467  0.00  0.00    +0.000 C 
ATOM     11  N   UNL     1       4.469   6.279  16.751  0.00  0.00    +0.000 N 
ATOM     12  C   UNL     1       5.244   6.517  15.645  0.00  0.00    +0.000 A 
ATOM     13  C   UNL     1       5.743   5.312  15.205  0.00  0.00    +0.000 A 
ATOM     14  C   UNL     1       5.248   4.315  16.074  0.00  0.00    +0.000 A 
ATOM     15  C   UNL     1       4.442   4.935  17.017  0.00  0.00    +0.000 A 
ENDROOT
BRANCH   2  16
ATOM     16  C   UNL     1       2.423   3.539  17.427  0.00  0.00    +0.000 C 
BRANCH  16  17
ATOM     17  C   UNL     1       1.884   2.477  18.371  0.00  0.00    +0.000 C 
ATOM     18  N   UNL     1       1.437   1.595  19.154  0.00  0.00    +0.000 NA
ENDBRANCH  16  17
ENDBRANCH   2  16
TORSDOF 2
ENDMDL
MODEL 9
REMARK VINA RESULT:      -6.3      2.843      5.031
REMARK  Name = 
REMARK  3 active torsions:
REMARK  status: ('A' for Active; 'I' for Inactive)
REMARK    1  A    between atoms: C_1  and  C_2
REMARK    2  A    between atoms: C_2  and  C_3
REMARK    3  A    between atoms: C_3  and  C_4
REMARK                            x       y       z     vdW  Elec       q    Type
REMARK                         _______ _______ _______ _____ _____    ______ ____
ROOT
ATOM      1  C   UNL     1       5.714   5.010  18.636  0.00  0.00    +0.000 C 
ATOM      2  C   UNL     1       4.187   4.914  18.408  0.00  0.00    +0.000 C 
ATOM      3  C   UNL     1       3.535   4.147  19.579  0.00  0.00    +0.000 A 
ATOM      4  C   UNL     1       3.992   2.853  19.917  0.00  0.00    +0.000 A 
ATOM      5  C   UNL     1       3.345   2.087  20.885  0.00  0.00    +0.000 A 
ATOM      6  C   UNL     1       2.233   2.607  21.530  0.00  0.00    +0.000 A 
ATOM      7  F   UNL     1       1.597   1.864  22.444  0.00  0.00    +0.000 F 
ATOM      8  C   UNL     1       1.767   3.878  21.229  0.00  0.00    +0.000 A 
ATOM      9  C   UNL     1       2.406   4.663  20.250  0.00  0.00    +0.000 A 
ATOM     10  C   UNL     1       1.799   6.006  19.925  0.00  0.00    +0.000 C 
ATOM     11  N   UNL     1       2.556   6.771  18.943  0.00  0.00    +0.000 N 
ATOM     12  C   UNL     1       2.218   8.031  18.520  0.00  0.00    +0.000 A 
ATOM     13  C   UNL     1       3.122   8.413  17.554  0.00  0.00    +0.000 A 
ATOM     14  C   UNL     1       4.031   7.346  17.389  0.00  0.00    +0.000 A 
ATOM     15  C   UNL     1       3.651   6.326  18.249  0.00  0.00    +0.000 A 
ENDROOT
BRANCH   2  16
ATOM     16  C   UNL     1       3.891   4.136  17.094  0.00  0.00    +0.000 C 
BRANCH  16  17
ATOM     17  C   UNL     1       5.156   3.995  16.262  0.00  0.00    +0.000 C 
ATOM     18  N   UNL     1       6.204   3.878  15.571  0.00  0.00    +0.000 NA
ENDBRANCH  16  17
ENDBRANCH   2  16
TORSDOF 2
ENDMDL
